# generated using pymatgen
data_MgH9C16O3
_symmetry_space_group_name_H-M   'P 1'
_cell_length_a   6.78855897
_cell_length_b   32.37369439
_cell_length_c   32.38207738
_cell_angle_alpha   119.53464584
_cell_angle_beta   93.99691446
_cell_angle_gamma   93.99221714
_symmetry_Int_Tables_number   1
_chemical_formula_structural   MgH9C16O3
_chemical_formula_sum   'Mg6 H54 C96 O18'
_cell_volume   6132.33543950
_cell_formula_units_Z   6
loop_
 _symmetry_equiv_pos_site_id
 _symmetry_equiv_pos_as_xyz
  1  'x, y, z'
loop_
 _atom_site_type_symbol
 _atom_site_label
 _atom_site_symmetry_multiplicity
 _atom_site_fract_x
 _atom_site_fract_y
 _atom_site_fract_z
 _atom_site_occupancy
 _atom_site_pbe_bader_charge
 _atom_site_pbe_bader_spin_density
 _atom_site_pbe_cm5_charge
 _atom_site_pbe_ddec_charge
 _atom_site_pbe_ddec_spin_density
 _atom_site_pbe_ddec_sum_bond_order
 _atom_site_pbe_magmom
Mg  Mg0  1  0.00002729  0.69467691  0.36940064  1  1.681847  0  0.90758  1.407832  0  1.333265  0
Mg  Mg1  1  0.63074938  0.63049464  0.32531598  1  1.682685  0  0.907586  1.407201  0  1.333722  0
Mg  Mg2  1  0.30538954  0.67458940  0.30527695  1  1.682992  0  0.90755  1.407917  0  1.3322  0
Mg  Mg3  1  0.99997377  0.30532288  0.63059965  1  1.681848  0  0.907562  1.407825  0  1.333298  0
Mg  Mg4  1  0.36925168  0.36950514  0.67468431  1  1.682682  0  0.907551  1.407175  0  1.333742  0
Mg  Mg5  1  0.69461265  0.32540967  0.69472270  1  1.682989  0  0.907562  1.40794  0  1.332138  0
H  H6  1  0.66111204  0.44609095  0.61844380  1  0.08409  0  0.103902  0.105425  0  1.028974  0
H  H7  1  0.65179781  0.51885752  0.63234557  1  0.036744  0  0.093084  0.13706  0  1.021564  0
H  H8  1  0.65049373  0.54476381  0.59226499  1  0.047658  0  0.089887  0.137191  0  1.051514  0
H  H9  1  0.61894863  0.42656465  0.50901685  1  0.067035  0  0.097868  0.098513  0  1.023387  0
H  H10  1  0.46953763  0.37183650  0.42580132  1  0.05086  0  0.101353  0.097979  0  0.992569  0
H  H11  1  0.60014992  0.37837426  0.35860254  1  0.057307  0  0.100428  0.096189  0  0.992037  0
H  H12  1  0.88124664  0.43917241  0.37504799  1  0.073341  0  0.098243  0.098336  0  1.020549  0
H  H13  1  0.66817408  0.60235375  0.41787845  1  0.095162  0  0.1049  0.122796  0  1.002219  0
H  H14  1  0.79463117  0.54409921  0.43869783  1  0.083305  0  0.102243  0.10206  0  1.009689  0
H  H15  1  0.04290713  0.38144617  0.82759462  1  0.096379  0  0.103877  0.105024  0  1.029205  0
H  H16  1  0.01980135  0.36766018  0.88656202  1  0.040502  0  0.093156  0.137327  0  1.021296  0
H  H17  1  0.05902290  0.40784952  0.95256941  1  0.084286  0  0.090025  0.137138  0  1.05091  0
H  H18  1  0.11086001  0.49112716  0.91740088  1  0.058725  0  0.097685  0.098482  0  1.02311  0
H  H19  1  0.04476059  0.57437899  0.94596707  1  0.059068  0  0.100897  0.097251  0  0.993013  0
H  H20  1  0.24232428  0.64154955  0.01977534  1  0.067905  0  0.10058  0.096496  0  0.991925  0
H  H21  1  0.50656067  0.62501304  0.06413882  1  0.070271  0  0.097917  0.098287  0  1.021163  0
H  H22  1  0.25052199  0.58202253  0.18455152  1  0.076418  0  0.105048  0.123107  0  1.001871  0
H  H23  1  0.35601063  0.56117522  0.10546735  1  0.077155  0  0.102486  0.102203  0  1.009525  0
H  H24  1  0.21513631  0.17253734  0.55390933  1  0.084777  0  0.103871  0.105465  0  1.029212  0
H  H25  1  0.13268468  0.11354802  0.48120796  1  0.044491  0  0.093237  0.137384  0  1.021949  0
H  H26  1  0.10554625  0.04753873  0.45534126  1  0.090535  0  0.09009  0.137747  0  1.051023  0
H  H27  1  0.19202512  0.08244294  0.57348173  1  0.068913  0  0.097528  0.098296  0  1.023679  0
H  H28  1  0.09715788  0.05386227  0.62811992  1  0.059986  0  0.101265  0.09806  0  0.992359  0
H  H29  1  0.22189565  0.98015310  0.62158205  1  0.045796  0  0.100514  0.096437  0  0.991436  0
H  H30  1  0.44246046  0.93587533  0.56081170  1  0.079023  0  0.098028  0.098278  0  1.020574  0
H  H31  1  0.06599279  0.81552271  0.39765195  1  0.09558  0  0.104556  0.122618  0  1.002584  0
H  H32  1  0.25079617  0.89458812  0.45585593  1  0.06784  0  0.102214  0.101502  0  1.01048  0
H  H33  1  0.33888335  0.55390633  0.38155424  1  0.084087  0  0.103864  0.105349  0  1.029043  0
H  H34  1  0.34821686  0.48114584  0.36765637  1  0.036656  0  0.093121  0.137165  0  1.021387  0
H  H35  1  0.34952666  0.45523919  0.40773686  1  0.04766  0  0.089906  0.137205  0  1.051541  0
H  H36  1  0.38105740  0.57343621  0.49098466  1  0.067069  0  0.097881  0.098538  0  1.023386  0
H  H37  1  0.53046307  0.62816257  0.57420077  1  0.050683  0  0.101343  0.097947  0  0.992602  0
H  H38  1  0.39984563  0.62162338  0.64139816  1  0.056897  0  0.100478  0.096251  0  0.992021  0
H  H39  1  0.11874486  0.56082595  0.62495022  1  0.073425  0  0.098224  0.098274  0  1.020553  0
H  H40  1  0.33182663  0.39764532  0.58211993  1  0.095176  0  0.104946  0.12286  0  1.00214  0
H  H41  1  0.20536676  0.45590022  0.56130193  1  0.083347  0  0.102234  0.102063  0  1.009591  0
H  H42  1  0.95709259  0.61855683  0.17240661  1  0.096465  0  0.103873  0.105052  0  1.029106  0
H  H43  1  0.98020503  0.63234139  0.11343984  1  0.040435  0  0.093153  0.13735  0  1.021339  0
H  H44  1  0.94098975  0.59215277  0.04743166  1  0.084599  0  0.090032  0.137165  0  1.050851  0
H  H45  1  0.88913716  0.50887370  0.08260049  1  0.058703  0  0.097685  0.098517  0  1.023255  0
H  H46  1  0.95523528  0.42562223  0.05403385  1  0.059126  0  0.100902  0.0972  0  0.993072  0
H  H47  1  0.75767065  0.35845274  0.98022516  1  0.068035  0  0.100558  0.096485  0  0.991903  0
H  H48  1  0.49343627  0.37499032  0.93586255  1  0.070378  0  0.097951  0.098324  0  1.021162  0
H  H49  1  0.74947926  0.41797761  0.81544771  1  0.076412  0  0.10504  0.12307  0  1.001934  0
H  H50  1  0.64399151  0.43882671  0.89453277  1  0.077163  0  0.102485  0.102172  0  1.009587  0
H  H51  1  0.78486439  0.82746173  0.44608968  1  0.085245  0  0.103834  0.105389  0  1.029268  0
H  H52  1  0.86731952  0.88645213  0.51879132  1  0.044428  0  0.093236  0.137423  0  1.021926  0
H  H53  1  0.89444909  0.95246141  0.54465788  1  0.090403  0  0.090116  0.137781  0  1.05102  0
H  H54  1  0.80797446  0.91755685  0.42651947  1  0.068831  0  0.097525  0.098279  0  1.023657  0
H  H55  1  0.90285055  0.94613752  0.37188172  1  0.059855  0  0.101282  0.098124  0  0.992373  0
H  H56  1  0.77811297  0.01984704  0.37841976  1  0.045825  0  0.100524  0.096381  0  0.99152  0
H  H57  1  0.55754154  0.06412338  0.43918869  1  0.079107  0  0.098009  0.09826  0  1.020779  0
H  H58  1  0.93400590  0.18447528  0.60234680  1  0.095569  0  0.104547  0.122612  0  1.002621  0
H  H59  1  0.74920287  0.10541059  0.54414411  1  0.067778  0  0.102201  0.101511  0  1.010457  0
C  C60  1  0.07206262  0.38877817  0.61237862  1  0.585261  0  0.09406  0.366682  0  4.080936  0
C  C61  1  0.87859863  0.40346942  0.62260868  1  -0.008628  0  -0.042581  -0.207533  0  3.979562  0
C  C62  1  0.81037402  0.43661136  0.61062920  1  -0.067568  0  -0.081614  -0.106502  0  3.964421  0
C  C63  1  0.92350172  0.45661622  0.58916194  1  -0.021019  0  -0.022145  0.029651  0  4.028335  0
C  C64  1  0.84625314  0.49218320  0.57817901  1  -0.059201  0  -0.009822  0.085577  0  4.056277  0
C  C65  1  0.70916973  0.52003355  0.60224818  1  -0.02394  0  -0.182005  -0.364549  0  3.793742  0
C  C66  1  0.92487348  0.49642478  0.53831558  1  0.003709  0  -0.002338  -0.023573  0  3.933634  0
C  C67  1  0.08425969  0.53155535  0.54807824  1  -0.04319  0  -0.007116  0.029791  0  3.989283  0
C  C68  1  0.16032466  0.53519209  0.50921060  1  -0.01707  0  -0.00681  0.033704  0  3.983612  0
C  C69  1  0.67705285  0.42910816  0.47971024  1  -0.05484  0  -0.091985  -0.124454  0  3.991732  0
C  C70  1  0.59381727  0.39875731  0.43338938  1  -0.082932  0  -0.097557  -0.09232  0  4.054021  0
C  C71  1  0.66829767  0.40242388  0.39522107  1  -0.011528  0  -0.096297  -0.088672  0  4.057877  0
C  C72  1  0.82414408  0.43629628  0.40428246  1  -0.050361  0  -0.094651  -0.129445  0  3.996218  0
C  C73  1  0.81531962  0.59122610  0.40993609  1  -0.10671  0  -0.108577  -0.216791  0  3.97789  0
C  C74  1  0.88716262  0.55861103  0.42147368  1  0.034053  0  -0.079797  -0.083088  0  3.97636  0
C  C75  1  0.25663974  0.61415810  0.35433611  1  1.502189  0  0.237973  0.678583  0  4.122381  0
C  C76  1  0.45955727  0.38768018  0.77631588  1  0.574764  0  0.094317  0.366039  0  4.080992  0
C  C77  1  0.25595306  0.37740408  0.78078757  1  -0.038813  0  -0.042337  -0.206097  0  3.97733  0
C  C78  1  0.19986456  0.38930756  0.82590495  1  -0.022496  0  -0.081894  -0.106257  0  3.964903  0
C  C79  1  0.33442799  0.41082669  0.86738141  1  -0.002267  0  -0.021757  0.030025  0  4.028006  0
C  C80  1  0.26824974  0.42182896  0.91394015  1  -0.040834  0  -0.010105  0.085969  0  4.053874  0
C  C81  1  0.10734116  0.39778927  0.91779942  1  -0.06721  0  -0.181749  -0.364734  0  3.792828  0
C  C82  1  0.38679940  0.46170343  0.95803938  1  -0.097595  0  -0.00254  -0.024316  0  3.931542  0
C  C83  1  0.53590611  0.45187975  0.98348721  1  -0.007555  0  -0.006648  0.030955  0  3.986554  0
C  C84  1  0.65060895  0.49074258  0.02605562  1  0.041889  0  -0.006605  0.034006  0  3.983248  0
C  C85  1  0.19822310  0.52040309  0.94929217  1  -0.02786  0  -0.091847  -0.125052  0  3.992432  0
C  C86  1  0.16139537  0.56675139  0.96528258  1  -0.098615  0  -0.097265  -0.091197  0  4.05371  0
C  C87  1  0.27369796  0.60490624  0.00718595  1  -0.043235  0  -0.097069  -0.089681  0  4.057745  0
C  C88  1  0.42027595  0.59579747  0.03200357  1  -0.042574  0  -0.094527  -0.129928  0  3.99645  0
C  C89  1  0.40556618  0.58997187  0.18136026  1  -0.01019  0  -0.109639  -0.217954  0  3.979018  0
C  C90  1  0.46576256  0.57845016  0.13720671  1  -0.067239  0  -0.079297  -0.082744  0  3.977222  0
C  C91  1  0.90242896  0.64560758  0.25988182  1  1.464084  0  0.237368  0.677749  0  4.121826  0
C  C92  1  0.68329330  0.22370532  0.61125646  1  0.576578  0  0.094689  0.367942  0  4.07765  0
C  C93  1  0.47518461  0.21925594  0.59654766  1  -0.020348  0  -0.042425  -0.208212  0  3.980795  0
C  C94  1  0.37380036  0.17414487  0.56338349  1  -0.055308  0  -0.081392  -0.106314  0  3.964296  0
C  C95  1  0.46680634  0.13262232  0.54339141  1  -0.006005  0  -0.022345  0.030339  0  4.024261  0
C  C96  1  0.35384063  0.08606017  0.50787089  1  -0.068727  0  -0.009759  0.085991  0  4.052074  0
C  C97  1  0.18887544  0.08227081  0.48004338  1  -0.080882  0  -0.182398  -0.365915  0  3.792768  0
C  C98  1  0.42831261  0.04193230  0.50360722  1  0.054168  0  -0.002649  -0.023978  0  3.931385  0
C  C99  1  0.55254238  0.01652728  0.46845096  1  -0.043324  0  -0.006438  0.031453  0  3.986541  0
C  C100  1  0.62517522  0.97401586  0.46480492  1  -0.083233  0  -0.006709  0.033272  0  3.983169  0
C  C101  1  0.24780580  0.05058848  0.57090415  1  0.004476  0  -0.091766  -0.124467  0  3.992311  0
C  C102  1  0.19483716  0.03459599  0.60123403  1  -0.106012  0  -0.097137  -0.091805  0  4.053054  0
C  C103  1  0.26584892  0.99275658  0.59755258  1  0.003711  0  -0.097098  -0.089855  0  4.05745  0
C  C104  1  0.38805978  0.96798435  0.56370128  1  -0.073655  0  -0.094555  -0.12989  0  3.995823  0
C  C105  1  0.22424485  0.81865877  0.40875256  1  -0.034266  0  -0.109598  -0.218814  0  3.977881  0
C  C106  1  0.32872579  0.86281628  0.44135538  1  -0.042556  0  -0.078736  -0.081488  0  3.975746  0
C  C107  1  0.64239100  0.74002840  0.38581827  1  1.526256  0  0.237864  0.679166  0  4.121959  0
C  C108  1  0.92793791  0.61122054  0.38762051  1  0.58529  0  0.093975  0.366531  0  4.080971  0
C  C109  1  0.12139600  0.59652930  0.37739068  1  -0.008926  0  -0.042441  -0.207436  0  3.979463  0
C  C110  1  0.18962320  0.56338664  0.38936954  1  -0.067375  0  -0.08156  -0.106264  0  3.964253  0
C  C111  1  0.07648959  0.54338178  0.41083701  1  -0.020941  0  -0.022173  0.029557  0  4.028416  0
C  C112  1  0.15374904  0.50781587  0.42182033  1  -0.059183  0  -0.00983  0.08564  0  4.056117  0
C  C113  1  0.29084257  0.47996802  0.39775284  1  -0.023977  0  -0.182076  -0.364722  0  3.793495  0
C  C114  1  0.07512669  0.50357321  0.46168350  1  0.003775  0  -0.002333  -0.023625  0  3.9337  0
C  C115  1  0.91574249  0.46844372  0.45192140  1  -0.043242  0  -0.007136  0.029767  0  3.989454  0
C  C116  1  0.83967604  0.46480698  0.49078902  1  -0.01707  0  -0.006888  0.033632  0  3.983585  0
C  C117  1  0.32295341  0.57089019  0.52029004  1  -0.054618  0  -0.09198  -0.124493  0  3.99193  0
C  C118  1  0.40618030  0.60124140  0.56661187  1  -0.083107  0  -0.09759  -0.092272  0  4.054241  0
C  C119  1  0.33169842  0.59757483  0.60477954  1  -0.010902  0  -0.096434  -0.08889  0  4.058142  0
C  C120  1  0.17585036  0.56370208  0.59571734  1  -0.050542  0  -0.094596  -0.129301  0  3.99623  0
C  C121  1  0.18467370  0.40877297  0.59006311  1  -0.106524  0  -0.108639  -0.216932  0  3.978025  0
C  C122  1  0.11283312  0.44138697  0.57852534  1  0.033898  0  -0.07981  -0.083097  0  3.976279  0
C  C123  1  0.74335600  0.38583990  0.64566167  1  1.501822  0  0.238087  0.678894  0  4.122216  0
C  C124  1  0.54044450  0.61232103  0.22368450  1  0.574482  0  0.094257  0.365981  0  4.081049  0
C  C125  1  0.74404465  0.62259785  0.21921310  1  -0.038553  0  -0.042327  -0.206105  0  3.977466  0
C  C126  1  0.80013627  0.61069473  0.17409595  1  -0.022532  0  -0.081875  -0.106317  0  3.964891  0
C  C127  1  0.66556972  0.58917524  0.13261803  1  -0.001819  0  -0.021808  0.030036  0  4.028032  0
C  C128  1  0.73175352  0.57817225  0.08605964  1  -0.041132  0  -0.0101  0.08585  0  4.054134  0
C  C129  1  0.89266375  0.60221230  0.08220150  1  -0.067241  0  -0.181728  -0.36474  0  3.792884  0
C  C130  1  0.61320493  0.53829993  0.04196210  1  -0.097187  0  -0.00262  -0.024327  0  3.931578  0
C  C131  1  0.46409052  0.54812003  0.01651302  1  -0.007535  0  -0.006587  0.031106  0  3.986516  0
C  C132  1  0.34939171  0.50925935  0.97394479  1  0.042169  0  -0.006724  0.033773  0  3.98353  0
C  C133  1  0.80177531  0.47960027  0.05070984  1  -0.028034  0  -0.091815  -0.125176  0  3.992404  0
C  C134  1  0.83860381  0.43325055  0.03471843  1  -0.100535  0  -0.097301  -0.091054  0  4.05342  0
C  C135  1  0.72630027  0.39509676  0.99281588  1  -0.041453  0  -0.097039  -0.089724  0  4.057592  0
C  C136  1  0.57972175  0.40420446  0.96799649  1  -0.042441  0  -0.094541  -0.129895  0  3.99643  0
C  C137  1  0.59442987  0.41002971  0.81863960  1  -0.010218  0  -0.10957  -0.217857  0  3.979164  0
C  C138  1  0.53423994  0.42155248  0.86279347  1  -0.066712  0  -0.079324  -0.082741  0  3.977329  0
C  C139  1  0.09756431  0.35439435  0.74011972  1  1.463926  0  0.237267  0.677534  0  4.122049  0
C  C140  1  0.31670593  0.77629375  0.38874283  1  0.575395  0  0.094657  0.367806  0  4.077813  0
C  C141  1  0.52481351  0.78074385  0.40345166  1  -0.020335  0  -0.042422  -0.208157  0  3.980805  0
C  C142  1  0.62620071  0.82585491  0.43661525  1  -0.055789  0  -0.08139  -0.106279  0  3.964326  0
C  C143  1  0.53319786  0.86737782  0.45660910  1  -0.005963  0  -0.022333  0.030333  0  4.024078  0
C  C144  1  0.64615730  0.91393926  0.49212824  1  -0.068831  0  -0.009778  0.086029  0  4.052103  0
C  C145  1  0.81111972  0.91772897  0.51995559  1  -0.080589  0  -0.18239  -0.366003  0  3.792842  0
C  C146  1  0.57168349  0.95806641  0.49639123  1  0.054084  0  -0.002691  -0.024087  0  3.931359  0
C  C147  1  0.44745886  0.98347287  0.53154951  1  -0.043225  0  -0.006504  0.031449  0  3.986408  0
C  C148  1  0.37481865  0.02598428  0.53519451  1  -0.083311  0  -0.006714  0.033203  0  3.983143  0
C  C149  1  0.75219691  0.94941166  0.42909665  1  0.004618  0  -0.091778  -0.124422  0  3.992033  0
C  C150  1  0.80516869  0.96540451  0.39876607  1  -0.105783  0  -0.097225  -0.092042  0  4.053014  0
C  C151  1  0.73415823  0.00724357  0.40244828  1  0.003529  0  -0.097052  -0.089617  0  4.057411  0
C  C152  1  0.61194146  0.03201579  0.43629919  1  -0.073699  0  -0.094577  -0.129988  0  3.99602  0
C  C153  1  0.77575863  0.18133994  0.59124631  1  -0.035372  0  -0.109611  -0.218831  0  3.977822  0
C  C154  1  0.67126830  0.13718136  0.55864344  1  -0.042583  0  -0.078735  -0.081562  0  3.975888  0
C  C155  1  0.35760841  0.25997103  0.61418182  1  1.526149  0  0.237872  0.679236  0  4.121939  0
O  O156  1  0.41931234  0.59675242  0.34217444  1  -1.239156  0  -0.35788  -0.642628  0  2.155247  0
O  O157  1  0.20797639  0.64816622  0.34695112  1  -1.302177  0  -0.403975  -0.770515  0  2.416606  0
O  O158  1  0.85041430  0.64256010  0.37726960  1  -1.31364  0  -0.446314  -0.776947  0  2.301752  0
O  O159  1  0.07727454  0.65769337  0.25462168  1  -1.233472  0  -0.357246  -0.64253  0  2.156292  0
O  O160  1  0.86115688  0.65297747  0.30127241  1  -1.291831  0  -0.403564  -0.770011  0  2.414823  0
O  O161  1  0.47332879  0.62262921  0.26536854  1  -1.302606  0  -0.446526  -0.776999  0  2.301755  0
O  O162  1  0.82244373  0.74528404  0.40319393  1  -1.241268  0  -0.358202  -0.643516  0  2.156886  0
O  O163  1  0.55973585  0.69862849  0.35181374  1  -1.310866  0  -0.403698  -0.76989  0  2.414735  0
O  O164  1  0.20779801  0.73461327  0.35738589  1  -1.318643  0  -0.446566  -0.777314  0  2.30027  0
O  O165  1  0.58068453  0.40324486  0.65782301  1  -1.238915  0  -0.357901  -0.642713  0  2.155148  0
O  O166  1  0.79201622  0.35183141  0.65304675  1  -1.302191  0  -0.403957  -0.770597  0  2.416558  0
O  O167  1  0.14958328  0.35743861  0.62272918  1  -1.313582  0  -0.446341  -0.77699  0  2.301795  0
O  O168  1  0.92272469  0.34230570  0.74537884  1  -1.233397  0  -0.357208  -0.642422  0  2.156312  0
O  O169  1  0.13883617  0.34702696  0.69872943  1  -1.291796  0  -0.403494  -0.769918  0  2.414799  0
O  O170  1  0.52666731  0.37736950  0.73463053  1  -1.302607  0  -0.446599  -0.777089  0  2.301741  0
O  O171  1  0.17755438  0.25471575  0.59680632  1  -1.241182  0  -0.358207  -0.643522  0  2.156813  0
O  O172  1  0.44026189  0.30137058  0.64818738  1  -1.310833  0  -0.403688  -0.769945  0  2.414729  0
O  O173  1  0.79220234  0.26538508  0.64261368  1  -1.318597  0  -0.446618  -0.77741  0  2.300185  0
