# generated using pymatgen
data_CdH14C12SN4O7
_symmetry_space_group_name_H-M   'P 1'
_cell_length_a   7.44971032
_cell_length_b   8.25652816
_cell_length_c   15.77724511
_cell_angle_alpha   83.68531432
_cell_angle_beta   76.35248635
_cell_angle_gamma   62.25454031
_symmetry_Int_Tables_number   1
_chemical_formula_structural   CdH14C12SN4O7
_chemical_formula_sum   'Cd2 H28 C24 S2 N8 O14'
_cell_volume   834.61249060
_cell_formula_units_Z   2
loop_
 _symmetry_equiv_pos_site_id
 _symmetry_equiv_pos_as_xyz
  1  'x, y, z'
loop_
 _atom_site_type_symbol
 _atom_site_label
 _atom_site_symmetry_multiplicity
 _atom_site_fract_x
 _atom_site_fract_y
 _atom_site_fract_z
 _atom_site_occupancy
 _atom_site_hle17_bader_spin_density
 _atom_site_hle17_ddec_charge
 _atom_site_hle17_ddec_spin_density
 _atom_site_hle17_ddec_sum_bond_order
 _atom_site_hle17_magmom
 _atom_site_hse06_10hf_bader_spin_density
 _atom_site_hse06_10hf_ddec_charge
 _atom_site_hse06_10hf_ddec_spin_density
 _atom_site_hse06_10hf_ddec_sum_bond_order
 _atom_site_hse06_10hf_magmom
 _atom_site_hse06_bader_spin_density
 _atom_site_hse06_ddec_charge
 _atom_site_hse06_ddec_spin_density
 _atom_site_hse06_ddec_sum_bond_order
 _atom_site_hse06_magmom
 _atom_site_pbe_bader_spin_density
 _atom_site_pbe_cm5_charge
 _atom_site_pbe_ddec_charge
 _atom_site_pbe_ddec_spin_density
 _atom_site_pbe_ddec_sum_bond_order
 _atom_site_pbe_magmom
Cd  Cd0  1  0.06548435  0.57500196  0.35164155  1  0  1.0186  0  1.788204  0  0  0.817699  0  2.241322  0  0  0.869734  0  2.194448  0  0  0.740186  0.780517  0  2.273599  0
Cd  Cd1  1  0.41716934  0.07491729  0.64842980  1  0  1.018587  0  1.788594  0  0  0.817702  0  2.241862  0  0  0.869821  0  2.194901  0  0  0.740141  0.780612  0  2.274076  0
H  H2  1  0.61675414  0.65339677  0.48570545  1  0  0.101154  0  0.949004  0  0  0.107974  0  1.01199  0  0  0.110961  0  1.009632  0  0  0.125609  0.105695  0  1.013921  0
H  H3  1  0.10240675  0.15345110  0.51440487  1  0  0.101913  0  0.94881  0  0  0.108386  0  1.011564  0  0  0.111454  0  1.009148  0  0  0.125761  0.106057  0  1.01358  0
H  H4  1  0.27706433  0.66420611  0.48046141  1  0  0.100513  0  0.961617  0  0  0.102194  0  1.033476  0  0  0.105845  0  1.030435  0  0  0.121893  0.099488  0  1.035853  0
H  H5  1  0.75753330  0.16424435  0.51959458  1  0  0.10014  0  0.9615  0  0  0.102342  0  1.032912  0  0  0.105917  0  1.02993  0  0  0.12213  0.09968  0  1.035227  0
H  H6  1  0.50581887  0.49227875  0.22161409  1  0  0.099585  0  0.934399  0  0  0.103286  0  1.006177  0  0  0.105775  0  1.005093  0  0  0.123309  0.101453  0  1.00716  0
H  H7  1  0.72728568  0.99249351  0.77851058  1  0  0.099655  0  0.934122  0  0  0.103726  0  1.005429  0  0  0.106226  0  1.004313  0  0  0.123422  0.101936  0  1.00636  0
H  H8  1  0.84013799  0.46344781  0.14602903  1  0  0.11706  0  0.946242  0  0  0.130944  0  1.007425  0  0  0.131883  0  1.008852  0  0  0.107346  0.130245  0  1.006502  0
H  H9  1  0.98640124  0.96311110  0.85404979  1  0  0.117784  0  0.946187  0  0  0.131797  0  1.00708  0  0  0.132702  0  1.008516  0  0  0.10763  0.131122  0  1.006141  0
H  H10  1  0.01052686  0.31466721  0.21445799  1  0  0.14133  0  0.917303  0  0  0.152862  0  0.980037  0  0  0.155085  0  0.977813  0  0  0.115133  0.151182  0  0.981746  0
H  H11  1  0.22508497  0.81433443  0.78555609  1  0  0.142019  0  0.917578  0  0  0.153595  0  0.980269  0  0  0.155807  0  0.977977  0  0  0.115314  0.151923  0  0.981989  0
H  H12  1  0.73575323  0.87348094  0.22008104  1  0  0.112538  0  0.966563  0  0  0.119773  0  1.039066  0  0  0.122021  0  1.037787  0  0  0.098093  0.118057  0  1.040185  0
H  H13  1  0.95655177  0.37303113  0.77978447  1  0  0.111816  0  0.965554  0  0  0.118939  0  1.038468  0  0  0.121162  0  1.037158  0  0  0.097807  0.117282  0  1.039463  0
H  H14  1  0.93695813  0.89001692  0.13813155  1  0  0.108266  0  0.938168  0  0  0.124745  0  0.99889  0  0  0.12591  0  0.99804  0  0  0.102439  0.12385  0  0.999583  0
H  H15  1  0.07571700  0.38957508  0.86176846  1  0  0.108073  0  0.938965  0  0  0.124733  0  0.99965  0  0  0.125964  0  0.99871  0  0  0.102631  0.123789  0  1.000416  0
H  H16  1  0.45062558  0.87183000  0.18079586  1  0  0.100092  0  0.978714  0  0  0.105063  0  1.050448  0  0  0.108298  0  1.0486  0  0  0.095288  0.102729  0  1.05182  0
H  H17  1  0.63179644  0.37190410  0.81900851  1  0  0.099942  0  0.978932  0  0  0.104902  0  1.050882  0  0  0.108257  0  1.04883  0  0  0.09506  0.102512  0  1.05234  0
H  H18  1  0.27946960  0.84259768  0.07002689  1  0  0.08111  0  0.956689  0  0  0.094038  0  1.014151  0  0  0.096652  0  1.012956  0  0  0.093196  0.092121  0  1.015135  0
H  H19  1  0.34974426  0.34293389  0.92979347  1  0  0.081347  0  0.956654  0  0  0.09444  0  1.013787  0  0  0.097049  0  1.012605  0  0  0.093749  0.0925  0  1.01481  0
H  H20  1  0.47591881  0.76042823  0.91651222  1  0  0.089298  0  0.97464  0  0  0.098074  0  1.039925  0  0  0.100697  0  1.038593  0  0  0.093198  0.096175  0  1.04095  0
H  H21  1  0.39245686  0.26103600  0.08332573  1  0  0.08841  0  0.974879  0  0  0.097136  0  1.040235  0  0  0.099803  0  1.038911  0  0  0.092857  0.095189  0  1.041333  0
H  H22  1  0.83820314  0.71248495  0.87442405  1  0  0.0852  0  0.95563  0  0  0.09795  0  1.013594  0  0  0.100398  0  1.012674  0  0  0.09622  0.096192  0  1.014322  0
H  H23  1  0.71258989  0.21302638  0.12553335  1  0  0.085279  0  0.9556  0  0  0.098161  0  1.013458  0  0  0.100633  0  1.012519  0  0  0.096281  0.096321  0  1.014265  0
H  H24  1  0.01355365  0.73487397  0.98613115  1  0  0.088488  0  0.94638  0  0  0.102353  0  1.00375  0  0  0.105082  0  1.002776  0  0  0.096654  0.100369  0  1.00455  0
H  H25  1  0.99983664  0.23507233  0.01381136  1  0  0.089191  0  0.94657  0  0  0.102864  0  1.004034  0  0  0.10557  0  1.003106  0  0  0.096762  0.100908  0  1.00479  0
H  H26  1  0.86587669  0.63856400  0.54113023  1  0  0.414734  0  0.892851  0  0  0.380316  0  0.963162  0  0  0.391512  0  0.946661  0  0  0.288418  0.372436  0  0.974747  0
H  H27  1  0.40694021  0.13849789  0.45893714  1  0  0.416127  0  0.890837  0  0  0.381403  0  0.961467  0  0  0.392598  0  0.945006  0  0  0.289014  0.37346  0  0.973136  0
H  H28  1  0.10176555  0.50087393  0.54152392  1  0  0.423301  0  0.88067  0  0  0.388572  0  0.95103  0  0  0.400295  0  0.933848  0  0  0.288975  0.380212  0  0.963272  0
H  H29  1  0.64324555  0.00085765  0.45855880  1  0  0.422386  0  0.881594  0  0  0.387537  0  0.952038  0  0  0.399211  0  0.934943  0  0  0.288344  0.379223  0  0.964174  0
C  C30  1  0.59361391  0.61664498  0.42630685  1  0  0.130399  0  3.615339  0  0  0.100022  0  3.86594  0  0  0.104126  0  3.882128  0  0  0.072413  0.097095  0  3.855374  0
C  C31  1  0.01986129  0.11669238  0.57379082  1  0  0.12794  0  3.618513  0  0  0.098899  0  3.868303  0  0  0.102941  0  3.884415  0  0  0.071758  0.095988  0  3.857768  0
C  C32  1  0.40496958  0.62321050  0.42368994  1  0  0.095325  0  3.620042  0  0  0.06257  0  3.873075  0  0  0.064885  0  3.890031  0  0  0.061563  0.060783  0  3.861978  0
C  C33  1  0.82861695  0.12327427  0.57639371  1  0  0.097494  0  3.619554  0  0  0.063642  0  3.872868  0  0  0.06606  0  3.889833  0  0  0.061811  0.061813  0  3.861706  0
C  C34  1  0.53214997  0.52847975  0.28041604  1  0  0.052124  0  3.618355  0  0  0.013993  0  3.874453  0  0  0.016411  0  3.891229  0  0  0.064817  0.012095  0  3.863497  0
C  C35  1  0.81248646  0.02860136  0.71969890  1  0  0.053041  0  3.616031  0  0  0.015191  0  3.870881  0  0  0.017427  0  3.88817  0  0  0.064954  0.013251  0  3.859856  0
C  C36  1  0.72228751  0.52108534  0.28276290  1  0  0.250527  0  3.704246  0  0  0.252586  0  3.948602  0  0  0.257632  0  3.969054  0  0  0.137132  0.248984  0  3.934935  0
C  C37  1  0.00505044  0.02104940  0.71734150  1  0  0.248995  0  3.704521  0  0  0.25074  0  3.949817  0  0  0.255677  0  3.970352  0  0  0.13658  0.247232  0  3.936089  0
C  C38  1  0.89874571  0.45747497  0.20452534  1  0  -0.24362  0  3.660351  0  0  -0.285673  0  3.909558  0  0  -0.2865  0  3.920089  0  0  -0.143074  -0.285024  0  3.902553  0
C  C39  1  0.10342455  0.95715585  0.79553449  1  0  -0.244677  0  3.662267  0  0  -0.287179  0  3.911852  0  0  -0.28789  0  3.922385  0  0  -0.143289  -0.28654  0  3.904763  0
C  C40  1  0.84829418  0.81225305  0.15961269  1  0  -0.194626  0  3.646998  0  0  -0.241123  0  3.903707  0  0  -0.239965  0  3.914102  0  0  -0.14965  -0.241839  0  3.896767  0
C  C41  1  0.00844182  0.31185771  0.84030539  1  0  -0.192787  0  3.647425  0  0  -0.239889  0  3.903978  0  0  -0.238688  0  3.914203  0  0  -0.149403  -0.240578  0  3.897121  0
C  C42  1  0.74400313  0.80289762  0.09110416  1  0  0.09183  0  3.776852  0  0  0.117225  0  4.008144  0  0  0.115727  0  4.03461  0  0  -0.020639  0.11823  0  3.990137  0
C  C43  1  0.83544162  0.30284933  0.90877740  1  0  0.090928  0  3.779306  0  0  0.117959  0  4.008407  0  0  0.116456  0  4.034886  0  0  -0.020386  0.118945  0  3.990417  0
C  C44  1  0.53695313  0.83372711  0.11397112  1  0  -0.122056  0  3.725803  0  0  -0.140765  0  3.968152  0  0  -0.143738  0  3.990466  0  0  -0.095189  -0.138586  0  3.952937  0
C  C45  1  0.65125861  0.33382456  0.88585112  1  0  -0.123314  0  3.727542  0  0  -0.1427  0  3.969505  0  0  -0.145736  0  3.991696  0  0  -0.09585  -0.140468  0  3.954332  0
C  C46  1  0.44034990  0.81931258  0.05125993  1  0  -0.07255  0  3.785543  0  0  -0.082004  0  4.031349  0  0  -0.08467  0  4.054112  0  0  -0.096662  -0.080105  0  4.01577  0
C  C47  1  0.49187264  0.31957810  0.94856592  1  0  -0.071134  0  3.785006  0  0  -0.080571  0  4.030575  0  0  -0.083228  0  4.053323  0  0  -0.096457  -0.078668  0  4.015002  0
C  C48  1  0.54881496  0.77494447  0.96534227  1  0  -0.068019  0  3.786369  0  0  -0.087992  0  4.040869  0  0  -0.089851  0  4.064226  0  0  -0.095115  -0.086569  0  4.02487  0
C  C49  1  0.51431791  0.27530645  0.03450199  1  0  -0.068966  0  3.785606  0  0  -0.089149  0  4.040793  0  0  -0.091071  0  4.064124  0  0  -0.095823  -0.087702  0  4.024813  0
C  C50  1  0.75432737  0.74686412  0.94182709  1  0  -0.074035  0  3.789791  0  0  -0.085318  0  4.041884  0  0  -0.087975  0  4.064953  0  0  -0.09787  -0.083433  0  4.026077  0
C  C51  1  0.69624955  0.24722635  0.05809743  1  0  -0.071906  0  3.785434  0  0  -0.083094  0  4.037157  0  0  -0.085756  0  4.060281  0  0  -0.097065  -0.08115  0  4.021346  0
C  C52  1  0.85183555  0.75972161  0.00428341  1  0  -0.12966  0  3.753282  0  0  -0.150661  0  3.999538  0  0  -0.153398  0  4.021938  0  0  -0.098638  -0.148626  0  3.984187  0
C  C53  1  0.85628956  0.25989913  0.99564055  1  0  -0.131211  0  3.753799  0  0  -0.152638  0  3.999952  0  0  -0.155394  0  4.022371  0  0  -0.099078  -0.15061  0  3.984605  0
S  S54  1  0.04741079  0.58503136  0.18341844  1  0  0.025702  0  2.498029  0  0  0.056836  0  2.86713  0  0  0.049504  0  2.86342  0  0  0.02674  0.061896  0  2.869888  0
S  S55  1  0.23116416  0.08458828  0.81664399  1  0  0.02553  0  2.49861  0  0  0.056879  0  2.86814  0  0  0.04953  0  2.864312  0  0  0.026769  0.061944  0  2.870887  0
N  N56  1  0.74958599  0.56628821  0.35618437  1  0  -0.308043  0  3.194843  0  0  -0.238733  0  3.447548  0  0  -0.255348  0  3.465679  0  0  -0.301695  -0.227154  0  3.435113  0
N  N57  1  0.10576042  0.06624801  0.64391973  1  0  -0.306272  0  3.194553  0  0  -0.237886  0  3.447781  0  0  -0.254446  0  3.46594  0  0  -0.30108  -0.226334  0  3.435313  0
N  N58  1  0.37642023  0.57833026  0.35055469  1  0  -0.255402  0  3.270817  0  0  -0.18101  0  3.535772  0  0  -0.19624  0  3.555293  0  0  -0.307875  -0.170316  0  3.52243  0
N  N59  1  0.72689193  0.07847238  0.64953696  1  0  -0.256824  0  3.270167  0  0  -0.182599  0  3.535762  0  0  -0.197764  0  3.5551  0  0  -0.308329  -0.1719  0  3.522477  0
N  N60  1  0.93639977  0.00315456  0.33544739  1  0  0.696316  0  4.133135  0  0  0.729527  0  4.42355  0  0  0.758227  0  4.429179  0  0  0.100885  0.722843  0  4.401304  0
N  N61  1  0.27166986  0.50311179  0.66464384  1  0  0.697539  0  4.131965  0  0  0.727466  0  4.424542  0  0  0.756075  0  4.430194  0  0  0.101412  0.708133  0  4.420247  0
N  N62  1  0.35465921  0.14970841  0.31475838  1  0  0.693748  0  4.125741  0  0  0.736316  0  4.40347  0  0  0.75034  0  4.429434  0  0  0.100679  0.716364  0  4.400336  0
N  N63  1  0.66879574  0.64954940  0.68523458  1  0  0.692949  0  4.128922  0  0  0.719679  0  4.426501  0  0  0.748726  0  4.431161  0  0  0.09958  0.702038  0  4.422519  0
O  O64  1  0.00222487  0.56669464  0.50264177  1  0  -0.838591  0  1.910252  0  0  -0.776506  0  2.118774  0  0  -0.797458  0  2.08299  0  0  -0.606511  -0.761483  0  2.143671  0
O  O65  1  0.50480947  0.06653036  0.49742365  1  0  -0.838721  0  1.908776  0  0  -0.776151  0  2.118504  0  0  -0.797139  0  2.082667  0  0  -0.606297  -0.761132  0  2.14349  0
O  O66  1  0.06674217  0.94327427  0.26578151  1  0  -0.442083  0  1.742212  0  0  -0.43945  0  1.952625  0  0  -0.453336  0  1.948032  0  0  -0.18082  -0.434035  0  1.950383  0
O  O67  1  0.33239148  0.44332068  0.73432439  1  0  -0.441913  0  1.743019  0  0  -0.438393  0  1.954748  0  0  -0.452218  0  1.950157  0  0  -0.18088  -0.428638  0  1.957674  0
O  O68  1  0.85805649  0.16532977  0.35991181  1  0  -0.431413  0  1.755153  0  0  -0.429246  0  1.962656  0  0  -0.443127  0  1.959475  0  0  -0.180026  -0.423844  0  1.959512  0
O  O69  1  0.21784711  0.66524502  0.64009767  1  0  -0.432345  0  1.754365  0  0  -0.428074  0  1.961819  0  0  -0.441781  0  1.9585  0  0  -0.180008  -0.418396  0  1.963958  0
O  O70  1  0.87811234  0.89148159  0.38590512  1  0  -0.536715  0  1.851104  0  0  -0.494043  0  2.082381  0  0  -0.517051  0  2.07371  0  0  -0.218733  -0.481822  0  2.083326  0
O  O71  1  0.26372179  0.39139611  0.61425592  1  0  -0.537332  0  1.850471  0  0  -0.49415  0  2.082974  0  0  -0.517312  0  2.074418  0  0  -0.219087  -0.477724  0  2.088448  0
O  O72  1  0.43943357  0.98052795  0.32467928  1  0  -0.416287  0  1.782211  0  0  -0.417454  0  1.993008  0  0  -0.425856  0  1.995805  0  0  -0.166037  -0.407885  0  1.995567  0
O  O73  1  0.76379252  0.48039530  0.67524301  1  0  -0.416533  0  1.784166  0  0  -0.411667  0  2.00027  0  0  -0.425105  0  1.996739  0  0  -0.165585  -0.403069  0  2.002618  0
O  O74  1  0.36798983  0.22589824  0.24172402  1  0  -0.454723  0  1.775523  0  0  -0.449644  0  1.991118  0  0  -0.459838  0  1.992044  0  0  -0.177365  -0.438748  0  1.994722  0
O  O75  1  0.60832140  0.72556284  0.75834276  1  0  -0.452939  0  1.777329  0  0  -0.442874  0  1.999287  0  0  -0.458189  0  1.994067  0  0  -0.176381  -0.432948  0  2.002669  0
O  O76  1  0.24855529  0.25321439  0.38395266  1  0  -0.529612  0  1.845169  0  0  -0.495697  0  2.071894  0  0  -0.512957  0  2.068171  0  0  -0.214505  -0.479843  0  2.077972  0
O  O77  1  0.63234408  0.75325529  0.61604332  1  0  -0.530015  0  1.846256  0  0  -0.490709  0  2.077852  0  0  -0.513039  0  2.068795  0  0  -0.214552  -0.4757  0  2.083722  0
