# generated using pymatgen
data_AlH12C27(NO6)3
_symmetry_space_group_name_H-M   'P 1'
_cell_length_a   4.21385636
_cell_length_b   27.98905901
_cell_length_c   27.98899360
_cell_angle_alpha   120.00006059
_cell_angle_beta   89.99847516
_cell_angle_gamma   90.00048563
_symmetry_Int_Tables_number   1
_chemical_formula_structural   AlH12C27(NO6)3
_chemical_formula_sum   'Al2 H24 C54 N6 O36'
_cell_volume   2858.81251689
_cell_formula_units_Z   2
loop_
 _symmetry_equiv_pos_site_id
 _symmetry_equiv_pos_as_xyz
  1  'x, y, z'
loop_
 _atom_site_type_symbol
 _atom_site_label
 _atom_site_symmetry_multiplicity
 _atom_site_fract_x
 _atom_site_fract_y
 _atom_site_fract_z
 _atom_site_occupancy
 _atom_site_pbe_bader_charge
 _atom_site_pbe_bader_spin_density
 _atom_site_pbe_cm5_charge
 _atom_site_pbe_ddec_charge
 _atom_site_pbe_ddec_spin_density
 _atom_site_pbe_ddec_sum_bond_order
 _atom_site_pbe_magmom
Al  Al0  1  0.99886483  0.50000665  0.50000775  1  2.517759  0  0.465667  1.639744  0  2.453541  0
Al  Al1  1  0.97593465  0.16666312  0.83333146  1  2.521027  0  0.456114  1.641853  0  2.512145  0
H  H2  1  0.26202155  0.18742197  0.69892598  1  0.132473  0  0.12298  0.133659  0  0.963785  0
H  H3  1  0.29852843  0.24210106  0.65024605  1  0.102962  0  0.116964  0.121996  0  0.996576  0
H  H4  1  0.43604296  0.28676289  0.54012205  1  0.104058  0  0.130728  0.145783  0  0.962256  0
H  H5  1  0.46648040  0.43668977  0.69789384  1  0.10205  0  0.127803  0.143055  0  0.971514  0
H  H6  1  0.26200884  0.01150006  0.81257197  1  0.09005  0  0.122991  0.133696  0  0.963745  0
H  H7  1  0.29856390  0.90814069  0.75789691  1  0.098002  0  0.116954  0.122028  0  0.996664  0
H  H8  1  0.43594593  0.75337043  0.71324657  1  0.152645  0  0.130794  0.145898  0  0.962021  0
H  H9  1  0.46642086  0.76119346  0.56331226  1  0.117867  0  0.127913  0.143176  0  0.971548  0
H  H10  1  0.26201807  0.30107795  0.98849596  1  0.124562  0  0.122961  0.133632  0  0.963792  0
H  H11  1  0.29854542  0.34975251  0.09185455  1  0.115591  0  0.116881  0.121772  0  0.996724  0
H  H12  1  0.43596238  0.45987877  0.24664352  1  0.13792  0  0.13074  0.145832  0  0.962006  0
H  H13  1  0.46653391  0.30210346  0.23879903  1  0.164642  0  0.127883  0.143118  0  0.971531  0
H  H14  1  0.34775437  0.33922081  0.89257200  1  0.673093  0  0.316647  0.384208  0  0.951575  0
H  H15  1  0.72101874  0.40070637  0.74521262  1  0.61415  0  0.291647  0.281707  0  1.088273  0
H  H16  1  0.04375167  0.38315223  0.48852175  1  0.605552  0  0.313023  0.341201  0  0.958143  0
H  H17  1  0.84440097  0.53436265  0.66757681  1  0.692711  0  0.317797  0.382276  0  0.962841  0
H  H18  1  0.34780478  0.05334467  0.66076775  1  0.689033  0  0.316698  0.384239  0  0.951574  0
H  H19  1  0.72098733  0.84449333  0.59928558  1  0.604596  0  0.291623  0.281648  0  1.088088  0
H  H20  1  0.04374897  0.60538471  0.61686533  1  0.612744  0  0.312946  0.340937  0  0.958251  0
H  H21  1  0.84453797  0.63321757  0.46565212  1  0.691771  0  0.317861  0.382291  0  0.962885  0
H  H22  1  0.34766942  0.10742398  0.94664897  1  0.692198  0  0.316707  0.384236  0  0.951525  0
H  H23  1  0.72095537  0.25479169  0.15549586  1  0.61073  0  0.291581  0.281486  0  1.088289  0
H  H24  1  0.04373279  0.51147338  0.39462575  1  0.614219  0  0.313068  0.341294  0  0.958009  0
H  H25  1  0.84460228  0.33243320  0.36678568  1  0.693716  0  0.317836  0.382257  0  0.962898  0
C  C26  1  0.49522101  0.45997940  0.41419184  1  1.586927  0  0.279026  0.665737  0  4.052433  0
C  C27  1  0.49521443  0.45421045  0.54002254  1  1.591846  0  0.279011  0.665682  0  4.052328  0
C  C28  1  0.49522952  0.58581326  0.54580126  1  1.589028  0  0.279216  0.666064  0  4.052493  0
C  C29  1  0.47458835  0.21521461  0.79885310  1  1.586053  0  0.28157  0.665883  0  4.051012  0
C  C30  1  0.47459298  0.08362826  0.78477251  1  1.590026  0  0.281638  0.666057  0  4.051072  0
C  C31  1  0.47456092  0.20113947  0.91636275  1  1.578011  0  0.281666  0.665695  0  4.050984  0
C  C32  1  0.48371394  0.25065194  0.77298151  1  -0.013365  0  0.012541  -0.032174  0  3.890677  0
C  C33  1  0.36343871  0.22876543  0.71926285  1  0.056581  0  -0.06257  -0.057422  0  3.933574  0
C  C34  1  0.38085592  0.25890196  0.69250890  1  -0.017841  0  -0.073582  -0.132234  0  3.949383  0
C  C35  1  0.50852188  0.31248596  0.72026145  1  0.34034  0  0.094706  0.143882  0  4.019051  0
C  C36  1  0.61300625  0.33665445  0.77582192  1  0.020221  0  0.00397  -0.124062  0  3.881007  0
C  C37  1  0.60752826  0.30455066  0.80149476  1  0.037526  0  0.018287  -0.033033  0  3.887068  0
C  C38  1  0.45967601  0.33149119  0.56446149  1  0.112887  0  -0.05787  -0.133389  0  3.882489  0
C  C39  1  0.48059072  0.35755846  0.62201208  1  0.228915  0  0.094526  0.171415  0  4.068543  0
C  C40  1  0.48418252  0.41538496  0.65303827  1  0.157113  0  -0.06453  -0.149145  0  3.888587  0
C  C41  1  0.48685552  0.44623921  0.62647771  1  -0.013877  0  -0.003226  -0.046046  0  3.976975  0
C  C42  1  0.48450343  0.42020804  0.56825071  1  -0.008707  0  -0.006584  -0.098704  0  3.907257  0
C  C43  1  0.45488555  0.36219062  0.53765990  1  -0.122623  0  -0.011133  -0.065076  0  3.997554  0
C  C44  1  0.48371667  0.02232287  0.74934493  1  0.081473  0  0.012481  -0.032349  0  3.891319  0
C  C45  1  0.36344624  0.99049330  0.77122869  1  0.008349  0  -0.062521  -0.057326  0  3.933787  0
C  C46  1  0.38087077  0.93359978  0.74109089  1  0.021922  0  -0.073551  -0.132387  0  3.9498  0
C  C47  1  0.50853932  0.90776891  0.68750801  1  0.333127  0  0.094653  0.143957  0  4.019225  0
C  C48  1  0.61304046  0.93916792  0.66334357  1  0.022537  0  0.004058  -0.124083  0  3.880642  0
C  C49  1  0.60755496  0.99694649  0.69544812  1  -0.035072  0  0.018175  -0.033081  0  3.887267  0
C  C50  1  0.45961410  0.73297695  0.66851434  1  0.037225  0  -0.057844  -0.133409  0  3.882678  0
C  C51  1  0.48052690  0.76445401  0.64244207  1  0.394924  0  0.094558  0.171491  0  4.06878  0
C  C52  1  0.48420249  0.73764916  0.58461716  1  0.050312  0  -0.064662  -0.149302  0  3.888636  0
C  C53  1  0.48688997  0.68023603  0.55376711  1  0.002737  0  -0.00315  -0.045805  0  3.977103  0
C  C54  1  0.48452312  0.64804615  0.57979900  1  -0.039704  0  -0.006696  -0.099135  0  3.907383  0
C  C55  1  0.45486658  0.67547456  0.63782216  1  -0.10297  0  -0.011095  -0.065025  0  3.997302  0
C  C56  1  0.48367612  0.22701559  0.97766952  1  0.058834  0  0.012523  -0.032218  0  3.890736  0
C  C57  1  0.36340110  0.28073343  0.00949610  1  -0.004411  0  -0.062547  -0.057501  0  3.933582  0
C  C58  1  0.38081079  0.30748530  0.06638925  1  -0.023518  0  -0.073397  -0.131748  0  3.949345  0
C  C59  1  0.50848174  0.27973973  0.09222027  1  0.41467  0  0.09461  0.143795  0  4.019204  0
C  C60  1  0.61296206  0.22418027  0.06083750  1  -0.093017  0  0.003877  -0.124094  0  3.880676  0
C  C61  1  0.60749404  0.19850177  0.00305601  1  0.082792  0  0.018387  -0.032847  0  3.88677  0
C  C62  1  0.45962466  0.43553251  0.26702969  1  -0.095611  0  -0.057758  -0.133359  0  3.882064  0
C  C63  1  0.48056388  0.37797816  0.23554621  1  0.40453  0  0.094363  0.17135  0  4.068411  0
C  C64  1  0.48422947  0.34695742  0.26234828  1  -0.095979  0  -0.064514  -0.148988  0  3.888303  0
C  C65  1  0.48690676  0.37352723  0.31976652  1  0.175878  0  -0.003215  -0.046036  0  3.976595  0
C  C66  1  0.48449210  0.43175400  0.35195951  1  -0.112909  0  -0.006691  -0.098802  0  3.907179  0
C  C67  1  0.45485984  0.46234302  0.32453310  1  -0.015947  0  -0.011149  -0.065109  0  3.997716  0
C  C68  1  0.75701638  0.32647543  0.85817912  1  1.626286  0  0.251713  0.626452  0  4.116099  0
C  C69  1  0.72359001  0.39589352  0.81057370  1  1.555062  0  0.227832  0.566017  0  4.123765  0
C  C70  1  0.37948638  0.32949049  0.47709424  1  1.554876  0  0.229124  0.560976  0  4.127114  0
C  C71  1  0.41370027  0.50670110  0.66114976  1  1.626825  0  0.256402  0.619188  0  4.090663  0
C  C72  1  0.75704575  0.03169700  0.67351733  1  1.632472  0  0.251625  0.626383  0  4.116168  0
C  C73  1  0.72361120  0.91467853  0.60409826  1  1.557522  0  0.22783  0.566038  0  4.124108  0
C  C74  1  0.37949249  0.64761773  0.67052767  1  1.564621  0  0.229269  0.561247  0  4.126391  0
C  C75  1  0.41382851  0.65444536  0.49330830  1  1.599546  0  0.256426  0.619243  0  4.089574  0
C  C76  1  0.75693492  0.14181542  0.96829840  1  1.635844  0  0.251376  0.626021  0  4.117203  0
C  C77  1  0.72348237  0.18941836  0.08532235  1  1.566578  0  0.227968  0.566185  0  4.123689  0
C  C78  1  0.37943649  0.52290204  0.35239323  1  1.584791  0  0.229005  0.56079  0  4.1274  0
C  C79  1  0.41383503  0.33885232  0.34555614  1  1.596104  0  0.256286  0.618995  0  4.090232  0
N  N80  1  0.54021810  0.34487031  0.69500610  1  -0.551804  0  -0.134064  -0.103743  0  3.394997  0
N  N81  1  0.45990358  0.32277116  0.64476627  1  -0.454864  0  -0.135495  -0.111381  0  3.234558  0
N  N82  1  0.54021700  0.85012918  0.65513093  1  -0.505237  0  -0.134052  -0.103626  0  3.395653  0
N  N83  1  0.45982469  0.82199231  0.67722933  1  -0.502058  0  -0.135568  -0.111485  0  3.235079  0
N  N84  1  0.54020837  0.30499659  0.14986597  1  -0.556902  0  -0.134015  -0.103783  0  3.395058  0
N  N85  1  0.45985572  0.35523354  0.17800712  1  -0.460108  0  -0.135551  -0.111457  0  3.234731  0
O  O86  1  0.73770451  0.56175725  0.55210470  1  -1.254704  0  -0.228271  -0.59422  0  2.359587  0
O  O87  1  0.73767699  0.49034371  0.43824822  1  -1.257006  0  -0.228292  -0.594434  0  2.360045  0
O  O88  1  0.73768606  0.44790353  0.50966076  1  -1.254057  0  -0.228355  -0.594506  0  2.360136  0
O  O89  1  0.26610196  0.56134562  0.51288196  1  -1.254082  0  -0.232975  -0.60121  0  2.396419  0
O  O90  1  0.26607534  0.48712800  0.54847109  1  -1.255906  0  -0.232826  -0.600838  0  2.395867  0
O  O91  1  0.26605559  0.45153385  0.43865866  1  -1.254852  0  -0.232797  -0.600872  0  2.39607  0
O  O92  1  0.70674637  0.16998655  0.88995458  1  -1.248254  0  -0.227254  -0.597968  0  2.410655  0
O  O93  1  0.70677684  0.21996166  0.83000244  1  -1.249391  0  -0.227201  -0.597981  0  2.410533  0
O  O94  1  0.70679239  0.11003628  0.78003515  1  -1.249912  0  -0.227225  -0.598133  0  2.4106  0
O  O95  1  0.23749994  0.21293157  0.89583779  1  -1.251803  0  -0.229878  -0.591189  0  2.341513  0
O  O96  1  0.23751570  0.10414823  0.81708539  1  -1.253062  0  -0.229865  -0.591156  0  2.341532  0
O  O97  1  0.23751111  0.18290509  0.78706814  1  -1.250445  0  -0.229797  -0.591262  0  2.341683  0
O  O98  1  0.58327417  0.34079136  0.90205659  1  -1.154974  0  -0.317054  -0.455031  0  2.260412  0
O  O99  1  0.04939839  0.32495440  0.85920975  1  -1.162579  0  -0.273285  -0.504661  0  2.318479  0
O  O100  1  0.79450203  0.42389298  0.78461543  1  -1.140474  0  -0.343552  -0.454114  0  2.277379  0
O  O101  1  0.74858465  0.41652471  0.86045378  1  -1.061389  0  -0.249732  -0.404918  0  2.083029  0
O  O102  1  0.16036397  0.35228854  0.45864341  1  -1.097913  0  -0.326793  -0.452721  0  2.32377  0
O  O103  1  0.49517515  0.28467689  0.44701600  1  -1.082128  0  -0.251473  -0.397728  0  2.067491  0
O  O104  1  0.61266344  0.54507936  0.66746273  1  -1.165996  0  -0.297762  -0.435234  0  2.35269  0
O  O105  1  0.14509444  0.51713791  0.68155439  1  -1.142573  0  -0.267649  -0.471843  0  2.21429  0
O  O106  1  0.58334236  0.06125400  0.65919740  1  -1.174284  0  -0.316925  -0.454926  0  2.260569  0
O  O107  1  0.04946105  0.03424263  0.67503736  1  -1.161592  0  -0.273318  -0.504702  0  2.318191  0
O  O108  1  0.79443563  0.86071335  0.57609825  1  -1.126979  0  -0.343644  -0.454239  0  2.277101  0
O  O109  1  0.74864556  0.94391818  0.58346538  1  -1.069622  0  -0.249632  -0.404762  0  2.083705  0
O  O110  1  0.16032593  0.60637669  0.64774135  1  -1.106399  0  -0.326687  -0.452433  0  2.323782  0
O  O111  1  0.49527836  0.66235780  0.71534075  1  -1.076922  0  -0.25174  -0.398174  0  2.066752  0
O  O112  1  0.61280552  0.62238060  0.45494054  1  -1.170832  0  -0.297783  -0.435176  0  2.352863  0
O  O113  1  0.14518269  0.66441195  0.48285720  1  -1.138934  0  -0.267753  -0.472051  0  2.212962  0
O  O114  1  0.58319758  0.09793929  0.93873404  1  -1.181473  0  -0.316965  -0.45487  0  2.260582  0
O  O115  1  0.04929353  0.14078617  0.96574888  1  -1.161691  0  -0.273173  -0.504532  0  2.318961  0
O  O116  1  0.79438249  0.21538386  0.13928169  1  -1.136208  0  -0.343603  -0.453991  0  2.277305  0
O  O117  1  0.74845355  0.13954543  0.05607704  1  -1.075487  0  -0.249691  -0.404975  0  2.083272  0
O  O118  1  0.16031340  0.54135546  0.39364320  1  -1.107547  0  -0.326841  -0.452833  0  2.323499  0
O  O119  1  0.49514738  0.55297876  0.33765354  1  -1.079969  0  -0.251384  -0.397616  0  2.067453  0
O  O120  1  0.61281838  0.33255830  0.37762483  1  -1.164563  0  -0.297652  -0.435102  0  2.352884  0
O  O121  1  0.14522153  0.31843152  0.33558290  1  -1.140902  0  -0.267645  -0.471798  0  2.213495  0
