# generated using pymatgen
data_CuH12(C9N5)2
_symmetry_space_group_name_H-M   'P 1'
_cell_length_a   7.12979948
_cell_length_b   8.01567725
_cell_length_c   9.17135111
_cell_angle_alpha   99.36850485
_cell_angle_beta   108.76512996
_cell_angle_gamma   109.81489286
_symmetry_Int_Tables_number   1
_chemical_formula_structural   CuH12(C9N5)2
_chemical_formula_sum   'Cu1 H12 C18 N10'
_cell_volume   444.62949313
_cell_formula_units_Z   1
loop_
 _symmetry_equiv_pos_site_id
 _symmetry_equiv_pos_as_xyz
  1  'x, y, z'
loop_
 _atom_site_type_symbol
 _atom_site_label
 _atom_site_symmetry_multiplicity
 _atom_site_fract_x
 _atom_site_fract_y
 _atom_site_fract_z
 _atom_site_occupancy
 _atom_site_pbe_cm5_charge
 _atom_site_pbe_ddec_charge
 _atom_site_pbe_ddec_spin_density
 _atom_site_pbe_ddec_sum_bond_order
 _atom_site_pbe_magmom
Cu  Cu0  1  0.00001287  0.00001117  0.00000380  1  0.78584  0.863695  0.675987  2.255279  0.5
H  H1  1  0.24609424  0.84447106  0.11595127  1  0.295273  0.282602  3.6e-05  0.996607  0.0
H  H2  1  0.75391032  0.15552853  0.88404730  1  0.295285  0.282609  3.6e-05  0.996591  0.0
H  H3  1  0.04786422  0.79987583  0.18688425  1  0.293726  0.30471  -0.000138  0.990277  -0.001
H  H4  1  0.95213184  0.20013351  0.81310699  1  0.293754  0.304733  -0.000138  0.990377  -0.001
H  H5  1  0.06627788  0.02478220  0.40677675  1  0.110666  0.125709  -3.6e-05  0.995946  0.0
H  H6  1  0.93371352  0.97521177  0.59322201  1  0.110633  0.125645  -3.7e-05  0.995881  0.0
H  H7  1  0.30847117  0.29848027  0.65301192  1  0.10198  0.112474  -0.000209  1.054262  0.0
H  H8  1  0.69152322  0.70151089  0.34699375  1  0.101976  0.112475  -0.000209  1.054294  0.0
H  H9  1  0.84142138  0.37792434  0.50412683  1  0.109428  0.115491  -0.000143  1.003409  0.0
H  H10  1  0.15857329  0.62206127  0.49587594  1  0.109454  0.115496  -0.000143  1.003223  0.0
H  H11  1  0.59914810  0.10528810  0.25969384  1  0.106088  0.121619  -9.2e-05  1.008701  0.0
H  H12  1  0.40085350  0.89471149  0.74030289  1  0.106142  0.12167  -9.2e-05  1.008892  0.0
C  C13  1  0.31635783  0.04842787  0.31791457  1  0.100227  0.290974  -0.007932  4.015751  -0.008
C  C14  1  0.68364378  0.95157172  0.68208216  1  0.100241  0.291037  -0.007934  4.015448  -0.008
C  C15  1  0.23709657  0.10213300  0.43098697  1  -0.088384  -0.168305  0.017871  3.937666  0.016
C  C16  1  0.76288673  0.89785956  0.56900951  1  -0.088331  -0.168215  0.017873  3.937747  0.016
C  C17  1  0.37189829  0.25463494  0.56748574  1  -0.078428  -0.097651  -0.008104  3.961529  -0.006
C  C18  1  0.62809639  0.74535068  0.43251595  1  -0.078445  -0.097654  -0.008104  3.961519  -0.006
C  C19  1  0.59038930  0.35649810  0.59313359  1  -0.007178  0.02294  0.020509  4.100773  0.019
C  C20  1  0.40960908  0.64348611  0.40687429  1  -0.007249  0.022818  0.020512  4.100891  0.019
C  C21  1  0.67147419  0.30088901  0.48172044  1  -0.071777  -0.07966  -0.008091  3.955791  -0.006
C  C22  1  0.32853186  0.69910494  0.51829407  1  -0.071757  -0.079523  -0.00809  3.955809  -0.006
C  C23  1  0.53553317  0.14784952  0.34548306  1  -0.092497  -0.177399  0.018295  3.941722  0.016
C  C24  1  0.46445899  0.85214305  0.65451788  1  -0.092572  -0.177494  0.018291  3.94192  0.016
C  C25  1  0.72651086  0.51923076  0.72795842  1  0.196267  0.278677  -0.002838  3.995438  -0.003
C  C26  1  0.27348627  0.48074787  0.27204944  1  0.196235  0.278429  -0.002838  3.995842  -0.003
C  C27  1  0.41640252  0.17930710  0.96553183  1  0.322211  0.474809  0.011564  4.241477  0.014
C  C28  1  0.58361465  0.82071204  0.03446295  1  0.322027  0.474597  0.011563  4.241781  0.014
C  C29  1  0.73235868  0.44582207  0.10479296  1  0.299683  0.442535  0.001366  4.229253  0.002
C  C30  1  0.26763886  0.55418727  0.89519866  1  0.299757  0.442819  0.001366  4.229564  0.002
N  N31  1  0.17167717  0.90342960  0.17429701  1  -0.593104  -0.584339  0.074002  3.467063  0.088
N  N32  1  0.82832334  0.09657975  0.82569537  1  -0.593123  -0.584388  0.074002  3.466958  0.088
N  N33  1  0.83768992  0.65505395  0.83711948  1  -0.311313  -0.402974  0.009084  2.931984  0.011
N  N34  1  0.16230332  0.34493167  0.16287965  1  -0.311267  -0.402745  0.009085  2.932183  0.011
N  N35  1  0.23875966  0.06568331  0.92989082  1  -0.425005  -0.577587  0.033882  3.27266  0.038
N  N36  1  0.76125291  0.93433859  0.07010535  1  -0.424992  -0.577466  0.033883  3.272797  0.038
N  N37  1  0.61128929  0.28780969  0.98981609  1  -0.3031  -0.389561  0.003598  3.561604  0.004
N  N38  1  0.38872443  0.71220247  0.01018117  1  -0.30294  -0.389544  0.003597  3.561503  0.004
N  N39  1  0.85384637  0.58912297  0.20562440  1  -0.357674  -0.526939  -0.000617  2.912885  0.0
N  N40  1  0.14616129  0.41088913  0.79438002  1  -0.357758  -0.527122  -0.000617  2.913482  0.0
