# generated using pymatgen
data_Co3H90C133(N9O)2
_symmetry_space_group_name_H-M   'P 1'
_cell_length_a   9.29787271
_cell_length_b   19.04400851
_cell_length_c   19.04594537
_cell_angle_alpha   117.40555745
_cell_angle_beta   99.36480923
_cell_angle_gamma   99.36903631
_symmetry_Int_Tables_number   1
_chemical_formula_structural   Co3H90C133(N9O)2
_chemical_formula_sum   'Co3 H90 C133 N18 O2'
_cell_volume   2843.21467808
_cell_formula_units_Z   1
loop_
 _symmetry_equiv_pos_site_id
 _symmetry_equiv_pos_as_xyz
  1  'x, y, z'
loop_
 _atom_site_type_symbol
 _atom_site_label
 _atom_site_symmetry_multiplicity
 _atom_site_fract_x
 _atom_site_fract_y
 _atom_site_fract_z
 _atom_site_occupancy
 _atom_site_pbe_bader_charge
 _atom_site_pbe_bader_spin_density
 _atom_site_pbe_cm5_charge
 _atom_site_pbe_ddec_charge
 _atom_site_pbe_ddec_spin_density
 _atom_site_pbe_ddec_sum_bond_order
 _atom_site_pbe_magmom
Co  Co0  1  0.49999577  0.99999989  0.49999951  1  1.11481  0.998818  0.670213  0.486963  1.146329  3.081314  0.991
Co  Co1  1  0.99999979  0.50000121  0.50000168  1  1.111414  -0.999422  0.670204  0.48828  -1.268238  3.0779  -0.991
Co  Co2  1  0.49999770  0.50000064  0.00000050  1  1.114433  0.996971  0.670804  0.488526  1.144011  3.078781  0.989
H  H3  1  0.25005137  0.23332942  0.65484730  1  0.084271  4.5e-05  0.102029  0.121545  4e-05  1.016881  0.0
H  H4  1  0.59536113  0.34541758  0.57876447  1  0.083297  -5.2e-05  0.101902  0.121105  -7e-05  1.017509  0.0
H  H5  1  0.01670509  0.42146138  0.76671730  1  0.081538  8.8e-05  0.102006  0.120969  8.1e-05  1.017582  0.0
H  H6  1  0.74994383  0.76667228  0.34515269  1  0.084367  4.5e-05  0.101999  0.1215  4e-05  1.01688  0.0
H  H7  1  0.40463752  0.65458227  0.42123862  1  0.08331  -5.2e-05  0.101936  0.12117  -7e-05  1.017531  0.0
H  H8  1  0.98328824  0.57854092  0.23328387  1  0.081577  8.8e-05  0.101987  0.120957  8.1e-05  1.01756  0.0
H  H9  1  0.06802905  0.14629873  0.49897734  1  0.087238  7.7e-05  0.098794  0.113237  4.8e-05  1.055336  0.0
H  H10  1  0.56901282  0.50128737  0.64741103  1  0.092209  -7.4e-05  0.098037  0.111879  -6e-05  1.05645  0.0
H  H11  1  0.92153758  0.35264800  0.85373664  1  0.08979  4.7e-05  0.098764  0.112927  3.6e-05  1.056482  0.0
H  H12  1  0.93196598  0.85370480  0.50102191  1  0.087455  7.7e-05  0.098819  0.113278  4.8e-05  1.055326  0.0
H  H13  1  0.43098582  0.49871248  0.35259153  1  0.092307  -7.4e-05  0.098038  0.111851  -6e-05  1.056474  0.0
H  H14  1  0.07845452  0.64735185  0.14626331  1  0.089447  4.7e-05  0.098793  0.112998  3.6e-05  1.056452  0.0
H  H15  1  0.07109456  0.88576342  0.22750830  1  0.081507  4.4e-05  0.100713  0.119609  3.9e-05  1.027782  0.0
H  H16  1  0.84443884  0.77270335  0.65841369  1  0.08458  -2.7e-05  0.100991  0.120488  -4.1e-05  1.028313  0.0
H  H17  1  0.18561672  0.34164943  0.11423387  1  0.086411  2.8e-05  0.10058  0.119055  2.8e-05  1.02853  0.0
H  H18  1  0.92889847  0.11423828  0.77249204  1  0.081593  4.4e-05  0.100763  0.119644  3.9e-05  1.027716  0.0
H  H19  1  0.15555683  0.22729711  0.34158840  1  0.084635  -2.7e-05  0.100966  0.120496  -4.1e-05  1.028302  0.0
H  H20  1  0.81437442  0.65835287  0.88576608  1  0.086331  2.8e-05  0.100584  0.119052  2.8e-05  1.028554  0.0
H  H21  1  0.25764939  0.78774951  0.18739060  1  0.082752  2e-05  0.10013  0.119052  2.7e-05  1.046593  0.0
H  H22  1  0.07154062  0.81275831  0.60076800  1  0.078338  -3.6e-05  0.100001  0.119491  -4.9e-05  1.046257  0.0
H  H23  1  0.47029764  0.39946438  0.21209875  1  0.072962  3.9e-05  0.099966  0.119402  3.9e-05  1.045919  0.0
H  H24  1  0.74234363  0.21225218  0.81260922  1  0.082765  2e-05  0.100125  0.119076  2.7e-05  1.046564  0.0
H  H25  1  0.92845459  0.18724338  0.39923462  1  0.078442  -3.6e-05  0.099998  0.119495  -4.9e-05  1.046236  0.0
H  H26  1  0.52969321  0.60053731  0.78790247  1  0.072745  3.9e-05  0.099949  0.119382  3.9e-05  1.045905  0.0
H  H27  1  0.67912878  0.81559799  0.21688352  1  0.060125  0.001072  0.106826  0.117907  0.00044  1.003846  0.0
H  H28  1  0.46297263  0.78307986  0.59881996  1  0.079464  0.001107  0.106873  0.117933  0.000461  1.003359  0.0
H  H29  1  0.86360095  0.40111872  0.18428670  1  0.105562  -0.001096  0.106609  0.117178  -0.000507  1.002988  0.0
H  H30  1  0.32086176  0.18440309  0.78311687  1  0.060097  0.001072  0.106838  0.117969  0.00044  1.00379  0.0
H  H31  1  0.53702148  0.21692183  0.40118152  1  0.079402  0.001107  0.106869  0.117909  0.000461  1.003389  0.0
H  H32  1  0.13639440  0.59888543  0.81571548  1  0.10544  -0.001096  0.106582  0.117154  -0.000507  1.003042  0.0
H  H33  1  0.65089737  0.68629368  0.08601005  1  0.082492  0.001924  0.1115  0.073899  0.00066  1.03624  0.001
H  H34  1  0.56548727  0.91402166  0.60042571  1  0.111342  0.001918  0.112165  0.075034  0.000649  1.036647  0.001
H  H35  1  0.96453635  0.39960060  0.31363016  1  0.090677  -0.001905  0.112214  0.074986  -0.000739  1.036808  -0.001
H  H36  1  0.34910001  0.31370802  0.91399169  1  0.082495  0.001925  0.111522  0.073906  0.00066  1.036164  0.001
H  H37  1  0.43450871  0.08597941  0.39957249  1  0.111311  0.001917  0.112175  0.075091  0.000649  1.03658  0.001
H  H38  1  0.03545946  0.60040233  0.68637045  1  0.090579  -0.001905  0.112209  0.074988  -0.000739  1.036794  -0.001
H  H39  1  0.30268004  0.55637932  0.12602929  1  0.092903  0.002023  0.116313  0.085819  0.000721  1.011459  0.001
H  H40  1  0.17697779  0.87404831  0.43071940  1  0.093509  0.002081  0.116432  0.08671  0.000748  1.010446  0.001
H  H41  1  0.74641609  0.56966338  0.44344894  1  0.104727  -0.002048  0.116392  0.086524  -0.000837  1.011212  -0.001
H  H42  1  0.69731377  0.44362176  0.87396978  1  0.093676  0.002023  0.116293  0.085839  0.000721  1.011404  0.001
H  H43  1  0.82301400  0.12595092  0.56927866  1  0.093571  0.002081  0.116443  0.086719  0.000748  1.010444  0.001
H  H44  1  0.25358160  0.43033892  0.55655363  1  0.104753  -0.002049  0.116386  0.086521  -0.000837  1.011219  -0.001
H  H45  1  0.31549646  0.68024095  0.25826044  1  0.068915  0.001291  0.10932  0.121221  0.000535  0.989073  0.001
H  H46  1  0.05772680  0.74172683  0.42224932  1  0.091943  0.001285  0.109132  0.12131  0.000546  0.988844  0.001
H  H47  1  0.63567413  0.57809051  0.31957715  1  0.063616  -0.001303  0.108188  0.119905  -0.000605  0.988524  -0.001
H  H48  1  0.68449485  0.31975951  0.74173867  1  0.068875  0.001291  0.109302  0.121209  0.000535  0.988973  0.001
H  H49  1  0.94226499  0.25827240  0.57775032  1  0.092038  0.001285  0.109137  0.121252  0.000546  0.988792  0.001
H  H50  1  0.36432139  0.42191180  0.68042683  1  0.06369  -0.001303  0.108172  0.11989  -0.000605  0.988525  -0.001
H  H51  1  0.13192603  0.04834244  0.27350971  1  0.061944  1.8e-05  0.097425  0.097779  5e-06  0.99956  0.0
H  H52  1  0.85811484  0.72665201  0.77486056  1  0.066968  -1.7e-05  0.097761  0.097512  -7e-06  0.999762  0.0
H  H53  1  0.08349826  0.22501797  0.95182358  1  0.05758  2.5e-05  0.096667  0.095647  1.2e-05  1.000529  0.0
H  H54  1  0.86806293  0.95165987  0.72648955  1  0.061815  1.8e-05  0.097408  0.097754  5e-06  0.99953  0.0
H  H55  1  0.14187897  0.27334907  0.22514009  1  0.066972  -1.7e-05  0.097765  0.097509  -7e-06  0.999748  0.0
H  H56  1  0.91649305  0.77498250  0.04817396  1  0.057468  2.5e-05  0.096683  0.095668  1.2e-05  1.00046  0.0
H  H57  1  0.89458831  0.05397745  0.19761403  1  0.019843  2e-06  0.093046  0.092824  2e-06  1.011917  0.0
H  H58  1  0.69658475  0.80240800  0.85639232  1  0.02279  -1e-06  0.093023  0.093318  -3e-06  1.012421  0.0
H  H59  1  0.84049540  0.14353776  0.94621169  1  0.013978  -2.8e-05  0.093115  0.092748  -1.3e-05  1.013265  0.0
H  H60  1  0.10539974  0.94602301  0.80238326  1  0.019988  2e-06  0.092998  0.092759  2e-06  1.011852  0.0
H  H61  1  0.30341076  0.19759431  0.14360798  1  0.022848  -1e-06  0.093014  0.093223  -3e-06  1.012491  0.0
H  H62  1  0.15950028  0.85646270  0.05378829  1  0.013964  -2.8e-05  0.093116  0.092711  -1.3e-05  1.013359  0.0
H  H63  1  0.65057741  0.98684248  0.34099552  1  0.074917  -0.000126  0.100153  0.105264  -0.000101  1.040347  0.0
H  H64  1  0.30931930  0.65916121  0.64578104  1  0.067867  0.000136  0.099411  0.104918  9.8e-05  1.041668  0.0
H  H65  1  0.66365690  0.35406806  0.01305913  1  0.071881  -0.000136  0.099592  0.104004  -0.000106  1.04177  0.0
H  H66  1  0.34940955  0.01315799  0.65900377  1  0.07477  -0.000126  0.100153  0.105274  -0.000101  1.040365  0.0
H  H67  1  0.69067608  0.34083864  0.35421969  1  0.067896  0.000136  0.099414  0.104925  9.8e-05  1.041692  0.0
H  H68  1  0.33633738  0.64593179  0.98694256  1  0.072135  -0.000136  0.099572  0.103955  -0.000106  1.041776  0.0
H  H69  1  0.88706073  0.98322509  0.41769265  1  0.076296  -6.7e-05  0.097965  0.103002  -6.2e-05  1.035766  0.0
H  H70  1  0.46921825  0.58262898  0.56543766  1  0.079949  6.8e-05  0.097453  0.102723  5.8e-05  1.0362  0.0
H  H71  1  0.90381939  0.43432054  0.01668069  1  0.070291  -6.9e-05  0.09772  0.103255  -6.3e-05  1.035365  0.0
H  H72  1  0.11292872  0.01677599  0.58230660  1  0.076242  -6.7e-05  0.097974  0.10297  -6.2e-05  1.03575  0.0
H  H73  1  0.53077913  0.41737271  0.43456355  1  0.079928  6.8e-05  0.097455  0.102742  5.8e-05  1.036095  0.0
H  H74  1  0.09617193  0.56567992  0.98332106  1  0.070237  -6.9e-05  0.097722  0.103271  -6.3e-05  1.035336  0.0
H  H75  1  0.51055660  0.98590530  0.21889225  1  0.040215  1.8e-05  0.090477  0.129738  5e-06  1.002023  0.0
H  H76  1  0.29117361  0.78111580  0.76707729  1  0.056469  -1.1e-05  0.091324  0.130566  -5e-06  1.001772  0.0
H  H77  1  0.52449845  0.23297738  0.01413732  1  0.018738  1.3e-05  0.089968  0.128736  4e-06  1.003284  0.0
H  H78  1  0.48943114  0.01409455  0.78110787  1  0.040056  1.8e-05  0.090475  0.129788  5e-06  1.001859  0.0
H  H79  1  0.70881726  0.21888159  0.23292195  1  0.056567  -1.1e-05  0.091333  0.130599  -5e-06  1.001783  0.0
H  H80  1  0.47549583  0.76702247  0.98586490  1  0.018799  1.3e-05  0.089967  0.128758  4e-06  1.00326  0.0
H  H81  1  0.60829076  0.01030194  0.15632259  1  0.03327  -0.0  0.088755  0.121883  -2e-06  1.005771  0.0
H  H82  1  0.45151999  0.84370549  0.85403379  1  0.064308  3e-06  0.088154  0.121115  2e-06  1.006434  0.0
H  H83  1  0.59766505  0.14594300  0.98972648  1  0.044631  -2e-06  0.088133  0.121258  -1e-06  1.006646  0.0
H  H84  1  0.39169759  0.98969914  0.84367763  1  0.033189  -0.0  0.088783  0.121924  -2e-06  1.005672  0.0
H  H85  1  0.54846949  0.15629128  0.14596610  1  0.064248  2e-06  0.088132  0.121067  2e-06  1.006427  0.0
H  H86  1  0.40232814  0.85405685  0.01027513  1  0.044553  -2e-06  0.088141  0.121247  -1e-06  1.006648  0.0
H  H87  1  0.59941697  0.08959646  0.25151801  1  0.048607  1.1e-05  0.090567  0.129212  7e-06  1.007715  0.0
H  H88  1  0.34754401  0.74846669  0.83810480  1  0.056516  -9e-06  0.090587  0.128492  -8e-06  1.008783  0.0
H  H89  1  0.50952946  0.16188490  0.91045086  1  0.084397  -5e-06  0.090815  0.128843  -1e-06  1.007721  0.0
H  H90  1  0.40057060  0.91040523  0.74848242  1  0.048924  1.1e-05  0.090579  0.129216  7e-06  1.007633  0.0
H  H91  1  0.65244935  0.25153131  0.16189545  1  0.055744  -9e-06  0.090554  0.128426  -8e-06  1.008724  0.0
H  H92  1  0.49046482  0.83811495  0.08955083  1  0.084388  -5e-06  0.090809  0.128837  -1e-06  1.007731  0.0
C  C93  1  0.37583880  0.13736623  0.60642069  1  0.427084  -0.009731  0.086319  0.173885  -0.005804  4.066133  -0.006
C  C94  1  0.76941498  0.39379309  0.53112927  1  0.356885  0.009677  0.085482  0.171855  0.005171  4.071181  0.006
C  C95  1  0.23839248  0.46895911  0.86269951  1  0.44156  -0.009551  0.085806  0.172846  -0.005697  4.069721  -0.006
C  C96  1  0.62415361  0.86263424  0.39357904  1  0.427008  -0.009729  0.086315  0.173947  -0.005803  4.066154  -0.006
C  C97  1  0.23058288  0.60620737  0.46887194  1  0.356493  0.009677  0.085405  0.171781  0.00517  4.071269  0.006
C  C98  1  0.76160102  0.53104136  0.13730083  1  0.441583  -0.009551  0.085823  0.172856  -0.005697  4.069833  -0.006
C  C99  1  0.25866791  0.17795461  0.60350602  1  -0.099008  -0.005691  -0.111625  -0.193372  -0.003433  4.007604  -0.003
C  C100  1  0.65525004  0.39676193  0.57470030  1  -0.067618  0.005729  -0.11084  -0.192186  0.003129  4.009109  0.003
C  C101  1  0.08065549  0.42545263  0.82207400  1  -0.12158  -0.005689  -0.111342  -0.191682  -0.003405  4.007867  -0.003
C  C102  1  0.74132542  0.82204770  0.39649410  1  -0.098538  -0.005692  -0.111499  -0.19322  -0.003434  4.007621  -0.003
C  C103  1  0.34474983  0.60324038  0.42530349  1  -0.067634  0.005729  -0.110858  -0.192317  0.00313  4.009074  0.003
C  C104  1  0.91933583  0.57454783  0.17792616  1  -0.12109  -0.005689  -0.111338  -0.191705  -0.003406  4.007981  -0.003
C  C105  1  0.16657832  0.13398942  0.52529456  1  -0.077503  -0.0059  -0.108673  -0.185311  -0.003558  4.00683  -0.003
C  C106  1  0.64133489  0.47496814  0.60884253  1  -0.065262  0.006014  -0.108884  -0.184767  0.003285  4.008665  0.003
C  C107  1  0.03246774  0.39122100  0.86603803  1  -0.034127  -0.005982  -0.109341  -0.186941  -0.00363  4.007994  -0.003
C  C108  1  0.83341423  0.86601350  0.47470474  1  -0.077928  -0.005898  -0.1087  -0.185392  -0.003557  4.006997  -0.003
C  C109  1  0.35866654  0.52503294  0.39116187  1  -0.065195  0.006014  -0.108869  -0.184634  0.003285  4.008662  0.003
C  C110  1  0.96752528  0.60878069  0.13396284  1  -0.034356  -0.005982  -0.109358  -0.18695  -0.00363  4.00814  -0.003
C  C111  1  0.22729392  0.06654123  0.48039580  1  0.435271  -0.009197  0.08369  0.161501  -0.005397  4.059147  -0.006
C  C112  1  0.74687659  0.51982295  0.58621454  1  0.345831  0.00932  0.083829  0.162264  0.004888  4.057869  0.006
C  C113  1  0.16058564  0.41374686  0.93349139  1  0.342305  -0.009235  0.084014  0.163815  -0.005374  4.056803  -0.006
C  C114  1  0.77269880  0.93345985  0.51960371  1  0.435046  -0.009199  0.083686  0.161625  -0.005398  4.058958  -0.006
C  C115  1  0.25312594  0.48017813  0.41378784  1  0.345786  0.009319  0.083818  0.162222  0.004887  4.058046  0.006
C  C116  1  0.83940707  0.58625422  0.06650917  1  0.341979  -0.009235  0.083932  0.163592  -0.005374  4.057127  -0.006
C  C117  1  0.16833410  0.01116525  0.39623538  1  -0.021698  -0.005686  -0.00671  -0.079808  -0.003589  3.998006  -0.003
C  C118  1  0.77205432  0.60397809  0.61491987  1  0.073777  0.005663  -0.0061  -0.080649  0.003281  3.997983  0.003
C  C119  1  0.15710855  0.38495179  0.98885829  1  0.022139  -0.00567  -0.006206  -0.08061  -0.003603  3.99793  -0.003
C  C120  1  0.83165705  0.98883706  0.60376405  1  -0.021643  -0.005684  -0.006678  -0.079709  -0.003588  3.997826  -0.003
C  C121  1  0.22794494  0.39602299  0.38508278  1  0.07384  0.005664  -0.006059  -0.08066  0.003282  3.998058  0.003
C  C122  1  0.84288651  0.61504745  0.01114056  1  0.022631  -0.005669  -0.006161  -0.080478  -0.003603  3.997817  -0.003
C  C123  1  0.23768545  0.95134235  0.35244501  1  0.357624  -0.009003  0.081029  0.154003  -0.005188  4.071132  -0.006
C  C124  1  0.88559150  0.64768053  0.59899586  1  0.321221  0.009083  0.080789  0.15636  0.004684  4.069345  0.006
C  C125  1  0.28643303  0.40097807  0.04859139  1  0.382947  -0.008934  0.081098  0.155697  -0.005153  4.069787  -0.006
C  C126  1  0.76230883  0.04865750  0.64755459  1  0.357695  -0.009003  0.08095  0.153824  -0.005188  4.070953  -0.006
C  C127  1  0.11440885  0.35232055  0.40100688  1  0.321227  0.009082  0.080796  0.15647  0.004683  4.069521  0.006
C  C128  1  0.71356139  0.59902423  0.95140934  1  0.382996  -0.008935  0.081049  0.155619  -0.005154  4.069973  -0.006
C  C129  1  0.17466788  0.89010238  0.26671636  1  -0.019157  -0.006154  -0.111725  -0.189246  -0.003762  4.017037  -0.003
C  C130  1  0.90883880  0.73345694  0.62363181  1  -0.086437  0.006108  -0.112174  -0.192467  0.003356  4.01648  0.003
C  C131  1  0.28483833  0.37647113  0.10982304  1  0.006509  -0.006002  -0.111779  -0.189234  -0.003684  4.01614  -0.003
C  C132  1  0.82532374  0.10989870  0.73328359  1  -0.019431  -0.006154  -0.11175  -0.189147  -0.003762  4.017012  -0.003
C  C133  1  0.09115889  0.26654536  0.37637129  1  -0.086643  0.006109  -0.112174  -0.192512  0.003356  4.016599  0.003
C  C134  1  0.71515282  0.62353118  0.89017744  1  0.006081  -0.006001  -0.1118  -0.189317  -0.003684  4.016322  -0.003
C  C135  1  0.26851207  0.84021264  0.24671075  1  -0.082809  -0.005586  -0.112726  -0.192256  -0.003396  4.011872  -0.003
C  C136  1  0.02295780  0.75344077  0.59388795  1  -0.037276  0.005622  -0.112574  -0.191377  0.003096  4.008661  0.003
C  C137  1  0.42861698  0.40631823  0.15964874  1  -0.131839  -0.005619  -0.112642  -0.192248  -0.003374  4.009483  -0.003
C  C138  1  0.73148361  0.15978782  0.75328871  1  -0.082751  -0.005586  -0.112723  -0.192367  -0.003395  4.011882  -0.003
C  C139  1  0.97704037  0.24656031  0.40611409  1  -0.037169  0.005621  -0.112578  -0.191378  0.003096  4.008673  0.003
C  C140  1  0.57137587  0.59368530  0.84035243  1  -0.13129  -0.005619  -0.112599  -0.192097  -0.003374  4.009227  -0.003
C  C141  1  0.38863481  0.87058406  0.32033482  1  0.403144  -0.009996  0.085381  0.169619  -0.005948  4.070223  -0.007
C  C142  1  0.06912246  0.67971536  0.55053198  1  0.405446  0.009826  0.084564  0.167339  0.005275  4.073339  0.006
C  C143  1  0.51828686  0.44956234  0.12923277  1  0.419389  -0.009743  0.084215  0.167658  -0.005802  4.069383  -0.006
C  C144  1  0.61135634  0.12941824  0.67966618  1  0.403366  -0.009997  0.085381  0.169675  -0.005949  4.07021  -0.007
C  C145  1  0.93087788  0.32028572  0.44947076  1  0.405541  0.009827  0.084585  0.167345  0.005275  4.073271  0.006
C  C146  1  0.48170834  0.55043936  0.87076985  1  0.419359  -0.009743  0.084185  0.167511  -0.005803  4.069393  -0.006
C  C147  1  0.50496383  0.83361531  0.32407587  1  -0.007645  -0.006255  -0.00778  -0.090325  -0.003978  3.99918  -0.003
C  C148  1  0.18144681  0.67583135  0.50963446  1  0.051928  0.006476  -0.006308  -0.086422  0.003732  4.003383  0.003
C  C149  1  0.67152375  0.49039559  0.16621619  1  0.04331  -0.006429  -0.006366  -0.088321  -0.004075  4.001002  -0.003
C  C150  1  0.49502827  0.16638454  0.67592355  1  -0.007851  -0.006253  -0.00775  -0.090282  -0.003976  3.999178  -0.003
C  C151  1  0.81854856  0.32416850  0.49036627  1  0.051525  0.006477  -0.006303  -0.086403  0.003731  4.003299  0.003
C  C152  1  0.32846941  0.50960856  0.83378687  1  0.04364  -0.006428  -0.006361  -0.088211  -0.004075  4.000945  -0.003
C  C153  1  0.49891569  0.75803056  0.24811949  1  -0.037016  -0.002764  0.013508  0.131095  -0.001593  4.010349  -0.002
C  C154  1  0.25144951  0.75183921  0.51006500  1  -0.015636  -0.002624  0.013912  0.130761  -0.00164  4.010439  -0.002
C  C155  1  0.74110906  0.49004329  0.24182294  1  -0.059064  0.002637  0.015396  0.132998  0.001491  4.008148  0.002
C  C156  1  0.50107563  0.24196990  0.75188015  1  -0.036515  -0.002763  0.013549  0.131201  -0.001592  4.01036  -0.002
C  C157  1  0.74854508  0.24816125  0.48993385  1  -0.015487  -0.002624  0.013951  0.130754  -0.00164  4.01056  -0.002
C  C158  1  0.25888348  0.50995963  0.75817846  1  -0.059463  0.002638  0.015395  0.132964  0.001492  4.008176  0.002
C  C159  1  0.59489198  0.75902237  0.19890417  1  0.009322  0.003628  -0.082971  -0.178771  0.002036  3.936773  0.003
C  C160  1  0.39662238  0.80108257  0.56028554  1  -0.063594  0.004114  -0.083346  -0.178592  0.002249  3.934565  0.003
C  C161  1  0.83590604  0.43974981  0.24083328  1  -0.072233  -0.004063  -0.083678  -0.178173  -0.002497  3.931968  -0.003
C  C162  1  0.40509917  0.24097994  0.80109684  1  0.009217  0.003627  -0.083026  -0.179001  0.002036  3.936897  0.003
C  C163  1  0.60337268  0.19891666  0.43971383  1  -0.063568  0.004113  -0.083386  -0.178547  0.002249  3.934656  0.003
C  C164  1  0.16408822  0.56025434  0.75916935  1  -0.072293  -0.004063  -0.08371  -0.17821  -0.002498  3.932166  -0.003
C  C165  1  0.57918848  0.68732867  0.12621293  1  0.478092  -0.001214  0.046668  0.099022  -0.000529  3.950637  -0.001
C  C166  1  0.45355052  0.87381470  0.56130724  1  0.50486  -0.001331  0.045699  0.096792  -0.000538  3.95185  -0.001
C  C167  1  0.89183527  0.43877736  0.31255455  1  0.506196  0.001278  0.046031  0.097249  0.00018  3.953781  0.001
C  C168  1  0.42080938  0.31267179  0.87378775  1  0.478116  -0.001212  0.046637  0.099077  -0.000528  3.950745  -0.001
C  C169  1  0.54644515  0.12618576  0.43869170  1  0.50481  -0.001329  0.045681  0.09668  -0.000537  3.951836  -0.001
C  C170  1  0.10816303  0.56122618  0.68744758  1  0.506346  0.001281  0.04602  0.097172  0.00018  3.953959  0.001
C  C171  1  0.38486258  0.61491455  0.14820455  1  0.498605  -0.000945  0.047613  0.09781  -0.000316  3.953544  -0.001
C  C172  1  0.23702713  0.85185009  0.46702914  1  0.475146  -0.000665  0.047435  0.096175  -0.000177  3.951936  -0.001
C  C173  1  0.77005509  0.53327722  0.38493283  1  0.472336  0.000709  0.047429  0.096438  -0.000176  3.954647  0.001
C  C174  1  0.61512873  0.38508591  0.85179352  1  0.497921  -0.000944  0.047627  0.097799  -0.000316  3.953543  -0.001
C  C175  1  0.76296885  0.14815099  0.53297115  1  0.475128  -0.000664  0.047392  0.096184  -0.000176  3.951977  -0.001
C  C176  1  0.22994072  0.46672570  0.61506988  1  0.472432  0.000709  0.047398  0.09632  -0.000176  3.954568  0.001
C  C177  1  0.39235490  0.68381869  0.22171519  1  -0.019687  0.003605  -0.085858  -0.188745  0.002005  3.952981  0.003
C  C178  1  0.17117398  0.77826312  0.46232029  1  -0.05567  0.004064  -0.085671  -0.188532  0.002258  3.952208  0.003
C  C179  1  0.70889741  0.53795091  0.31603890  1  0.019623  -0.003973  -0.086195  -0.188923  -0.002486  3.954278  -0.003
C  C180  1  0.60763812  0.31618300  0.77828463  1  -0.01996  0.003604  -0.085828  -0.188732  0.002005  3.953025  0.003
C  C181  1  0.82881951  0.22173735  0.53767900  1  -0.055882  0.004064  -0.085646  -0.188439  0.002258  3.95212  0.003
C  C182  1  0.29109701  0.46205140  0.68396289  1  0.019674  -0.003973  -0.086142  -0.188839  -0.002486  3.95417  -0.003
C  C183  1  0.02679835  0.01568395  0.35126852  1  -0.003945  -8.8e-05  -0.01009  0.075595  -8e-06  4.015204  0.0
C  C184  1  0.67537437  0.64898551  0.66436181  1  0.017592  9.3e-05  -0.010259  0.075697  -1e-06  4.011715  0.0
C  C185  1  0.01108055  0.33544945  0.98437083  1  -0.006238  -7.9e-05  -0.009807  0.075952  -2e-06  4.013549  0.0
C  C186  1  0.97319109  0.98431713  0.64873073  1  -0.004151  -8.8e-05  -0.010203  0.075327  -9e-06  4.015389  0.0
C  C187  1  0.32462178  0.35101372  0.33563817  1  0.01729  9.3e-05  -0.010247  0.075669  -2e-06  4.011689  0.0
C  C188  1  0.98891356  0.66455225  0.01563065  1  -0.006285  -7.9e-05  -0.009806  0.076072  -2e-06  4.013437  0.0
C  C189  1  0.02589757  0.03491935  0.28831487  1  -0.064824  -0.000242  -0.095816  -0.131855  -0.000145  4.009323  0.0
C  C190  1  0.73729819  0.71186211  0.74660947  1  -0.059093  0.000266  -0.094225  -0.128771  0.000145  4.007016  0.0
C  C191  1  0.99091574  0.25327548  0.96521520  1  -0.05471  -0.000303  -0.09506  -0.128593  -0.00017  4.006421  0.0
C  C192  1  0.97408969  0.96508173  0.71168421  1  -0.064899  -0.000242  -0.095683  -0.131694  -0.000145  4.009183  0.0
C  C193  1  0.26269841  0.28814020  0.25339039  1  -0.058861  0.000266  -0.094236  -0.128773  0.000145  4.007118  0.0
C  C194  1  0.00907667  0.74672498  0.03478295  1  -0.054742  -0.000303  -0.095039  -0.128701  -0.00017  4.006364  0.0
C  C195  1  0.89204348  0.03753743  0.24539674  1  -0.007632  2.7e-05  -0.102058  -0.157219  1.7e-05  4.012086  0.0
C  C196  1  0.64625116  0.75467213  0.79215383  1  0.018646  -2.1e-05  -0.103147  -0.16042  -1.8e-05  4.013029  0.0
C  C197  1  0.85439729  0.20774871  0.96259277  1  0.002096  -2.7e-05  -0.103279  -0.159923  -1.1e-05  4.011268  0.0
C  C198  1  0.10794766  0.96246487  0.75460164  1  -0.007537  2.7e-05  -0.102073  -0.157149  1.7e-05  4.011742  0.0
C  C199  1  0.35374701  0.24532894  0.20784769  1  0.018582  -2.1e-05  -0.103106  -0.160222  -1.8e-05  4.013221  0.0
C  C200  1  0.14559839  0.79225175  0.03740774  1  0.002289  -2.7e-05  -0.10331  -0.159746  -1.1e-05  4.011413  0.0
C  C201  1  0.75450696  0.02064651  0.26351521  1  -0.030077  -0.000145  -0.015844  0.157406  -8e-05  3.994729  0.0
C  C202  1  0.49056541  0.73655295  0.75715018  1  -0.049729  0.000219  -0.016323  0.159415  0.000111  3.99343  0.0
C  C203  1  0.73365482  0.24273853  0.97934279  1  -0.038176  -0.000255  -0.014556  0.160616  -0.000142  3.990589  0.0
C  C204  1  0.24548436  0.97935395  0.73648286  1  -0.030211  -0.000145  -0.01583  0.157335  -8e-05  3.994797  0.0
C  C205  1  0.50942826  0.26344567  0.24284985  1  -0.049733  0.000219  -0.016291  0.159383  0.000111  3.993344  0.0
C  C206  1  0.26634117  0.75726255  0.02066066  1  -0.038243  -0.000255  -0.014548  0.160366  -0.000142  3.990886  0.0
C  C207  1  0.75575789  0.00088263  0.32592512  1  -0.097147  -2.5e-05  -0.098616  -0.148466  -2.4e-05  3.974668  0.0
C  C208  1  0.42954573  0.67422515  0.67492487  1  -0.113548  0.00014  -0.098086  -0.149701  8.7e-05  3.976343  0.0
C  C209  1  0.75473705  0.32491138  0.99904104  1  -0.090932  -0.000132  -0.098284  -0.148694  -8.7e-05  3.975051  0.0
C  C210  1  0.24423046  0.99911845  0.67407300  1  -0.096709  -2.6e-05  -0.098704  -0.1486  -2.4e-05  3.975068  0.0
C  C211  1  0.57045213  0.32577531  0.32507634  1  -0.11361  0.00014  -0.098126  -0.149734  8.7e-05  3.97626  0.0
C  C212  1  0.24525645  0.67508908  0.00096087  1  -0.091084  -0.000132  -0.098243  -0.148484  -8.7e-05  3.974986  0.0
C  C213  1  0.88951328  0.99902722  0.36958480  1  -0.046878  -0.000265  -0.092683  -0.127355  -0.000171  3.975284  0.0
C  C214  1  0.51975637  0.63067459  0.62938393  1  -0.070331  0.000354  -0.092339  -0.12702  0.000208  3.973952  0.0
C  C215  1  0.89039981  0.37040395  0.00090490  1  -0.043996  -0.000389  -0.09204  -0.126881  -0.000246  3.975107  0.0
C  C216  1  0.11047415  0.00097202  0.63041292  1  -0.046809  -0.000265  -0.092573  -0.127059  -0.000171  3.975389  0.0
C  C217  1  0.48024039  0.36932587  0.37061666  1  -0.070248  0.000354  -0.092349  -0.127033  0.000208  3.973843  0.0
C  C218  1  0.10959399  0.62959713  0.99909732  1  -0.043869  -0.000389  -0.092076  -0.127019  -0.000246  3.975179  0.0
C  C219  1  0.61055054  0.02644339  0.21987761  1  -0.07524  2.9e-05  -0.238462  -0.41421  2e-05  3.97675  0.0
C  C220  1  0.39020705  0.78014011  0.80660308  1  -0.122795  -2.6e-05  -0.238813  -0.414027  -2.2e-05  3.97802  0.0
C  C221  1  0.58385544  0.19336523  0.97358282  1  -0.098801  1.7e-05  -0.237746  -0.412516  1.1e-05  3.977066  0.0
C  C222  1  0.38943346  0.97355769  0.78012173  1  -0.075234  2.9e-05  -0.238482  -0.414277  2e-05  3.976528  0.0
C  C223  1  0.60978631  0.21985790  0.19339717  1  -0.121959  -2.6e-05  -0.238791  -0.413964  -2.2e-05  3.977826  0.0
C  C224  1  0.41614024  0.80663523  0.02641927  1  -0.09877  1.7e-05  -0.237757  -0.412483  1.1e-05  3.977066  0.0
C  C225  1  0.00025016  0.99994627  0.99998515  1  2.096218  -0.0  0.375928  0.719699  -0.0  4.126426  0.0
N  N226  1  0.35544466  0.06877169  0.53094310  1  -1.124707  -0.002578  -0.345599  -0.309044  -4e-05  3.456835  0.001
N  N227  1  0.82451244  0.46924313  0.53795018  1  -1.122069  0.002442  -0.345741  -0.309431  -0.000675  3.454576  -0.001
N  N228  1  0.28655759  0.46206612  0.93127767  1  -1.136058  -0.002402  -0.345171  -0.309579  5.6e-05  3.454975  0.001
N  N229  1  0.64454588  0.93122939  0.46905571  1  -1.124639  -0.002577  -0.345621  -0.309199  -3.9e-05  3.456904  0.001
N  N230  1  0.17548651  0.53075733  0.46205165  1  -1.122061  0.002442  -0.3457  -0.309351  -0.000675  3.454403  -0.001
N  N231  1  0.71343512  0.53793496  0.06872289  1  -1.13624  -0.002401  -0.345166  -0.309427  5.6e-05  3.455064  0.001
N  N232  1  0.37064604  0.93951208  0.38470711  1  -1.143075  -0.002246  -0.349841  -0.317269  0.000106  3.481217  0.0
N  N233  1  0.98630994  0.61533322  0.55494412  1  -1.131359  0.002392  -0.34968  -0.317631  -0.000653  3.47906  0.0
N  N234  1  0.43122739  0.44505312  0.06036282  1  -1.153596  -0.002392  -0.349944  -0.318244  1.6e-05  3.47978  0.0
N  N235  1  0.62934668  0.06048899  0.61529240  1  -1.14314  -0.002245  -0.349834  -0.317269  0.000107  3.480973  0.0
N  N236  1  0.01368822  0.38466786  0.44505740  1  -1.131395  0.002393  -0.349663  -0.317663  -0.000653  3.479097  0.0
N  N237  1  0.56876890  0.55494858  0.93963883  1  -1.153669  -0.002392  -0.349893  -0.318174  1.5e-05  3.479888  0.0
N  N238  1  0.47648096  0.61617664  0.10083622  1  -1.202584  0.071179  -0.310153  -0.214721  0.040821  3.528209  0.062
N  N239  1  0.37607678  0.89919447  0.51560074  1  -1.196714  0.071381  -0.309664  -0.213206  0.040897  3.527305  0.062
N  N240  1  0.86028318  0.48459072  0.38367122  1  -1.227959  -0.071405  -0.309355  -0.213655  -0.045375  3.530142  -0.062
N  N241  1  0.52351472  0.38382383  0.89916534  1  -1.202731  0.071178  -0.310146  -0.214732  0.040821  3.528206  0.062
N  N242  1  0.62391985  0.10080354  0.48439872  1  -1.196693  0.071381  -0.309642  -0.213191  0.040897  3.527235  0.062
N  N243  1  0.13971342  0.51541159  0.61633074  1  -1.228133  -0.071409  -0.309289  -0.213432  -0.045375  3.53003  -0.062
O  O244  1  0.87342853  0.99951864  0.99957471  1  -1.049673  -1e-06  -0.177491  -0.354713  0.0  2.123398  0.0
O  O245  1  0.12708526  0.00038228  0.00039947  1  -1.05354  -1e-06  -0.177144  -0.354065  0.0  2.121385  0.0
