# generated using pymatgen
data_CuH6C12SN4(ClO)2
_symmetry_space_group_name_H-M   'P 1'
_cell_length_a   7.81677737
_cell_length_b   8.05517106
_cell_length_c   14.78280378
_cell_angle_alpha   74.41137103
_cell_angle_beta   92.38395495
_cell_angle_gamma   64.55718884
_symmetry_Int_Tables_number   1
_chemical_formula_structural   CuH6C12SN4(ClO)2
_chemical_formula_sum   'Cu2 H12 C24 S2 N8 Cl4 O4'
_cell_volume   796.30771239
_cell_formula_units_Z   2
loop_
 _symmetry_equiv_pos_site_id
 _symmetry_equiv_pos_as_xyz
  1  'x, y, z'
loop_
 _atom_site_type_symbol
 _atom_site_label
 _atom_site_symmetry_multiplicity
 _atom_site_fract_x
 _atom_site_fract_y
 _atom_site_fract_z
 _atom_site_occupancy
 _atom_site_hle17_ddec_charge
 _atom_site_hle17_ddec_spin_density
 _atom_site_hle17_ddec_sum_bond_order
 _atom_site_hle17_magmom
 _atom_site_hse06_10hf_ddec_charge
 _atom_site_hse06_10hf_ddec_spin_density
 _atom_site_hse06_10hf_ddec_sum_bond_order
 _atom_site_hse06_10hf_magmom
 _atom_site_hse06_ddec_charge
 _atom_site_hse06_ddec_spin_density
 _atom_site_hse06_ddec_sum_bond_order
 _atom_site_hse06_magmom
 _atom_site_pbe_cm5_charge
 _atom_site_pbe_ddec_charge
 _atom_site_pbe_ddec_spin_density
 _atom_site_pbe_ddec_sum_bond_order
 _atom_site_pbe_magmom
Cu  Cu0  1  0.99996858  0.50002247  0.49999293  1  0.729314  0.653254  2.096796  0.439  0.708784  0.734867  2.511632  0.543  0.781609  0.821232  2.449892  0.626  0.660417  0.695741  0.535811  2.524794  0.357
Cu  Cu1  1  0.00002738  0.49997492  0.00000585  1  0.743465  -0.650734  1.988595  -0.438  0.723627  -0.739943  2.393281  -0.551  0.804411  -0.828102  2.326135  -0.637  0.643708  0.68894  -0.664166  2.42611  -0.49
H  H2  1  0.62683824  0.09737473  0.86994772  1  0.111133  -0.000926  0.969339  0.0  0.1217  -0.000778  1.02815  0.0  0.125957  -0.000583  1.024279  0.0  0.103138  0.117939  -0.000915  1.031259  0.0
H  H3  1  0.37315842  0.90262685  0.13004970  1  0.111137  -0.000926  0.969447  0.0  0.121696  -0.000778  1.028243  0.0  0.125951  -0.000584  1.024372  0.0  0.103154  0.117942  -0.000916  1.031347  0.0
H  H4  1  0.65445395  0.06720197  0.73894684  1  0.111158  -0.000111  0.937266  0.0  0.120775  -0.000431  0.996828  0.0  0.124208  -0.000338  0.994264  0.0  0.113279  0.119385  -0.000509  0.997248  0.0
H  H5  1  0.34556650  0.93277897  0.26105973  1  0.11116  -0.000115  0.937247  0.0  0.120752  -0.000431  0.996841  0.0  0.124181  -0.000339  0.994284  0.0  0.113274  0.119352  -0.000513  0.997283  0.0
H  H6  1  0.63994666  0.10302340  0.03625354  1  0.119803  -0.001136  0.943321  -0.001  0.129677  -0.001259  0.99983  -0.001  0.133858  -0.00095  0.997221  0.0  0.105244  0.126596  -0.001427  1.002412  -0.001
H  H7  1  0.36012823  0.89690284  0.96375833  1  0.119756  -0.001136  0.9435  -0.001  0.129713  -0.001259  0.999924  -0.001  0.133894  -0.000951  0.997315  0.0  0.105283  0.12666  -0.001426  1.002467  -0.001
H  H8  1  0.83050875  0.25008604  0.09456381  1  0.095299  -0.001071  0.931787  -0.002  0.099081  -0.001005  1.001128  -0.001  0.101752  -0.000746  0.998136  -0.001  0.122301  0.096625  -0.001231  1.003895  -0.001
H  H9  1  0.16956511  0.74984566  0.90545205  1  0.09515  -0.001074  0.931947  -0.002  0.098926  -0.001005  1.001304  -0.001  0.101592  -0.000746  0.998312  -0.001  0.122232  0.096566  -0.001227  1.003978  -0.001
H  H10  1  0.65747448  0.08329505  0.56867022  1  0.129854  0.00165  0.948686  0.0  0.138656  0.001803  1.005502  0.001  0.143792  0.001358  1.001469  0.0  0.105355  0.133389  0.001942  1.009412  0.0
H  H11  1  0.34250781  0.91671042  0.43133194  1  0.129867  0.00165  0.948759  0.0  0.138682  0.001802  1.005574  0.001  0.143794  0.001358  1.001573  0.0  0.105342  0.133426  0.00194  1.009474  0.0
H  H12  1  0.80584087  0.27172924  0.46917478  1  0.095639  0.001075  0.924401  0.002  0.100453  0.000946  0.990834  0.001  0.103003  0.000728  0.987821  0.001  0.126013  0.099533  0.000967  0.993944  0.001
H  H13  1  0.19409263  0.72832027  0.53081073  1  0.095765  0.001075  0.924565  0.002  0.100522  0.000946  0.991035  0.001  0.103065  0.000728  0.988032  0.001  0.126032  0.099652  0.000968  0.994099  0.001
C  C14  1  0.91040866  0.31875616  0.87388821  1  0.124308  0.004356  3.746325  0.005  0.117489  -0.000346  3.987631  0.001  0.118134  0.000785  4.009441  0.002  0.117923  0.119133  -0.000118  3.977642  0.0
C  C15  1  0.08961049  0.68123176  0.12610115  1  0.124172  0.004351  3.746388  0.005  0.11745  -0.000343  3.98767  0.001  0.118111  0.000784  4.00949  0.002  0.117806  0.119076  -0.000134  3.977643  0.0
C  C16  1  0.80961860  0.23737994  0.83476479  1  0.025385  -0.005581  3.690341  -0.006  0.032543  -0.002192  3.92733  -0.003  0.032702  -0.00211  3.948928  -0.003  0.018505  0.027214  0.001868  3.915595  0.001
C  C17  1  0.19038307  0.76260748  0.16522986  1  0.025501  -0.005574  3.690038  -0.006  0.032634  -0.002196  3.926981  -0.003  0.032782  -0.002108  3.948588  -0.003  0.018654  0.02733  0.001798  3.915226  0.001
C  C18  1  0.00793762  0.40934316  0.81397145  1  0.204106  -0.001525  3.72116  -0.002  0.193472  -0.000544  3.969145  -0.001  0.209847  -0.000696  3.972683  -0.001  0.155436  0.173097  0.010383  3.982477  0.006
C  C19  1  0.99207356  0.59064011  0.18602184  1  0.204292  -0.001515  3.721197  -0.002  0.193707  -0.000552  3.968976  -0.001  0.210062  -0.000692  3.972539  -0.001  0.155601  0.173446  0.010222  3.982166  0.006
C  C20  1  0.88982990  0.33917247  0.67300409  1  0.132552  -0.006289  3.722297  -0.007  0.126621  -0.000593  3.960141  -0.002  0.127101  -0.001814  3.982126  -0.003  0.124473  0.128028  0.002012  3.946113  0.0
C  C21  1  0.11014885  0.66085186  0.32699547  1  0.132812  -0.006288  3.722493  -0.007  0.126577  -0.000594  3.960455  -0.002  0.127063  -0.001811  3.982446  -0.003  0.124426  0.127999  0.001995  3.946425  0.0
C  C22  1  0.70990053  0.16004705  0.89515182  1  -0.01043  0.007952  3.634958  0.007  -0.040075  0.002019  3.888788  0.002  -0.036977  0.002619  3.901708  0.002  -0.053013  -0.040304  0.000283  3.88189  0.0
C  C23  1  0.29011303  0.83994005  0.10484843  1  -0.01063  0.007948  3.635254  0.007  -0.0402  0.002021  3.889034  0.002  -0.0371  0.002618  3.901967  0.002  -0.053056  -0.040443  0.000301  3.882101  0.0
C  C24  1  0.99131648  0.42612878  0.71091671  1  0.202698  0.001111  3.709701  0.002  0.190702  0.000931  3.958127  0.001  0.206315  0.000311  3.961684  0.001  0.157509  0.174107  0.012031  3.972433  0.008
C  C25  1  0.00865564  0.57388800  0.28908719  1  0.202285  0.0011  3.71037  0.002  0.190808  0.000922  3.95807  0.001  0.206403  0.000308  3.961656  0.001  0.15759  0.174184  0.011872  3.972381  0.008
C  C26  1  0.71830459  0.14931338  0.69515948  1  -0.001837  -0.009734  3.608482  -0.009  -0.03081  -0.003364  3.863159  -0.003  -0.029266  -0.003747  3.877573  -0.004  -0.043805  -0.028763  -0.003488  3.851447  -0.004
C  C27  1  0.28169655  0.85068187  0.30484629  1  -0.001801  -0.009724  3.60844  -0.009  -0.030728  -0.003363  3.863126  -0.003  -0.029177  -0.003743  3.877537  -0.004  -0.043803  -0.028687  -0.00347  3.85139  -0.004
C  C28  1  0.80506445  0.24097050  0.73437589  1  0.023418  0.005846  3.682318  0.006  0.027928  0.002423  3.920473  0.003  0.026742  0.002375  3.943735  0.003  0.02  0.031988  0.006261  3.90024  0.005
C  C29  1  0.19491206  0.75904495  0.26562688  1  0.02318  0.005847  3.68222  0.006  0.027739  0.002421  3.920437  0.003  0.026546  0.002373  3.943707  0.003  0.019965  0.031826  0.00619  3.900176  0.005
C  C30  1  0.71892061  0.16026001  0.98914687  1  -0.063349  -0.009777  3.65419  -0.01  -0.079746  -0.003932  3.908436  -0.005  -0.082827  -0.003872  3.924163  -0.004  -0.063645  -0.081679  0.001144  3.900972  0.0
C  C31  1  0.28112355  0.83970813  0.01085966  1  -0.063273  -0.009769  3.65436  -0.01  -0.079779  -0.003937  3.908576  -0.005  -0.082882  -0.00387  3.924322  -0.004  -0.063738  -0.081611  0.001071  3.900985  0.0
C  C32  1  0.82268377  0.24331189  0.02196944  1  0.140343  0.008203  3.651209  0.008  0.10516  0.001107  3.917181  0.002  0.113311  0.002406  3.933969  0.003  0.061269  0.101172  -0.001049  3.907733  -0.001
C  C33  1  0.17739060  0.75663484  0.97803761  1  0.140678  0.008195  3.650918  0.008  0.105579  0.001108  3.916929  0.002  0.113732  0.002404  3.933749  0.003  0.061665  0.101592  -0.001025  3.907322  -0.001
C  C34  1  0.71941323  0.15740229  0.60008560  1  -0.0407  0.011646  3.622355  0.012  -0.056841  0.005089  3.871168  0.006  -0.057099  0.004925  3.882959  0.006  -0.05371  -0.064102  0.009368  3.872364  0.008
C  C35  1  0.28055797  0.84261618  0.39991467  1  -0.04076  0.011638  3.622468  0.012  -0.056926  0.005084  3.871281  0.006  -0.057183  0.004919  3.883102  0.006  -0.053662  -0.064102  0.009287  3.872369  0.008
C  C36  1  0.80251419  0.26142139  0.54395542  1  0.158134  -0.01092  3.615375  -0.011  0.123076  -0.00256  3.874393  -0.003  0.131135  -0.003755  3.888998  -0.005  0.071899  0.115503  -0.001858  3.871143  -0.003
C  C37  1  0.19742896  0.73861892  0.45603888  1  0.157949  -0.010914  3.615937  -0.011  0.122972  -0.002557  3.874932  -0.003  0.131032  -0.003751  3.889545  -0.005  0.071995  0.115434  -0.001838  3.871568  -0.003
S  S38  1  0.18061075  0.58235231  0.74218237  1  1.307276  3.5e-05  5.375956  0.0  1.220978  2.8e-05  5.898624  0.0  1.268845  -4e-05  5.880995  0.0  0.644542  1.194326  0.001498  5.912988  0.0
S  S39  1  0.81931448  0.41768508  0.25781079  1  1.306414  3.7e-05  5.374611  0.0  1.220319  2.7e-05  5.897333  0.0  1.268183  -4e-05  5.879733  0.0  0.644357  1.193644  0.001475  5.911605  0.0
N  N40  1  0.07686047  0.51881360  0.66261733  1  -0.438254  -0.005427  2.837798  -0.004  -0.407904  -0.0015  3.122413  0.0  -0.419702  -0.002399  3.119975  -0.002  -0.302214  -0.421474  0.015755  3.14107  0.017
N  N41  1  0.92312630  0.48124548  0.33739993  1  -0.437744  -0.005407  2.837736  -0.004  -0.40751  -0.001514  3.122049  -0.001  -0.419323  -0.002388  3.119641  -0.001  -0.301816  -0.420928  0.015512  3.140645  0.016
N  N42  1  0.10860494  0.48605892  0.84167222  1  -0.453918  0.003604  2.828841  0.002  -0.425401  0.001863  3.113683  0.001  -0.439919  0.00176  3.112713  0.001  -0.304751  -0.424712  0.017129  3.122689  0.016
N  N43  1  0.89144839  0.51393440  0.15830526  1  -0.453517  0.00358  2.828375  0.002  -0.425291  0.001847  3.113353  0.001  -0.439816  0.001752  3.112402  0.001  -0.304595  -0.424472  0.016885  3.122233  0.016
N  N44  1  0.91411664  0.32264954  0.96490018  1  -0.287125  -0.075672  3.372485  -0.09  -0.235426  -0.054778  3.654566  -0.07  -0.262147  -0.047582  3.679957  -0.063  -0.339009  -0.222282  -0.0548  3.638805  -0.068
N  N45  1  0.08593725  0.67731058  0.03509874  1  -0.287329  -0.075659  3.372449  -0.09  -0.235849  -0.054781  3.654705  -0.07  -0.262603  -0.047582  3.680124  -0.063  -0.339127  -0.222664  -0.054834  3.63892  -0.068
N  N46  1  0.88451366  0.35074070  0.57984263  1  -0.267182  0.076314  3.364739  0.092  -0.213949  0.055258  3.641865  0.071  -0.237342  0.049358  3.664338  0.066  -0.329377  -0.200699  0.052336  3.629109  0.06
N  N47  1  0.11543604  0.64930153  0.42014539  1  -0.267137  0.076311  3.365127  0.092  -0.213874  0.055253  3.642308  0.071  -0.237271  0.049354  3.664787  0.066  -0.329427  -0.200602  0.052261  3.629537  0.06
Cl  Cl48  1  0.72655393  0.78054046  0.47451579  1  -0.527997  0.144265  0.820583  0.159  -0.538905  0.09567  1.04895  0.111  -0.577171  0.079224  1.034921  0.095  -0.326151  -0.476203  0.086242  1.041345  0.088
Cl  Cl49  1  0.27338780  0.21951059  0.52546891  1  -0.528018  0.14428  0.820683  0.159  -0.538935  0.095707  1.049057  0.111  -0.577189  0.079231  1.035017  0.095  -0.32618  -0.476212  0.086285  1.041437  0.088
Cl  Cl50  1  0.70825190  0.74744717  0.91103870  1  -0.532501  -0.138792  0.834847  -0.151  -0.538266  -0.091197  1.068359  -0.105  -0.573083  -0.073581  1.052065  -0.088  -0.334042  -0.51421  -0.095758  1.077943  -0.109
Cl  Cl51  1  0.29178946  0.25249998  0.08897945  1  -0.532517  -0.138788  0.834854  -0.151  -0.538277  -0.091195  1.068363  -0.105  -0.573082  -0.073578  1.052062  -0.088  -0.33411  -0.514258  -0.095716  1.077965  -0.109
O  O52  1  0.09073390  0.78961172  0.71956472  1  -0.544301  -0.000306  1.90882  0.0  -0.496344  -0.000147  2.131802  0.0  -0.519307  -0.000198  2.124134  0.0  -0.275412  -0.487097  0.003126  2.138306  0.004
O  O53  1  0.90924657  0.21038034  0.28046361  1  -0.544096  -0.000307  1.908361  0.0  -0.496195  -0.000151  2.131324  0.0  -0.519159  -0.000198  2.123666  0.0  -0.275354  -0.486875  0.003057  2.137781  0.004
O  O54  1  0.38620754  0.47875521  0.75208945  1  -0.549975  -6.2e-05  1.939459  0.0  -0.500903  4.2e-05  2.166247  0.0  -0.524874  -6e-06  2.159205  0.0  -0.274269  -0.489387  0.00361  2.172265  0.004
O  O55  1  0.61376411  0.52131099  0.24788742  1  -0.549613  -6.2e-05  1.940714  0.0  -0.500661  3.9e-05  2.167604  0.0  -0.524615  -6e-06  2.160573  0.0  -0.27412  -0.48908  0.003533  2.173567  0.004
