# generated using pymatgen
data_SmH16C24N2O7
_symmetry_space_group_name_H-M   'P 1'
_cell_length_a   10.21430396
_cell_length_b   10.84162651
_cell_length_c   11.38465744
_cell_angle_alpha   107.63956888
_cell_angle_beta   92.85303527
_cell_angle_gamma   111.82516411
_symmetry_Int_Tables_number   1
_chemical_formula_structural   SmH16C24N2O7
_chemical_formula_sum   'Sm2 H32 C48 N4 O14'
_cell_volume   1096.37726335
_cell_formula_units_Z   2
loop_
 _symmetry_equiv_pos_site_id
 _symmetry_equiv_pos_as_xyz
  1  'x, y, z'
loop_
 _atom_site_type_symbol
 _atom_site_label
 _atom_site_symmetry_multiplicity
 _atom_site_fract_x
 _atom_site_fract_y
 _atom_site_fract_z
 _atom_site_occupancy
 _atom_site_hle17_bader_spin_density
 _atom_site_hle17_ddec_charge
 _atom_site_hle17_ddec_spin_density
 _atom_site_hle17_ddec_sum_bond_order
 _atom_site_hle17_magmom
 _atom_site_hse06_10hf_bader_spin_density
 _atom_site_hse06_10hf_ddec_charge
 _atom_site_hse06_10hf_ddec_spin_density
 _atom_site_hse06_10hf_ddec_sum_bond_order
 _atom_site_hse06_10hf_magmom
 _atom_site_hse06_bader_spin_density
 _atom_site_hse06_ddec_charge
 _atom_site_hse06_ddec_spin_density
 _atom_site_hse06_ddec_sum_bond_order
 _atom_site_hse06_magmom
 _atom_site_pbe_bader_spin_density
 _atom_site_pbe_cm5_charge
 _atom_site_pbe_ddec_charge
 _atom_site_pbe_ddec_spin_density
 _atom_site_pbe_ddec_sum_bond_order
 _atom_site_pbe_magmom
Sm  Sm0  1  0.58611461  0.49613762  0.32608885  1  0  2.25677  0  1.685875  0  0  2.083246  0  2.177686  0  0  2.196498  0  2.005661  0  0  1.511008  2.048433  0  2.212404  0
Sm  Sm1  1  0.41388306  0.50386071  0.67391197  1  0  2.256753  0  1.685909  0  0  2.083159  0  2.177848  0  0  2.196471  0  2.00571  0  0  1.511013  2.048345  0  2.212567  0
H  H2  1  0.39828447  0.42983665  0.06650173  1  0  0.440484  0  0.854437  0  0  0.412926  0  0.91264  0  0  0.423213  0  0.897478  0  0  0.302513  0.405738  0  0.92335  0
H  H3  1  0.60171503  0.57016379  0.93349802  1  0  0.440466  0  0.854455  0  0  0.41291  0  0.912656  0  0  0.423197  0  0.897492  0  0  0.302507  0.405723  0  0.923366  0
H  H4  1  0.53421998  0.57796684  0.11088971  1  0  0.408641  0  0.90646  0  0  0.37666  0  0.973284  0  0  0.38804  0  0.956827  0  0  0.289608  0.368297  0  0.985562  0
H  H5  1  0.46578096  0.42203465  0.88911127  1  0  0.408637  0  0.906464  0  0  0.376651  0  0.973291  0  0  0.388031  0  0.956836  0  0  0.2896  0.368289  0  0.985568  0
H  H6  1  0.97392819  0.86354408  0.39570668  1  0  0.098581  0  0.970788  0  0  0.107013  0  1.035361  0  0  0.110037  0  1.034021  0  0  0.104744  0.104759  0  1.036354  0
H  H7  1  0.02607419  0.13645848  0.60429729  1  0  0.098632  0  0.970783  0  0  0.107049  0  1.035358  0  0  0.110074  0  1.034019  0  0  0.104748  0.104793  0  1.036349  0
H  H8  1  0.84754703  0.93919632  0.06782899  1  0  0.097477  0  0.951258  0  0  0.106859  0  1.01496  0  0  0.110432  0  1.012531  0  0  0.102605  0.104267  0  1.016805  0
H  H9  1  0.15245101  0.06080520  0.93217540  1  0  0.097468  0  0.951287  0  0  0.10685  0  1.014987  0  0  0.110419  0  1.012563  0  0  0.102596  0.104258  0  1.016833  0
H  H10  1  0.62079447  0.08169406  0.33648776  1  0  0.097545  0  0.950907  0  0  0.108109  0  1.010312  0  0  0.112376  0  1.006873  0  0  0.103556  0.105052  0  1.012831  0
H  H11  1  0.37920602  0.91830637  0.66351290  1  0  0.097548  0  0.950897  0  0  0.108109  0  1.010307  0  0  0.112375  0  1.006869  0  0  0.103557  0.105052  0  1.012828  0
H  H12  1  0.42607687  0.16310595  0.65989582  1  0  0.108308  0  0.958168  0  0  0.115091  0  1.022332  0  0  0.118621  0  1.020744  0  0  0.109158  0.112441  0  1.023797  0
H  H13  1  0.57392460  0.83689448  0.34010487  1  0  0.108329  0  0.95815  0  0  0.115109  0  1.022309  0  0  0.118638  0  1.020722  0  0  0.109176  0.112458  0  1.023773  0
H  H14  1  0.18681924  0.09647990  0.46552619  1  0  0.105653  0  0.951363  0  0  0.113197  0  1.01666  0  0  0.116283  0  1.015645  0  0  0.107952  0.110895  0  1.017513  0
H  H15  1  0.81318261  0.90352372  0.53447808  1  0  0.105621  0  0.951329  0  0  0.113175  0  1.016619  0  0  0.116268  0  1.015606  0  0  0.107945  0.110908  0  1.017435  0
H  H16  1  0.06439279  0.16791974  0.13292315  1  0  0.095379  0  0.973608  0  0  0.103181  0  1.040808  0  0  0.106129  0  1.040218  0  0  0.099152  0.100888  0  1.041565  0
H  H17  1  0.93560381  0.83208072  0.86707913  1  0  0.095334  0  0.973656  0  0  0.10315  0  1.040843  0  0  0.106092  0  1.040259  0  0  0.099135  0.100857  0  1.041601  0
H  H18  1  0.39594090  0.20042236  0.07037972  1  0  0.086063  0  0.944583  0  0  0.091266  0  1.013797  0  0  0.094834  0  1.009575  0  0  0.123126  0.088411  0  1.017492  0
H  H19  1  0.60405836  0.79957277  0.92961848  1  0  0.086047  0  0.944607  0  0  0.091253  0  1.013819  0  0  0.094827  0  1.00959  0  0  0.123126  0.088398  0  1.017512  0
H  H20  1  0.41493751  0.04536910  0.86466969  1  0  0.102803  0  0.945812  0  0  0.11499  0  1.001898  0  0  0.11752  0  1.001978  0  0  0.109734  0.113075  0  1.002149  0
H  H21  1  0.58506306  0.95462921  0.13532859  1  0  0.102832  0  0.945812  0  0  0.115006  0  1.001904  0  0  0.117534  0  1.001985  0  0  0.109736  0.113089  0  1.002155  0
H  H22  1  0.65950277  0.08080148  0.81172768  1  0  0.104196  0  0.932059  0  0  0.116553  0  0.988376  0  0  0.119005  0  0.987558  0  0  0.112299  0.115041  0  0.988544  0
H  H23  1  0.34049999  0.91920211  0.18827046  1  0  0.104174  0  0.93208  0  0  0.116526  0  0.988399  0  0  0.118976  0  0.987585  0  0  0.112306  0.115014  0  0.988565  0
H  H24  1  0.92653644  0.21108375  0.87946543  1  0  0.094759  0  0.976616  0  0  0.104756  0  1.039383  0  0  0.106394  0  1.040957  0  0  0.100959  0.10356  0  1.038395  0
H  H25  1  0.07346537  0.78891986  0.12053532  1  0  0.09476  0  0.976594  0  0  0.104751  0  1.039372  0  0  0.106389  0  1.040944  0  0  0.100938  0.103556  0  1.038382  0
H  H26  1  0.13706259  0.38522753  0.04416502  1  0  0.111016  0  0.945452  0  0  0.120754  0  1.006348  0  0  0.12398  0  1.004845  0  0  0.108858  0.118482  0  1.007342  0
H  H27  1  0.86293824  0.61477609  0.95583569  1  0  0.111009  0  0.945462  0  0  0.120748  0  1.006355  0  0  0.123974  0  1.004853  0  0  0.108851  0.118477  0  1.007348  0
H  H28  1  0.23655933  0.55983859  0.26446369  1  0  0.126234  0  0.934839  0  0  0.13646  0  0.992788  0  0  0.139871  0  0.990422  0  0  0.118975  0.133955  0  0.994495  0
H  H29  1  0.76343999  0.44016610  0.73553816  1  0  0.126283  0  0.934746  0  0  0.13648  0  0.992723  0  0  0.139894  0  0.990351  0  0  0.118986  0.133965  0  0.994453  0
H  H30  1  0.18617937  0.68824216  0.46968140  1  0  0.106626  0  0.967358  0  0  0.117853  0  1.024135  0  0  0.120351  0  1.024302  0  0  0.108716  0.116217  0  1.023901  0
H  H31  1  0.81381799  0.31176254  0.53031950  1  0  0.106671  0  0.967367  0  0  0.117876  0  1.024165  0  0  0.120375  0  1.024329  0  0  0.108748  0.11624  0  1.023929  0
H  H32  1  0.93253077  0.64651468  0.49180323  1  0  0.0796  0  0.94802  0  0  0.087152  0  1.012654  0  0  0.089463  0  1.011349  0  0  0.120258  0.085404  0  1.014123  0
H  H33  1  0.06746623  0.35348683  0.50819497  1  0  0.079579  0  0.948008  0  0  0.087125  0  1.012648  0  0  0.089436  0  1.011345  0  0  0.120224  0.085378  0  1.014115  0
C  C34  1  0.76596036  0.75142635  0.19401200  1  0  0.68156  0  3.886258  0  0  0.633185  0  4.179038  0  0  0.66785  0  4.170883  0  0  0.221385  0.609988  0  4.184433  0
C  C35  1  0.23403886  0.24857092  0.80599208  1  0  0.681285  0  3.886538  0  0  0.632966  0  4.179261  0  0  0.667615  0  4.171115  0  0  0.221274  0.609769  0  4.184657  0
C  C36  1  0.89632733  0.88846368  0.22928039  1  0  -0.077016  0  3.755857  0  0  -0.055789  0  3.988935  0  0  -0.062215  0  4.009546  0  0  -0.022166  -0.051477  0  3.974807  0
C  C37  1  0.10367319  0.11153676  0.77072290  1  0  -0.076904  0  3.755908  0  0  -0.055742  0  3.989016  0  0  -0.062114  0  4.009567  0  0  -0.02216  -0.051427  0  3.974891  0
C  C38  1  0.99397528  0.93203829  0.33984090  1  0  -0.070316  0  3.742543  0  0  -0.091142  0  3.986912  0  0  -0.091003  0  4.005833  0  0  -0.085262  -0.091277  0  3.974014  0
C  C39  1  0.00602602  0.06796639  0.66016278  1  0  -0.070333  0  3.742515  0  0  -0.091118  0  3.98688  0  0  -0.090999  0  4.005792  0  0  -0.08519  -0.091254  0  3.973992  0
C  C40  1  0.92238900  0.97409008  0.15470046  1  0  -0.076441  0  3.746313  0  0  -0.099401  0  3.996654  0  0  -0.099632  0  4.016257  0  0  -0.085502  -0.099205  0  3.983571  0
C  C41  1  0.07760958  0.02591037  0.84530453  1  0  -0.076532  0  3.746225  0  0  -0.099481  0  3.996597  0  0  -0.099723  0  4.016183  0  0  -0.085524  -0.099285  0  3.983518  0
C  C42  1  0.55121725  0.27945982  0.49543534  1  0  0.70115  0  3.897438  0  0  0.654815  0  4.18981  0  0  0.689561  0  4.183417  0  0  0.227302  0.631408  0  4.196527  0
C  C43  1  0.44878096  0.72053529  0.50455579  1  0  0.701334  0  3.897596  0  0  0.654963  0  4.190016  0  0  0.689711  0  4.183618  0  0  0.227414  0.631554  0  4.196734  0
C  C44  1  0.52539715  0.13482482  0.49752710  1  0  -0.062186  0  3.743654  0  0  -0.040087  0  3.972954  0  0  -0.046172  0  3.994019  0  0  -0.013331  -0.036031  0  3.957915  0
C  C45  1  0.47460147  0.86517350  0.50247200  1  0  -0.062268  0  3.743675  0  0  -0.040165  0  3.972999  0  0  -0.046252  0  3.994065  0  0  -0.013354  -0.03611  0  3.95796  0
C  C46  1  0.56771156  0.04400543  0.40725149  1  0  -0.082725  0  3.756711  0  0  -0.105622  0  4.006011  0  0  -0.106543  0  4.024898  0  0  -0.085943  -0.104742  0  3.992864  0
C  C47  1  0.43228902  0.95599288  0.59274767  1  0  -0.082685  0  3.756697  0  0  -0.105577  0  4.005999  0  0  -0.106497  0  4.024887  0  0  -0.085922  -0.104696  0  3.992854  0
C  C48  1  0.45766673  0.09040264  0.59058900  1  0  -0.070088  0  3.726665  0  0  -0.091064  0  3.974287  0  0  -0.092059  0  3.994139  0  0  -0.080517  -0.090327  0  3.960509  0
C  C49  1  0.54233431  0.90959673  0.40941225  1  0  -0.070053  0  3.726696  0  0  -0.091018  0  3.974309  0  0  -0.092013  0  3.994164  0  0  -0.080507  -0.090281  0  3.96053  0
C  C50  1  0.26693718  0.28575941  0.34742061  1  0  0.710523  0  3.870743  0  0  0.664559  0  4.160328  0  0  0.699946  0  4.152873  0  0  0.231812  0.640646  0  4.167947  0
C  C51  1  0.73306381  0.71423995  0.65257624  1  0  0.710385  0  3.871167  0  0  0.664427  0  4.160752  0  0  0.699806  0  4.153316  0  0  0.231793  0.640511  0  4.168376  0
C  C52  1  0.13773471  0.14718799  0.30416791  1  0  -0.045955  0  3.72833  0  0  -0.024705  0  3.957888  0  0  -0.028947  0  3.976547  0  0  -0.00907  -0.021419  0  3.943909  0
C  C53  1  0.86226533  0.85281138  0.69583154  1  0  -0.045972  0  3.728175  0  0  -0.024767  0  3.957816  0  0  -0.029005  0  3.976475  0  0  -0.009097  -0.021468  0  3.943825  0
C  C54  1  0.11266119  0.06106729  0.37811442  1  0  -0.088759  0  3.735807  0  0  -0.10902  0  3.982467  0  0  -0.11085  0  4.002084  0  0  -0.084968  -0.107457  0  3.968455  0
C  C55  1  0.88734226  0.93893313  0.62188811  1  0  -0.088737  0  3.7357  0  0  -0.108995  0  3.982368  0  0  -0.110836  0  4.001996  0  0  -0.084992  -0.107461  0  3.968334  0
C  C56  1  0.04338920  0.10166413  0.19103999  1  0  -0.088079  0  3.743325  0  0  -0.108667  0  3.988979  0  0  -0.110373  0  4.009003  0  0  -0.089881  -0.107361  0  3.975211  0
C  C57  1  0.95661044  0.89833419  0.80896266  1  0  -0.08797  0  3.743034  0  0  -0.108554  0  3.988691  0  0  -0.110257  0  4.008715  0  0  -0.089855  -0.107252  0  3.974927  0
C  C58  1  0.50041272  0.21098147  0.04571826  1  0  0.162633  0  3.706682  0  0  0.130888  0  3.969781  0  0  0.139299  0  3.98761  0  0  0.063887  0.125023  0  3.960095  0
C  C59  1  0.49958700  0.78901472  0.95428202  1  0  0.162665  0  3.706815  0  0  0.130909  0  3.969917  0  0  0.139314  0  3.987751  0  0  0.0639  0.125044  0  3.960234  0
C  C60  1  0.51221135  0.12484383  0.93002597  1  0  -0.110269  0  3.737187  0  0  -0.126396  0  3.995668  0  0  -0.13335  0  4.017652  0  0  -0.081312  -0.121586  0  3.980196  0
C  C61  1  0.48779020  0.87515447  0.06997235  1  0  -0.110316  0  3.737206  0  0  -0.12642  0  3.99569  0  0  -0.133371  0  4.017673  0  0  -0.081312  -0.121609  0  3.980218  0
C  C62  1  0.64663252  0.14446294  0.90146872  1  0  -0.043731  0  3.679533  0  0  -0.065903  0  3.920926  0  0  -0.063613  0  3.938984  0  0  -0.058655  -0.066807  0  3.907767  0
C  C63  1  0.35336763  0.85553431  0.09853100  1  0  -0.043666  0  3.679631  0  0  -0.065858  0  3.921031  0  0  -0.063558  0  3.939095  0  0  -0.058668  -0.066761  0  3.907869  0
C  C64  1  0.76946425  0.24785648  0.99075864  1  0  0.024719  0  3.792836  0  0  0.04452  0  4.016063  0  0  0.041993  0  4.04019  0  0  -0.00177  0.046103  0  3.999919  0
C  C65  1  0.23053669  0.75214501  0.00924235  1  0  0.024593  0  3.792971  0  0  0.044443  0  4.016142  0  0  0.04189  0  4.040304  0  0  -0.001808  0.046027  0  3.999998  0
C  C66  1  0.74730936  0.32798813  0.10639343  1  0  0.147129  0  3.747098  0  0  0.142807  0  3.982761  0  0  0.147048  0  4.00631  0  0  0.12427  0.139234  0  3.96952  0
C  C67  1  0.25269070  0.67201125  0.89360778  1  0  0.147191  0  3.747121  0  0  0.142856  0  3.982759  0  0  0.147106  0  4.006315  0  0  0.124309  0.139282  0  3.969521  0
C  C68  1  0.91248055  0.27254528  0.96956074  1  0  -0.102861  0  3.755621  0  0  -0.125001  0  4.00753  0  0  -0.128497  0  4.031554  0  0  -0.085784  -0.122546  0  3.991145  0
C  C69  1  0.08751983  0.72745728  0.03043966  1  0  -0.102808  0  3.755529  0  0  -0.124961  0  4.007432  0  0  -0.128447  0  4.03146  0  0  -0.085746  -0.122504  0  3.991045  0
C  C70  1  0.02844669  0.36875081  0.06043417  1  0  -0.097985  0  3.737206  0  0  -0.12126  0  3.996249  0  0  -0.124135  0  4.018185  0  0  -0.082333  -0.11901  0  3.980686  0
C  C71  1  0.97155282  0.63124963  0.93956557  1  0  -0.097997  0  3.737184  0  0  -0.12127  0  3.996228  0  0  -0.124146  0  4.018161  0  0  -0.082337  -0.119021  0  3.980666  0
C  C72  1  0.01019318  0.44782909  0.17974210  1  0  0.023477  0  3.786619  0  0  0.038332  0  4.019881  0  0  0.035661  0  4.044795  0  0  -0.0005  0.04054  0  4.002012  0
C  C73  1  0.98980775  0.55217240  0.82025889  1  0  0.023436  0  3.786626  0  0  0.038293  0  4.019874  0  0  0.035623  0  4.044788  0  0  -0.000495  0.040502  0  4.002008  0
C  C74  1  0.86951156  0.42896629  0.20287736  1  0  0.138459  0  3.748548  0  0  0.136058  0  3.983926  0  0  0.139672  0  4.007914  0  0  0.122582  0.133532  0  3.969596  0
C  C75  1  0.13048805  0.57103202  0.79712265  1  0  0.138532  0  3.748546  0  0  0.136129  0  3.983918  0  0  0.139743  0  4.007907  0  0  0.122615  0.133603  0  3.969591  0
C  C76  1  0.12712780  0.54402456  0.27797108  1  0  -0.036965  0  3.640434  0  0  -0.060288  0  3.883296  0  0  -0.05807  0  3.900754  0  0  -0.057215  -0.06105  0  3.870463  0
C  C77  1  0.87287030  0.45597483  0.72203006  1  0  -0.036961  0  3.640436  0  0  -0.060252  0  3.883283  0  0  -0.058033  0  3.900742  0  0  -0.057208  -0.061013  0  3.870453  0
C  C78  1  0.09993743  0.61480745  0.39081372  1  0  -0.115297  0  3.719719  0  0  -0.127753  0  3.970244  0  0  -0.134465  0  3.991218  0  0  -0.080601  -0.122866  0  3.95521  0
C  C79  1  0.90006145  0.38519618  0.60918692  1  0  -0.11538  0  3.71989  0  0  -0.127829  0  3.970412  0  0  -0.134542  0  3.991385  0  0  -0.080648  -0.122941  0  3.955378  0
C  C80  1  0.95749417  0.59085962  0.40460669  1  0  0.153821  0  3.713906  0  0  0.123882  0  3.975259  0  0  0.131467  0  3.993575  0  0  0.061879  0.118648  0  3.965149  0
C  C81  1  0.04250533  0.40914082  0.59539218  1  0  0.153857  0  3.713849  0  0  0.123934  0  3.975174  0  0  0.131518  0  3.993493  0  0  0.061901  0.1187  0  3.965062  0
N  N82  1  0.61379213  0.31086694  0.13075191  1  0  -0.435904  0  3.232199  0  0  -0.384675  0  3.499819  0  0  -0.406367  0  3.517319  0  0  -0.375501  -0.374807  0  3.489349  0
N  N83  1  0.38620705  0.68913032  0.86924866  1  0  -0.435923  0  3.23232  0  0  -0.384675  0  3.499925  0  0  -0.406376  0  3.517428  0  0  -0.375524  -0.374806  0  3.489457  0
N  N84  1  0.84514668  0.50103410  0.31394953  1  0  -0.417885  0  3.237161  0  0  -0.367975  0  3.503491  0  0  -0.388811  0  3.522275  0  0  -0.367571  -0.35875  0  3.492447  0
N  N85  1  0.15485239  0.49896528  0.68605077  1  0  -0.417915  0  3.237162  0  0  -0.367999  0  3.503491  0  0  -0.388843  0  3.522276  0  0  -0.36757  -0.358771  0  3.492448  0
O  O86  1  0.68874802  0.70096604  0.08556717  1  0  -0.657115  0  1.990801  0  0  -0.597607  0  2.213203  0  0  -0.622579  0  2.202464  0  0  -0.312769  -0.579502  0  2.219808  0
O  O87  1  0.31125211  0.29903335  0.91444108  1  0  -0.65699  0  1.990564  0  0  -0.597496  0  2.212941  0  0  -0.622472  0  2.202216  0  0  -0.312698  -0.57939  0  2.219542  0
O  O88  1  0.73912342  0.69464531  0.27810605  1  0  -0.742965  0  2.06652  0  0  -0.690223  0  2.330524  0  0  -0.724564  0  2.317021  0  0  -0.406221  -0.67233  0  2.337194  0
O  O89  1  0.26087778  0.30535195  0.72189986  1  0  -0.742848  0  2.0667  0  0  -0.69012  0  2.330703  0  0  -0.724469  0  2.317203  0  0  -0.406191  -0.672229  0  2.337372  0
O  O90  1  0.58668288  0.30797571  0.39831107  1  0  -0.730016  0  2.034133  0  0  -0.686262  0  2.290886  0  0  -0.718852  0  2.278408  0  0  -0.386916  -0.669447  0  2.29769  0
O  O91  1  0.41331614  0.69201197  0.60167706  1  0  -0.730064  0  2.034354  0  0  -0.686287  0  2.291112  0  0  -0.718884  0  2.278627  0  0  -0.38694  -0.669472  0  2.297917  0
O  O92  1  0.53638692  0.36490975  0.59306871  1  0  -0.751236  0  2.124252  0  0  -0.698646  0  2.393434  0  0  -0.733516  0  2.380391  0  0  -0.416881  -0.681153  0  2.401892  0
O  O93  1  0.46360809  0.63508961  0.40691738  1  0  -0.751317  0  2.124317  0  0  -0.698722  0  2.393502  0  0  -0.733582  0  2.380459  0  0  -0.416959  -0.681231  0  2.401963  0
O  O94  1  0.34132880  0.31765573  0.26652803  1  0  -0.694662  0  1.991381  0  0  -0.641538  0  2.237115  0  0  -0.674548  0  2.224434  0  0  -0.379886  -0.624254  0  2.244578  0
O  O95  1  0.65866586  0.68234260  0.73346565  1  0  -0.694621  0  1.991468  0  0  -0.641489  0  2.237196  0  0  -0.674505  0  2.22452  0  0  -0.379922  -0.624205  0  2.24466  0
O  O96  1  0.29491575  0.36103018  0.46325173  1  0  -0.762018  0  2.071632  0  0  -0.711098  0  2.338594  0  0  -0.746656  0  2.324693  0  0  -0.392137  -0.694305  0  2.348336  0
O  O97  1  0.70508786  0.63897553  0.53674443  1  0  -0.76192  0  2.071925  0  0  -0.710996  0  2.338854  0  0  -0.746544  0  2.32497  0  0  -0.392068  -0.694206  0  2.348601  0
O  O98  1  0.46006175  0.51030057  0.14109334  1  0  -0.903186  0  1.873098  0  0  -0.855031  0  2.060868  0  0  -0.87978  0  2.023663  0  0  -0.643679  -0.842373  0  2.084522  0
O  O99  1  0.53993874  0.48969986  0.85890644  1  0  -0.903185  0  1.873144  0  0  -0.855017  0  2.060919  0  0  -0.879772  0  2.023714  0  0  -0.643668  -0.842358  0  2.084572  0
