# generated using pymatgen
data_LaH19C27O8
_symmetry_space_group_name_H-M   'P 1'
_cell_length_a   13.90497412
_cell_length_b   14.59439007
_cell_length_c   22.49354254
_cell_angle_alpha   108.91072843
_cell_angle_beta   100.71198139
_cell_angle_gamma   90.01310269
_symmetry_Int_Tables_number   1
_chemical_formula_structural   LaH19C27O8
_chemical_formula_sum   'La4 H76 C108 O32'
_cell_volume   4234.09727177
_cell_formula_units_Z   4
loop_
 _symmetry_equiv_pos_site_id
 _symmetry_equiv_pos_as_xyz
  1  'x, y, z'
loop_
 _atom_site_type_symbol
 _atom_site_label
 _atom_site_symmetry_multiplicity
 _atom_site_fract_x
 _atom_site_fract_y
 _atom_site_fract_z
 _atom_site_occupancy
 _atom_site_pbe_bader_charge
 _atom_site_pbe_bader_spin_density
 _atom_site_pbe_cm5_charge
 _atom_site_pbe_ddec_charge
 _atom_site_pbe_ddec_spin_density
 _atom_site_pbe_ddec_sum_bond_order
 _atom_site_pbe_magmom
La  La0  1  0.46264559  0.41767614  0.40524385  1  2.23536  0  1.404123  1.856739  0  2.438133  0
La  La1  1  0.03723434  0.01232441  0.59476087  1  2.234519  0  1.403671  1.85712  0  2.436848  0
La  La2  1  0.53735173  0.58232266  0.59475446  1  2.23546  0  1.404129  1.856841  0  2.438237  0
La  La3  1  0.96276615  0.98767412  0.40524080  1  2.234674  0  1.403667  1.857144  0  2.436781  0
H  H4  1  0.80228489  0.72926989  0.53636256  1  0.06922  0  0.111103  0.115367  0  1.00671  0
H  H5  1  0.69803528  0.19336268  0.46367258  1  0.120546  0  0.111353  0.115635  0  1.006576  0
H  H6  1  0.19771029  0.27073211  0.46363966  1  0.069147  0  0.111057  0.115329  0  1.006903  0
H  H7  1  0.30197184  0.80663737  0.53633134  1  0.120358  0  0.111343  0.115666  0  1.006358  0
H  H8  1  0.92316612  0.72925383  0.37371668  1  0.108477  0  0.115051  0.121966  0  1.025215  0
H  H9  1  0.57689025  0.35581877  0.62618345  1  0.114489  0  0.114685  0.121076  0  1.02524  0
H  H10  1  0.07683368  0.27074182  0.62628284  1  0.108494  0  0.115027  0.12193  0  1.025231  0
H  H11  1  0.42310708  0.64418137  0.37381620  1  0.114477  0  0.114695  0.121122  0  1.025228  0
H  H12  1  0.70122349  0.50820773  0.35451685  1  0.092763  0  0.110853  0.112825  0  1.024365  0
H  H13  1  0.79898231  0.15429634  0.64564291  1  0.10907  0  0.111012  0.113277  0  1.024205  0
H  H14  1  0.29877631  0.49179060  0.64548534  1  0.092529  0  0.110874  0.112841  0  1.024393  0
H  H15  1  0.20101672  0.84570470  0.35436126  1  0.109199  0  0.11102  0.113344  0  1.024206  0
H  H16  1  0.86706868  0.69451332  0.27093420  1  0.084117  0  0.09552  0.095327  0  1.060696  0
H  H17  1  0.63283833  0.42414694  0.72913588  1  0.080815  0  0.095101  0.095394  0  1.060645  0
H  H18  1  0.13292961  0.30548496  0.72906722  1  0.084087  0  0.095553  0.095339  0  1.060636  0
H  H19  1  0.36716274  0.57585204  0.27086407  1  0.080825  0  0.0951  0.095382  0  1.060655  0
H  H20  1  0.88581584  0.61330106  0.16152077  1  0.063263  0  0.096428  0.093552  0  1.041645  0
H  H21  1  0.61401111  0.45221197  0.83852699  1  0.059778  0  0.096759  0.093525  0  1.042959  0
H  H22  1  0.11418158  0.38669973  0.83848098  1  0.06301  0  0.096392  0.093483  0  1.041722  0
H  H23  1  0.38599061  0.54779001  0.16147450  1  0.059773  0  0.096786  0.09356  0  1.043074  0
H  H24  1  0.80202434  0.33779890  0.17632521  1  0.075766  0  0.098979  0.096002  0  1.019421  0
H  H25  1  0.69797812  0.16203627  0.82379748  1  0.053609  0  0.099157  0.095537  0  1.021108  0
H  H26  1  0.19797743  0.66220073  0.82367466  1  0.075788  0  0.098955  0.096012  0  1.019381  0
H  H27  1  0.30202287  0.83796429  0.17620259  1  0.053592  0  0.099146  0.09542  0  1.021059  0
H  H28  1  0.78296486  0.41918768  0.28589120  1  0.05506  0  0.103059  0.103214  0  1.001541  0
H  H29  1  0.71710937  0.13398870  0.71426252  1  0.042901  0  0.103016  0.102885  0  1.00233  0
H  H30  1  0.21703499  0.58080696  0.71410804  1  0.055119  0  0.103089  0.103263  0  1.001651  0
H  H31  1  0.28289014  0.86601169  0.28573738  1  0.042892  0  0.103026  0.102885  0  1.002323  0
H  H32  1  0.87292038  0.54711103  0.06667175  1  0.060535  0  0.100485  0.100122  0  1.012345  0
H  H33  1  0.62709608  0.48074460  0.93347070  1  0.046536  0  0.100403  0.100214  0  1.012817  0
H  H34  1  0.12707987  0.45289033  0.93332913  1  0.060566  0  0.100501  0.100172  0  1.012325  0
H  H35  1  0.37290559  0.51925616  0.06652885  1  0.046573  0  0.1004  0.100211  0  1.012853  0
H  H36  1  0.90365346  0.46453039  0.96083458  1  0.0533  0  0.099703  0.096852  0  1.020775  0
H  H37  1  0.59645515  0.50377824  0.03931733  1  0.043036  0  0.099823  0.09723  0  1.021206  0
H  H38  1  0.09634597  0.53547247  0.03916634  1  0.053233  0  0.099682  0.096807  0  1.020787  0
H  H39  1  0.40354217  0.49622101  0.96068144  1  0.043153  0  0.09983  0.097259  0  1.021221  0
H  H40  1  0.88836267  0.19045433  0.99452478  1  0.00636  0  0.098019  0.092702  0  1.021441  0
H  H41  1  0.61168294  0.19602855  0.00554530  1  0.022125  0  0.098153  0.093214  0  1.021641  0
H  H42  1  0.11164110  0.80954782  0.00547470  1  0.006364  0  0.098007  0.092699  0  1.021413  0
H  H43  1  0.38831648  0.80397074  0.99445207  1  0.022491  0  0.098156  0.093218  0  1.021661  0
H  H44  1  0.86210176  0.27348872  0.10116063  1  0.046618  0  0.099518  0.0965  0  1.016165  0
H  H45  1  0.63790938  0.17264070  0.89889571  1  0.052738  0  0.099173  0.096383  0  1.015015  0
H  H46  1  0.13790146  0.72651063  0.89883896  1  0.046632  0  0.099498  0.096454  0  1.016164  0
H  H47  1  0.36209292  0.82736038  0.10110272  1  0.052785  0  0.099193  0.096407  0  1.014945  0
H  H48  1  0.91292628  0.39394835  0.87098939  1  0.076478  0  0.101078  0.101029  0  1.014792  0
H  H49  1  0.58735611  0.52301224  0.12896940  1  0.077019  0  0.100981  0.100625  0  1.014617  0
H  H50  1  0.08707154  0.60605649  0.12901133  1  0.076514  0  0.101049  0.100957  0  1.014784  0
H  H51  1  0.41264126  0.47698644  0.87102952  1  0.076923  0  0.100977  0.100617  0  1.014638  0
H  H52  1  0.95281352  0.30762471  0.76560098  1  0.075623  0  0.105741  0.109681  0  0.999525  0
H  H53  1  0.54743733  0.54224927  0.23440013  1  0.08308  0  0.105526  0.109665  0  0.998421  0
H  H54  1  0.04718544  0.69238382  0.23439834  1  0.075779  0  0.105768  0.10969  0  0.999672  0
H  H55  1  0.45255803  0.45774466  0.76559696  1  0.082985  0  0.105482  0.109646  0  0.998338  0
H  H56  1  0.96025230  0.04076357  0.80713507  1  0.078273  0  0.105906  0.110981  0  0.995823  0
H  H57  1  0.53935769  0.23390474  0.19301954  1  0.080965  0  0.106031  0.111205  0  0.994159  0
H  H58  1  0.03974523  0.95924244  0.19286247  1  0.078202  0  0.105893  0.110969  0  0.995846  0
H  H59  1  0.46064270  0.76608913  0.80697603  1  0.080954  0  0.105999  0.111199  0  0.994232  0
H  H60  1  0.92383635  0.12551929  0.91380862  1  0.034235  0  0.097655  0.094953  0  1.023785  0
H  H61  1  0.57607931  0.21185333  0.08635971  1  0.070214  0  0.097945  0.09546  0  1.023564  0
H  H62  1  0.07615835  0.87448391  0.08618757  1  0.034225  0  0.097668  0.094915  0  1.023814  0
H  H63  1  0.42391782  0.78814462  0.91363486  1  0.070312  0  0.097857  0.095315  0  1.023618  0
H  H64  1  0.28907126  0.54118856  0.37056859  1  0.631906  0  0.315009  0.385022  0  0.931219  0
H  H65  1  0.21086457  0.17046897  0.62941028  1  0.616917  0  0.314989  0.385409  0  0.93048  0
H  H66  1  0.71092557  0.45880777  0.62943089  1  0.631858  0  0.315036  0.385019  0  0.931209  0
H  H67  1  0.78913066  0.82953246  0.37059211  1  0.617137  0  0.315027  0.385455  0  0.930417  0
H  H68  1  0.27387110  0.45032731  0.30953135  1  0.648992  0  0.341876  0.415902  0  0.857027  0
H  H69  1  0.22594169  0.14068753  0.69048210  1  0.648321  0  0.341427  0.414779  0  0.8581  0
H  H70  1  0.72612915  0.54967138  0.69046686  1  0.649051  0  0.341871  0.415901  0  0.857066  0
H  H71  1  0.77406415  0.85930429  0.30951651  1  0.648254  0  0.341445  0.414854  0  0.85802  0
H  H72  1  0.38334392  0.20116558  0.35013142  1  0.620208  0  0.342532  0.421963  0  0.854923  0
H  H73  1  0.11663507  0.85108793  0.64995484  1  0.63349  0  0.342255  0.421803  0  0.854726  0
H  H74  1  0.61666320  0.79883314  0.64987116  1  0.620271  0  0.342475  0.42186  0  0.854931  0
H  H75  1  0.88337182  0.14891674  0.35005006  1  0.633379  0  0.34225  0.421791  0  0.854703  0
H  H76  1  0.31804813  0.26989284  0.39340217  1  0.629727  0  0.314518  0.399021  0  0.915955  0
H  H77  1  0.18190293  0.87659236  0.60666316  1  0.633201  0  0.31482  0.399516  0  0.915291  0
H  H78  1  0.68195098  0.73010082  0.60659610  1  0.629715  0  0.314484  0.398978  0  0.916038  0
H  H79  1  0.81809553  0.12341235  0.39333599  1  0.633322  0  0.314779  0.399498  0  0.915302  0
C  C80  1  0.67473297  0.56884770  0.47531595  1  1.589015  0  0.235515  0.6319  0  4.157255  0
C  C81  1  0.82550465  0.09407844  0.52478521  1  1.582802  0  0.236723  0.633617  0  4.158797  0
C  C82  1  0.32526128  0.43114712  0.52467622  1  1.589103  0  0.23575  0.632209  0  4.157135  0
C  C83  1  0.17449534  0.90591672  0.47521673  1  1.581618  0  0.23692  0.634073  0  4.158469  0
C  C84  1  0.74437196  0.61400660  0.44761738  1  -0.039234  0  -0.014455  -0.034234  0  3.981482  0
C  C85  1  0.75596064  0.16701594  0.55251626  1  -0.010149  0  -0.01396  -0.034211  0  3.979933  0
C  C86  1  0.25562889  0.38600055  0.55238710  1  -0.039237  0  -0.014357  -0.033947  0  3.981201  0
C  C87  1  0.24404404  0.83298301  0.44749380  1  -0.010382  0  -0.013939  -0.034248  0  3.980106  0
C  C88  1  0.80375120  0.69697701  0.48563836  1  -0.02964  0  -0.073109  -0.099431  0  3.929256  0
C  C89  1  0.69656587  0.21185748  0.51440527  1  -0.066775  0  -0.073569  -0.099432  0  3.929284  0
C  C90  1  0.19624598  0.30302082  0.51435682  1  -0.029785  0  -0.073062  -0.099521  0  3.928762  0
C  C91  1  0.30343707  0.78814215  0.48559026  1  -0.066497  0  -0.07356  -0.099555  0  3.93001  0
C  C92  1  0.86591380  0.73920192  0.45822534  1  -0.063692  0  -0.015562  -0.033961  0  4.006238  0
C  C93  1  0.63426222  0.28133468  0.54174572  1  -0.00789  0  -0.015729  -0.034854  0  4.00657  0
C  C94  1  0.13408523  0.26079912  0.54177883  1  -0.063429  0  -0.015641  -0.033951  0  4.006287  0
C  C95  1  0.36573983  0.71866778  0.45826132  1  -0.007875  0  -0.015618  -0.034469  0  4.006268  0
C  C96  1  0.87082053  0.69742311  0.39333809  1  -0.066478  0  -0.080192  -0.168029  0  3.935305  0
C  C97  1  0.62933831  0.30449268  0.60663473  1  -0.113388  0  -0.080039  -0.167075  0  3.933409  0
C  C98  1  0.12918059  0.30257441  0.60666112  1  -0.066411  0  -0.08022  -0.168044  0  3.935606  0
C  C99  1  0.37066111  0.69550528  0.39336130  1  -0.113444  0  -0.080104  -0.167343  0  3.933039  0
C  C100  1  0.81352071  0.61197195  0.35486029  1  0.002322  0  -0.005552  0.069673  0  4.009258  0
C  C101  1  0.68669508  0.25770712  0.64522834  1  -0.005767  0  -0.005364  0.069711  0  4.0083  0
C  C102  1  0.18647914  0.38802492  0.64514117  1  0.002477  0  -0.00548  0.06978  0  4.00909  0
C  C103  1  0.31330537  0.74229420  0.35477539  1  -0.005703  0  -0.005393  0.069753  0  4.008391  0
C  C104  1  0.74937291  0.57233235  0.38290687  1  0.033015  0  -0.068272  -0.116512  0  3.888558  0
C  C105  1  0.75089754  0.19005689  0.61722254  1  -0.034628  0  -0.068787  -0.117523  0  3.888247  0
C  C106  1  0.25062675  0.42766322  0.61709040  1  0.033345  0  -0.06837  -0.11676  0  3.888976  0
C  C107  1  0.24910105  0.80994435  0.38277531  1  -0.034638  0  -0.068811  -0.11767  0  3.888004  0
C  C108  1  0.92741305  0.82862439  0.49952110  1  1.560367  0  0.221626  0.615271  0  4.169701  0
C  C109  1  0.57250615  0.32919122  0.50038505  1  1.567475  0  0.222209  0.616887  0  4.171325  0
C  C110  1  0.07258734  0.17137305  0.50047803  1  1.559967  0  0.22164  0.615285  0  4.169902  0
C  C111  1  0.42749469  0.67080970  0.49961321  1  1.567135  0  0.222184  0.616807  0  4.17125  0
C  C112  1  0.82250451  0.56371334  0.28758105  1  -0.045521  0  -0.012967  0.060755  0  4.006819  0
C  C113  1  0.67759122  0.27677485  0.71252200  1  0.016274  0  -0.012501  0.061375  0  4.007272  0
C  C114  1  0.17749680  0.43628280  0.71241969  1  -0.045668  0  -0.01287  0.060843  0  4.006809  0
C  C115  1  0.32241054  0.72322523  0.28747831  1  0.016612  0  -0.012495  0.061435  0  4.007206  0
C  C116  1  0.85086789  0.61614589  0.25044496  1  -0.080931  0  -0.096909  -0.132537  0  3.987779  0
C  C117  1  0.64911189  0.36626511  0.74963817  1  -0.089107  0  -0.097017  -0.133306  0  3.987177  0
C  C118  1  0.14913114  0.38385292  0.74955699  1  -0.080781  0  -0.09699  -0.13254  0  3.987842  0
C  C119  1  0.35088896  0.63373937  0.25036364  1  -0.089109  0  -0.096972  -0.13331  0  3.987291  0
C  C120  1  0.86230560  0.56941461  0.18785543  1  -0.024909  0  -0.093783  -0.125914  0  3.983565  0
C  C121  1  0.63761817  0.38206054  0.81222680  1  -0.054759  0  -0.094191  -0.125943  0  3.984836  0
C  C122  1  0.13769323  0.43058557  0.81214499  1  -0.024716  0  -0.093743  -0.125885  0  3.983739  0
C  C123  1  0.36238515  0.61793767  0.18777311  1  -0.05475  0  -0.094261  -0.126018  0  3.984927  0
C  C124  1  0.84747310  0.46797203  0.15929673  1  -0.036476  0  -0.01047  0.061774  0  3.993542  0
C  C125  1  0.65250382  0.30916306  0.84081582  1  0.005005  0  -0.010087  0.063157  0  3.992803  0
C  C126  1  0.15252867  0.53202805  0.84070359  1  -0.036615  0  -0.010479  0.061806  0  3.993577  0
C  C127  1  0.34749858  0.69083867  0.15918470  1  0.005038  0  -0.010139  0.063087  0  3.992863  0
C  C128  1  0.81735135  0.41611126  0.19641771  1  -0.037981  0  -0.090679  -0.121518  0  3.993597  0
C  C129  1  0.68266234  0.22026877  0.80370138  1  -0.055741  0  -0.091312  -0.122895  0  3.995454  0
C  C130  1  0.18264987  0.58388646  0.80358315  1  -0.037958  0  -0.090644  -0.121482  0  3.993523  0
C  C131  1  0.31734006  0.77973252  0.19629870  1  -0.055745  0  -0.091264  -0.122641  0  3.995188  0
C  C132  1  0.80508113  0.46257680  0.25876332  1  0.021917  0  -0.088787  -0.121893  0  3.992339  0
C  C133  1  0.69499002  0.20448070  0.74136991  1  -0.011365  0  -0.088542  -0.120649  0  3.99302  0
C  C134  1  0.19491922  0.53742165  0.74123610  1  0.021923  0  -0.088893  -0.122073  0  3.992417  0
C  C135  1  0.30501028  0.79551921  0.25863023  1  -0.011724  0  -0.088543  -0.120663  0  3.99289  0
C  C136  1  0.86469829  0.41805623  0.09399325  1  -0.092704  0  -0.006994  0.068876  0  3.993398  0
C  C137  1  0.63527792  0.32440036  0.90611239  1  -0.025153  0  -0.00765  0.067137  0  3.995346  0
C  C138  1  0.13530274  0.58194420  0.90600742  1  -0.092313  0  -0.006904  0.068908  0  3.993328  0
C  C139  1  0.36472371  0.67560231  0.09388834  1  -0.025096  0  -0.007653  0.067086  0  3.99551  0
C  C140  1  0.87726999  0.46861347  0.05191730  1  -0.024556  0  -0.0913  -0.128109  0  3.983135  0
C  C141  1  0.62275793  0.41695461  0.94821230  1  -0.059176  0  -0.090985  -0.127494  0  3.985931  0
C  C142  1  0.12273026  0.53138700  0.94808268  1  -0.024592  0  -0.091354  -0.128238  0  3.983081  0
C  C143  1  0.37724383  0.58304413  0.05178668  1  -0.059156  0  -0.090983  -0.127463  0  3.985861  0
C  C144  1  0.89415987  0.42091262  0.99074548  1  -0.024962  0  -0.088246  -0.117963  0  3.981866  0
C  C145  1  0.60593298  0.43030062  0.00937985  1  -0.00326  0  -0.088241  -0.117798  0  3.98551  0
C  C146  1  0.10584039  0.57908964  0.00925628  1  -0.024797  0  -0.088194  -0.117831  0  3.98167  0
C  C147  1  0.39406722  0.56969953  0.99061909  1  -0.003584  0  -0.088255  -0.117841  0  3.985482  0
C  C148  1  0.89901110  0.31938256  0.96737387  1  -0.069617  0  -0.010628  0.058365  0  3.988243  0
C  C149  1  0.60108724  0.35210504  0.03272517  1  -0.057925  0  -0.010579  0.056901  0  3.993388  0
C  C150  1  0.10098969  0.68062027  0.03262557  1  -0.069815  0  -0.0107  0.058216  0  3.988393  0
C  C151  1  0.39891218  0.64789381  0.96727175  1  -0.057251  0  -0.01059  0.056852  0  3.993216  0
C  C152  1  0.88630392  0.26912487  0.00954844  1  0.016943  0  -0.091902  -0.121692  0  4.005725  0
C  C153  1  0.61375428  0.25970522  0.99053605  1  -0.05074  0  -0.09238  -0.122276  0  4.007031  0
C  C154  1  0.11369858  0.73087529  0.99045196  1  0.017062  0  -0.091903  -0.121722  0  4.005907  0
C  C155  1  0.38624519  0.74029484  0.00946281  1  -0.051758  0  -0.09238  -0.122312  0  4.007279  0
C  C156  1  0.87022725  0.31671870  0.07076635  1  0.001301  0  -0.094058  -0.128664  0  4.005711  0
C  C157  1  0.62978359  0.24622218  0.92931664  1  0.026761  0  -0.09294  -0.127039  0  4.004066  0
C  C158  1  0.12977519  0.68328203  0.92923389  1  0.001001  0  -0.094054  -0.128545  0  4.005611  0
C  C159  1  0.37021876  0.75377744  0.07068105  1  0.02674  0  -0.09296  -0.127011  0  4.004401  0
C  C160  1  0.91745465  0.26784684  0.90245735  1  0.005596  0  -0.002116  0.076668  0  3.983122  0
C  C161  1  0.58265887  0.36548756  0.09763733  1  -0.014058  0  -0.001682  0.077453  0  3.982061  0
C  C162  1  0.08254171  0.73215650  0.09754186  1  0.006436  0  -0.001958  0.076972  0  3.98306  0
C  C163  1  0.41733908  0.63451156  0.90235986  1  -0.0138  0  -0.001584  0.077603  0  3.981998  0
C  C164  1  0.92468673  0.31676983  0.85852669  1  -0.067223  0  -0.090524  -0.137622  0  3.978465  0
C  C165  1  0.57552250  0.45836475  0.14150853  1  -0.036403  0  -0.089774  -0.135691  0  3.977784  0
C  C166  1  0.07531241  0.68323465  0.14147149  1  -0.0679  0  -0.090482  -0.137617  0  3.978449  0
C  C167  1  0.42447702  0.54163252  0.85848826  1  -0.036353  0  -0.089793  -0.135732  0  3.978004  0
C  C168  1  0.94655916  0.26857508  0.79874523  1  -0.005026  0  -0.079944  -0.081142  0  3.981667  0
C  C169  1  0.55361532  0.47004061  0.20128481  1  -0.039037  0  -0.080714  -0.083118  0  3.982909  0
C  C170  1  0.05344022  0.73143012  0.20125731  1  -0.005006  0  -0.080007  -0.081089  0  3.981607  0
C  C171  1  0.44637922  0.52995482  0.79871231  1  -0.03918  0  -0.080694  -0.083144  0  3.982913  0
C  C172  1  0.96123892  0.16906935  0.78019779  1  -0.03128  0  -0.022802  -0.04124  0  3.990126  0
C  C173  1  0.53872712  0.38913800  0.21985513  1  -0.028768  0  -0.022521  -0.040638  0  3.989772  0
C  C174  1  0.03876086  0.83093813  0.21980193  1  -0.031485  0  -0.022837  -0.041462  0  3.990168  0
C  C175  1  0.46126736  0.61085443  0.78013828  1  -0.029151  0  -0.022493  -0.04058  0  3.989487  0
C  C176  1  0.95032715  0.11846083  0.82214940  1  -0.111657  0  -0.084085  -0.089186  0  3.996936  0
C  C177  1  0.54949182  0.29654337  0.17797495  1  -0.039834  0  -0.08379  -0.088331  0  3.994918  0
C  C178  1  0.04967180  0.88154458  0.17784682  1  -0.111414  0  -0.084062  -0.089077  0  3.996996  0
C  C179  1  0.45050540  0.70345345  0.82201994  1  -0.03955  0  -0.083828  -0.088493  0  3.994494  0
C  C180  1  0.92945620  0.16707215  0.88204431  1  0.039916  0  -0.095116  -0.141656  0  3.999452  0
C  C181  1  0.57051530  0.28516050  0.11809100  1  -0.053498  0  -0.096223  -0.143559  0  3.99652  0
C  C182  1  0.07054089  0.83293127  0.11795499  1  0.039697  0  -0.095205  -0.141775  0  3.999677  0
C  C183  1  0.42948202  0.71483474  0.88190376  1  -0.053685  0  -0.096127  -0.14335  0  3.996401  0
C  C184  1  0.99128429  0.11752969  0.71825056  1  1.514743  0  0.187229  0.558462  0  4.243212  0
C  C185  1  0.50862429  0.39968524  0.28181269  1  1.497441  0  0.18748  0.558886  0  4.243252  0
C  C186  1  0.00872038  0.88248210  0.28174985  1  1.515538  0  0.187259  0.558616  0  4.243349  0
C  C187  1  0.49136905  0.60030262  0.71818123  1  1.497135  0  0.187408  0.55888  0  4.243175  0
O  O188  1  0.28739783  0.47019497  0.35613969  1  -1.259027  0  -0.58134  -0.752257  0  1.971819  0
O  O189  1  0.21251084  0.11392985  0.64387729  1  -1.242591  0  -0.580628  -0.75119  0  1.972141  0
O  O190  1  0.71259744  0.52980232  0.64385929  1  -1.25903  0  -0.581373  -0.752274  0  1.971867  0
O  O191  1  0.78748881  0.88606750  0.35612175  1  -1.242753  0  -0.580685  -0.751316  0  1.972064  0
O  O192  1  0.34440072  0.25746627  0.35398378  1  -1.2178  0  -0.598689  -0.773081  0  1.941475  0
O  O193  1  0.15553189  0.90357011  0.64607287  1  -1.234296  0  -0.598932  -0.773414  0  1.940458  0
O  O194  1  0.65560512  0.74252510  0.64601439  1  -1.217844  0  -0.598645  -0.772967  0  1.941583  0
O  O195  1  0.84447178  0.09643495  0.35392807  1  -1.234294  0  -0.598862  -0.77339  0  1.940384  0
O  O196  1  0.62934735  0.48869437  0.43927086  1  -1.201233  0  -0.39262  -0.62121  0  2.27509  0
O  O197  1  0.87076464  0.04984894  0.56079398  1  -1.201685  0  -0.393658  -0.622582  0  2.276724  0
O  O198  1  0.37064891  0.51131589  0.56073382  1  -1.201191  0  -0.392802  -0.62158  0  2.274474  0
O  O199  1  0.12922723  0.95014264  0.43921451  1  -1.200852  0  -0.393747  -0.622844  0  2.276947  0
O  O200  1  0.66453815  0.61273421  0.53267881  1  -1.20738  0  -0.361597  -0.627031  0  2.254607  0
O  O201  1  0.83568813  0.08061996  0.46742530  1  -1.201765  0  -0.361712  -0.627823  0  2.254501  0
O  O202  1  0.33546261  0.38727542  0.46732669  1  -1.207424  0  -0.361656  -0.627014  0  2.25527  0
O  O203  1  0.16431756  0.91937434  0.53258447  1  -1.201293  0  -0.361797  -0.62798  0  2.254181  0
O  O204  1  0.95083420  0.84542262  0.55943561  1  -1.186303  0  -0.364849  -0.586907  0  2.139892  0
O  O205  1  0.54908968  0.28602413  0.44048868  1  -1.188242  0  -0.364812  -0.587455  0  2.140328  0
O  O206  1  0.04916964  0.15457248  0.44056917  1  -1.186195  0  -0.364785  -0.58684  0  2.140199  0
O  O207  1  0.45091191  0.71398578  0.55951855  1  -1.18775  0  -0.364829  -0.587526  0  2.139803  0
O  O208  1  0.95430773  0.88762667  0.47282163  1  -1.222981  0  -0.416932  -0.68256  0  2.366257  0
O  O209  1  0.54534918  0.41476274  0.52705182  1  -1.223377  0  -0.41751  -0.68309  0  2.368604  0
O  O210  1  0.04569652  0.11237381  0.52718345  1  -1.223089  0  -0.416934  -0.682588  0  2.366195  0
O  O211  1  0.45465493  0.58524079  0.47295411  1  -1.223684  0  -0.417505  -0.683048  0  2.3687  0
O  O212  1  0.01865823  0.16691778  0.68555730  1  -1.19598  0  -0.385083  -0.63358  0  2.195829  0
O  O213  1  0.48167980  0.48189984  0.31457741  1  -1.203017  0  -0.385228  -0.633619  0  2.195616  0
O  O214  1  0.98134306  0.83308751  0.31444098  1  -1.196608  0  -0.385196  -0.633722  0  2.195705  0
O  O215  1  0.51830951  0.51809258  0.68541526  1  -1.202708  0  -0.38516  -0.633511  0  2.195663  0
O  O216  1  0.99072795  0.02459180  0.69910940  1  -1.189142  0  -0.391707  -0.603691  0  2.117838  0
O  O217  1  0.50871451  0.32583860  0.30087179  1  -1.166494  0  -0.391894  -0.603916  0  2.119771  0
O  O218  1  0.00928319  0.97541284  0.30089330  1  -1.189471  0  -0.391588  -0.60366  0  2.118045  0
O  O219  1  0.49128061  0.67415594  0.69912228  1  -1.166314  0  -0.391937  -0.603998  0  2.119589  0
