# generated using pymatgen
data_Al6H24C65O32
_symmetry_space_group_name_H-M   'P 1'
_cell_length_a   12.50786427
_cell_length_b   12.71991297
_cell_length_c   26.95808329
_cell_angle_alpha   97.21893076
_cell_angle_beta   91.14515414
_cell_angle_gamma   119.66946392
_symmetry_Int_Tables_number   1
_chemical_formula_structural   Al6H24C65O32
_chemical_formula_sum   'Al6 H24 C65 O32'
_cell_volume   3680.31150169
_cell_formula_units_Z   1
loop_
 _symmetry_equiv_pos_site_id
 _symmetry_equiv_pos_as_xyz
  1  'x, y, z'
loop_
 _atom_site_type_symbol
 _atom_site_label
 _atom_site_symmetry_multiplicity
 _atom_site_fract_x
 _atom_site_fract_y
 _atom_site_fract_z
 _atom_site_occupancy
 _atom_site_pbe_bader_charge
 _atom_site_pbe_bader_spin_density
 _atom_site_pbe_cm5_charge
 _atom_site_pbe_ddec_charge
 _atom_site_pbe_ddec_spin_density
 _atom_site_pbe_ddec_sum_bond_order
 _atom_site_pbe_magmom
Al  Al0  1  0.41871231  0.82732735  0.48903720  1  2.492442  0  0.401007  1.679856  0  2.560325  0
Al  Al1  1  0.66962413  0.08738503  0.50470951  1  2.482974  0  0.511705  1.660165  0  2.508737  0
Al  Al2  1  0.42813115  0.08617907  0.50391983  1  2.4863  0  0.508398  1.660106  0  2.511497  0
Al  Al3  1  0.90632225  0.84174087  0.01733802  1  2.492606  0  0.400942  1.684176  0  2.557414  0
Al  Al4  1  0.91042452  0.58929971  0.00605803  1  2.482822  0  0.510817  1.661176  0  2.507271  0
Al  Al5  1  0.66252573  0.57465190  0.00458153  1  2.483738  0  0.512041  1.662368  0  2.503563  0
H  H6  1  0.85047317  0.47150217  0.31891927  1  0.078719  0  0.115867  0.126145  0  0.978045  0
H  H7  1  0.57596903  0.59540947  0.76420433  1  0.094161  0  0.109935  0.128106  0  1.015395  0
H  H8  1  0.49021742  0.20493577  0.19259742  1  0.085675  0  0.116558  0.121258  0  0.974609  0
H  H9  1  0.47460509  0.17458248  0.28221569  1  0.101356  0  0.113765  0.118503  0  0.985201  0
H  H10  1  0.32470487  0.80214084  0.71433543  1  0.089943  0  0.111619  0.129288  0  1.010148  0
H  H11  1  0.01981477  0.89094407  0.79730149  1  0.083918  0  0.10829  0.108324  0  1.008083  0
H  H12  1  0.06260973  0.92868682  0.70916095  1  0.096953  0  0.112127  0.123183  0  0.984257  0
H  H13  1  0.97435755  0.06089566  0.83116048  1  0.026847  0  0.096183  0.09253  0  0.994839  0
H  H14  1  0.88726825  0.94823719  0.87090861  1  0.077955  0  0.101089  0.106883  0  1.009162  0
H  H15  1  0.91912587  0.10200109  0.88722400  1  0.093038  0  0.120331  0.134983  0  0.951856  0
H  H16  1  0.44109636  0.47843849  0.69251643  1  0.041826  0  0.102885  0.100664  0  0.980374  0
H  H17  1  0.58729265  0.48312991  0.69240934  1  0.044786  0  0.093757  0.089246  0  1.031511  0
H  H18  1  0.49662070  0.45036245  0.63421458  1  0.072249  0  0.118597  0.131891  0  0.958422  0
H  H19  1  0.93081408  0.50214947  0.19317542  1  0.066662  0  0.101015  0.144535  0  0.982059  0
H  H20  1  0.88054011  0.60585836  0.21448446  1  0.050156  0  0.097129  0.135519  0  0.990011  0
H  H21  1  0.97153405  0.57819615  0.25670163  1  0.051591  0  0.0958  0.134791  0  1.000314  0
H  H22  1  0.46094369  0.82188974  0.78049174  1  0.069832  0  0.097864  0.096467  0  1.002896  0
H  H23  1  0.34562070  0.66594757  0.75664105  1  0.062793  0  0.099172  0.09675  0  0.988052  0
H  H24  1  0.41746331  0.70592920  0.81976482  1  0.095448  0  0.110767  0.122868  0  0.9842  0
H  H25  1  0.74092828  0.13228543  0.78361935  1  0.059912  0  0.096927  0.09997  0  1.021348  0
H  H26  1  0.66322666  0.08478988  0.72089730  1  0.046295  0  0.091682  0.087933  0  1.001636  0
H  H27  1  0.81597463  0.21535883  0.73369916  1  0.088186  0  0.107167  0.117473  0  0.97739  0
H  H28  1  0.34241682  0.62719071  0.50512133  1  0.572165  0  0.297013  0.38733  0  0.91613  0
H  H29  1  0.99675929  0.04497031  0.05777860  1  0.59401  0  0.297411  0.38952  0  0.912965  0
C  C30  1  0.62392001  0.91114154  0.42156705  1  1.707034  0  0.279226  0.689183  0  4.184801  0
C  C31  1  0.56852285  0.26290842  0.22057882  1  0.022089  0  -0.070211  -0.104216  0  3.966662  0
C  C32  1  0.55967758  0.24592367  0.27043349  1  0.03501  0  -0.074416  -0.121267  0  3.954762  0
C  C33  1  0.66214093  0.32111469  0.30627592  1  0.081565  0  0.0088  0.125742  0  4.120559  0
C  C34  1  0.67880425  0.35526581  0.20530049  1  0.06616  0  0.006015  0.052702  0  4.06015  0
C  C35  1  0.68701136  0.37259189  0.15440222  1  -0.354301  0  0.008135  0.03209  0  4.044673  0
C  C36  1  0.65447913  0.30166300  0.35695733  1  -0.491211  0  0.008528  0.022621  0  4.025093  0
C  C37  1  0.69777174  0.39137518  0.11096749  1  0.105903  0  -0.034499  -0.21201  0  3.921331  0
C  C38  1  0.10421169  0.79877724  0.13672888  1  0.004182  0  0.005607  -0.128  0  3.816699  0
C  C39  1  0.13302969  0.81817241  0.18208541  1  -0.165659  0  -0.00253  0.029692  0  4.251952  0
C  C40  1  0.16075311  0.83739520  0.23181869  1  0.154756  0  0.003823  -0.001664  0  4.188654  0
C  C41  1  0.62377535  0.23223781  0.44619720  1  1.626959  0  0.287778  0.726405  0  4.144883  0
C  C42  1  0.18175525  0.85250761  0.27783153  1  -0.109678  0  0.004552  -0.001133  0  4.191192  0
C  C43  1  0.20647071  0.86899829  0.32765612  1  -0.238963  0  -0.003244  0.02754  0  4.252011  0
C  C44  1  0.23123979  0.88494394  0.37319479  1  0.175612  0  0.010063  -0.121269  0  3.814129  0
C  C45  1  0.67424257  0.77496410  0.13621622  1  0.159648  0  0.001281  -0.135794  0  3.820258  0
C  C46  1  0.66989411  0.79655653  0.18157131  1  -0.244573  0  -0.003207  0.034654  0  4.249548  0
C  C47  1  0.66676356  0.82029990  0.23119877  1  0.196759  0  0.00287  -0.003726  0  4.185926  0
C  C48  1  0.66593772  0.84279004  0.27702650  1  -0.194248  0  0.004872  0.003814  0  4.183004  0
C  C49  1  0.66092073  0.86654195  0.32649981  1  -0.244574  0  -0.001807  0.031497  0  4.244523  0
C  C50  1  0.65332802  0.88798914  0.37154751  1  0.140466  0  0.007452  -0.123433  0  3.812035  0
C  C51  1  0.69810503  0.39024884  0.87444994  1  0.384192  0  0.01497  -0.115004  0  3.792837  0
C  C52  1  0.28354101  0.91101692  0.42422065  1  1.689796  0  0.284281  0.688594  0  4.186671  0
C  C53  1  0.68661333  0.36974425  0.82835719  1  -0.401519  0  0.002591  0.033476  0  4.226796  0
C  C54  1  0.67544117  0.34911897  0.77799260  1  0.096867  0  0.012311  0.010361  0  4.162951  0
C  C55  1  0.66670128  0.33120196  0.73161621  1  -0.042947  0  0.006657  -0.008161  0  4.184971  0
C  C56  1  0.65598893  0.30683088  0.68130945  1  -0.119242  0  0.001514  0.028333  0  4.24862  0
C  C57  1  0.64468414  0.28188005  0.63532246  1  -0.052094  0  0.011507  -0.122419  0  3.797051  0
C  C58  1  0.24890791  0.89889877  0.61381185  1  0.084416  0  -0.035958  -0.193661  0  3.942801  0
C  C59  1  0.25882764  0.82145357  0.73319156  1  -0.004563  0  -0.099976  -0.266534  0  3.934671  0
C  C60  1  0.23531000  0.80113008  0.78247433  1  0.505098  0  0.099706  0.229008  0  4.040618  0
C  C61  1  0.08660878  0.87222102  0.77880084  1  -0.009899  0  -0.075352  -0.093346  0  3.981648  0
C  C62  1  0.11010493  0.89313480  0.72987808  1  0.017953  0  -0.09006  -0.153126  0  3.979488  0
C  C63  1  0.64666596  0.91477232  0.56182825  1  1.613732  0  0.277045  0.711328  0  4.15783  0
C  C64  1  0.19623790  0.86717862  0.70670767  1  0.079759  0  0.005391  0.153404  0  4.130065  0
C  C65  1  0.14730685  0.82577848  0.80583158  1  0.084468  0  -0.005504  0.016646  0  4.09471  0
C  C66  1  0.11957615  0.80280374  0.85508355  1  -0.537746  0  -0.009635  0.012115  0  4.094805  0
C  C67  1  0.22233428  0.88576095  0.65671305  1  -0.331302  0  -0.012759  -0.013434  0  4.060696  0
C  C68  1  0.09078832  0.78358182  0.89733253  1  0.297343  0  -0.035314  -0.199421  0  3.939298  0
C  C69  1  0.67914180  0.88738559  0.60777261  1  0.21375  0  -0.03201  -0.194339  0  3.914836  0
C  C70  1  0.74663461  0.93472261  0.73997216  1  0.545285  0  0.08842  0.12921  0  4.057746  0
C  C71  1  0.73889328  0.90948119  0.78947055  1  0.538533  0  0.075803  0.080108  0  4.052733  0
C  C72  1  0.62314202  0.68904002  0.75644186  1  -0.039503  0  -0.107751  -0.277357  0  3.991345  0
C  C73  1  0.63135202  0.71451268  0.70748275  1  0.476717  0  0.093065  0.226127  0  4.066078  0
C  C74  1  0.61792178  0.23003048  0.58293981  1  1.666276  0  0.284824  0.6968  0  4.181414  0
C  C75  1  0.69104502  0.83841036  0.69875740  1  0.218053  0  -0.012401  -0.071199  0  4.100566  0
C  C76  1  0.67506526  0.78581218  0.79744769  1  0.116266  0  -0.004378  0.054376  0  4.157761  0
C  C77  1  0.66320576  0.76129916  0.84724954  1  -0.550463  0  -0.011407  -0.001076  0  4.090044  0
C  C78  1  0.68849464  0.86520594  0.64983436  1  -0.394513  0  -0.011035  0.031146  0  4.105622  0
C  C79  1  0.65749315  0.74686336  0.89119600  1  0.307331  0  -0.030179  -0.193364  0  3.911788  0
C  C80  1  0.04889111  0.76992357  0.08605020  1  1.685448  0  0.278209  0.691181  0  4.186793  0
C  C81  1  0.71955056  0.43926722  0.06466628  1  1.612627  0  0.286656  0.727183  0  4.143136  0
C  C82  1  0.69998368  0.75180465  0.08558735  1  1.691116  0  0.278022  0.69689  0  4.178099  0
C  C83  1  0.03902951  0.76158677  0.94436950  1  1.651763  0  0.277787  0.708308  0  4.166771  0
C  C84  1  0.72146021  0.43856380  0.92718045  1  1.671381  0  0.286615  0.699903  0  4.175348  0
C  C85  1  0.29808074  0.91544072  0.56600226  1  1.636726  0  0.275402  0.711264  0  4.162595  0
C  C86  1  0.68349216  0.73542683  0.94169275  1  1.654378  0  0.280024  0.70756  0  4.169525  0
C  C87  1  0.64628311  0.28147104  0.40019060  1  0.2556  0  -0.033896  -0.205173  0  3.924935  0
C  C88  1  0.77195982  0.41367215  0.29095632  1  -0.019514  0  -0.072014  -0.176223  0  3.887006  0
C  C89  1  0.78213182  0.43302996  0.24111698  1  0.024481  0  0.012239  0.154315  0  3.92399  0
C  C90  1  0.89895005  0.02929872  0.85586357  1  0.367262  0  -0.129814  -0.166026  0  3.862378  0
C  C91  1  0.52368221  0.50290164  0.67214544  1  0.415237  0  -0.129501  -0.168537  0  3.898651  0
C  C92  1  0.89783554  0.53492583  0.22574679  1  -0.067485  0  -0.233831  -0.420512  0  3.974037  0
C  C93  1  0.38403192  0.73699223  0.79019462  1  0.341078  0  -0.134438  -0.171568  0  3.908371  0
C  C94  1  0.75304264  0.12489058  0.74331613  1  0.365351  0  -0.140703  -0.177719  0  3.908812  0
O  O95  1  0.30227287  0.83184952  0.43995669  1  -1.200684  0  -0.191739  -0.516598  0  2.277594  0
O  O96  1  0.69686904  0.20755860  0.56259664  1  -1.222188  0  -0.215107  -0.56331  0  2.2518  0
O  O97  1  0.51341258  0.20531053  0.56227215  1  -1.235778  0  -0.221435  -0.57616  0  2.246148  0
O  O98  1  0.30767040  0.00701140  0.54623151  1  -1.253538  0  -0.246339  -0.614382  0  2.232392  0
O  O99  1  0.50678459  0.00297319  0.49933188  1  -1.616917  0  -0.391123  -1.274774  0  2.29839  0
O  O100  1  0.80052861  0.83270159  0.07238934  1  -1.213824  0  -0.20581  -0.556931  0  2.297881  0
O  O101  1  0.02064816  0.84409799  0.07135704  1  -1.202543  0  -0.202836  -0.549192  0  2.289954  0
O  O102  1  0.02841333  0.66730101  0.06107181  1  -1.253307  0  -0.234714  -0.589677  0  2.232328  0
O  O103  1  0.82383404  0.46881367  0.04745966  1  -1.240766  0  -0.226086  -0.590857  0  2.246388  0
O  O104  1  0.63543283  0.45525199  0.04492244  1  -1.243087  0  -0.226562  -0.589972  0  2.23869  0
O  O105  1  0.62091669  0.64890507  0.05888395  1  -1.253238  0  -0.235563  -0.595297  0  2.232335  0
O  O106  1  0.51738624  0.83564069  0.43196040  1  -1.210643  0  -0.196582  -0.530161  0  2.288468  0
O  O107  1  0.78375884  0.82107153  0.96477348  1  -1.216427  0  -0.197958  -0.537803  0  2.288219  0
O  O108  1  0.00426247  0.83425022  0.96362042  1  -1.216842  0  -0.203722  -0.544842  0  2.295115  0
O  O109  1  0.02802439  0.66772990  0.96261332  1  -1.254345  0  -0.243199  -0.610032  0  2.231246  0
O  O110  1  0.82599872  0.46634118  0.94872463  1  -1.229879  0  -0.218621  -0.570662  0  2.242214  0
O  O111  1  0.63868526  0.45586337  0.94699044  1  -1.229246  0  -0.217315  -0.569701  0  2.253183  0
O  O112  1  0.60622235  0.63695968  0.95858949  1  -1.260219  0  -0.242996  -0.605754  0  2.224534  0
O  O113  1  0.82510447  0.66608472  0.00952600  1  -1.610512  0  -0.391078  -1.27538  0  2.290035  0
O  O114  1  0.70664306  0.00830350  0.45043646  1  -1.256462  0  -0.237725  -0.599772  0  2.238883  0
O  O115  1  0.70398102  0.20897279  0.46450594  1  -1.238946  0  -0.226158  -0.587684  0  2.234493  0
O  O116  1  0.52207309  0.20890483  0.46454551  1  -1.245489  0  -0.226434  -0.59077  0  2.251761  0
O  O117  1  0.31180639  0.01701808  0.44841062  1  -1.246298  0  -0.233998  -0.590177  0  2.232392  0
O  O118  1  0.33207558  0.84142905  0.54782900  1  -1.216299  0  -0.208303  -0.558995  0  2.293316  0
O  O119  1  0.54508549  0.83549368  0.53724082  1  -1.225506  0  -0.21018  -0.570683  0  2.292248  0
O  O120  1  0.72192334  0.02124391  0.55006233  1  -1.255495  0  -0.242022  -0.603299  0  2.221432  0
O  O121  1  0.78590263  0.00454117  0.82859184  1  -1.07028  0  -0.20333  -0.177932  0  2.567825  0
O  O122  1  0.58401031  0.62892743  0.66564779  1  -1.061966  0  -0.175831  -0.140428  0  2.572032  0
O  O123  1  0.29088222  0.75838112  0.81105284  1  -1.066437  0  -0.17514  -0.1411  0  2.575169  0
O  O124  1  0.81003790  0.05191961  0.73007721  1  -1.06947  0  -0.200447  -0.166675  0  2.548699  0
O  O125  1  0.33433111  0.66740377  0.47834220  1  -1.345675  0  -0.570972  -0.984999  0  1.789622  0
O  O126  1  0.98021830  0.00137279  0.02395229  1  -1.373477  0  -0.572748  -0.990873  0  1.788274  0
