# generated using pymatgen
data_AlH7C6O5
_symmetry_space_group_name_H-M   'P 1'
_cell_length_a   6.68207166
_cell_length_b   8.80805462
_cell_length_c   8.80766194
_cell_angle_alpha   61.72420076
_cell_angle_beta   74.36731766
_cell_angle_gamma   74.37410145
_symmetry_Int_Tables_number   1
_chemical_formula_structural   AlH7C6O5
_chemical_formula_sum   'Al2 H14 C12 O10'
_cell_volume   433.46172786
_cell_formula_units_Z   2
loop_
 _symmetry_equiv_pos_site_id
 _symmetry_equiv_pos_as_xyz
  1  'x, y, z'
loop_
 _atom_site_type_symbol
 _atom_site_label
 _atom_site_symmetry_multiplicity
 _atom_site_fract_x
 _atom_site_fract_y
 _atom_site_fract_z
 _atom_site_occupancy
 _atom_site_pbe_bader_charge
 _atom_site_pbe_bader_spin_density
 _atom_site_pbe_cm5_charge
 _atom_site_pbe_ddec_charge
 _atom_site_pbe_ddec_spin_density
 _atom_site_pbe_ddec_sum_bond_order
 _atom_site_pbe_magmom
Al  Al0  1  0.50004777  0.49994606  0.49996805  1  2.500422  0  0.400208  1.644639  0  2.583251  0
Al  Al1  1  0.00004553  0.49996731  0.49994695  1  2.500322  0  0.400129  1.644563  0  2.583623  0
H  H2  1  0.74961532  0.30394972  0.69721547  1  0.623051  0  0.359505  0.437595  0  0.83888  0
H  H3  1  0.24969886  0.69711464  0.30385198  1  0.621419  0  0.359421  0.437374  0  0.839138  0
H  H4  1  0.84172572  0.09452668  0.46325603  1  0.068838  0  0.101549  0.14684  0  0.99574  0
H  H5  1  0.70147176  0.22591357  0.28895710  1  0.057156  0  0.097007  0.137668  0  1.022684  0
H  H6  1  0.88959376  0.03910253  0.28609581  1  0.044109  0  0.089658  0.12472  0  1.004797  0
H  H7  1  0.11046543  0.96089588  0.71383587  1  0.044853  0  0.089788  0.124761  0  1.00474  0
H  H8  1  0.29852172  0.77405551  0.71092894  1  0.057067  0  0.097048  0.137489  0  1.022768  0
H  H9  1  0.15821616  0.90550961  0.53668167  1  0.068054  0  0.10151  0.14643  0  0.996373  0
H  H10  1  0.38955381  0.28612208  0.03911074  1  0.04443  0  0.089705  0.124692  0  1.004908  0
H  H11  1  0.20140616  0.28899524  0.22591697  1  0.057285  0  0.097016  0.137613  0  1.022736  0
H  H12  1  0.34171529  0.46329149  0.09449915  1  0.068649  0  0.10159  0.146759  0  0.996037  0
H  H13  1  0.65820345  0.53668652  0.90553193  1  0.068011  0  0.101527  0.146522  0  0.996301  0
H  H14  1  0.79859297  0.71092532  0.77403988  1  0.056755  0  0.097004  0.137573  0  1.022565  0
H  H15  1  0.61050533  0.71385626  0.96086735  1  0.044908  0  0.089797  0.124832  0  1.004749  0
C  C16  1  0.15950837  0.45949313  0.80090626  1  1.547623  0  0.26851  0.638889  0  4.075311  0
C  C17  1  0.34055313  0.19908150  0.54037773  1  1.548708  0  0.26834  0.63824  0  4.07541  0
C  C18  1  0.84053880  0.54038578  0.19907365  1  1.548883  0  0.268438  0.63846  0  4.075286  0
C  C19  1  0.65949268  0.80090148  0.45949371  1  1.548546  0  0.26861  0.639065  0  4.074818  0
C  C20  1  0.59751247  0.97742274  0.45927740  1  0.029594  0  -0.000699  -0.006918  0  3.848157  0
C  C21  1  0.40252965  0.02255011  0.54060698  1  -0.037993  0  -0.00096  -0.006726  0  3.847616  0
C  C22  1  0.09750668  0.45928560  0.97742809  1  0.029673  0  -0.000737  -0.006875  0  3.847965  0
C  C23  1  0.90252870  0.54063246  0.02253373  1  -0.038181  0  -0.000859  -0.006677  0  3.847678  0
C  C24  1  0.76658808  0.09042783  0.36887682  1  -0.040476  0  -0.243323  -0.399709  0  3.978554  0
C  C25  1  0.23343627  0.90955749  0.63103316  1  -0.040307  0  -0.243457  -0.399103  0  3.978552  0
C  C26  1  0.26656602  0.36891740  0.09042597  1  -0.040492  0  -0.243401  -0.399532  0  3.978783  0
C  C27  1  0.73345473  0.63103689  0.90954704  1  -0.039853  0  -0.243424  -0.399425  0  3.978485  0
O  O28  1  0.35248636  0.46883418  0.73068623  1  -1.259626  0  -0.235351  -0.593214  0  2.352441  0
O  O29  1  0.14760978  0.26932233  0.53098785  1  -1.259739  0  -0.23541  -0.592717  0  2.352343  0
O  O30  1  0.97926426  0.55087398  0.26689331  1  -1.263079  0  -0.233219  -0.592142  0  2.372402  0
O  O31  1  0.52078054  0.73307206  0.44899657  1  -1.262834  0  -0.233411  -0.592521  0  2.372417  0
O  O32  1  0.64759697  0.53098348  0.26932360  1  -1.260119  0  -0.235319  -0.592689  0  2.352625  0
O  O33  1  0.85246243  0.73068600  0.46884543  1  -1.260044  0  -0.235423  -0.593359  0  2.35209  0
O  O34  1  0.02077177  0.44901763  0.73308407  1  -1.262594  0  -0.233378  -0.5925  0  2.372632  0
O  O35  1  0.47925229  0.26690066  0.55088857  1  -1.263215  0  -0.233045  -0.591929  0  2.372604  0
O  O36  1  0.75004242  0.41039541  0.58955995  1  -1.425738  0  -0.447511  -0.994525  0  2.213875  0
O  O37  1  0.25004244  0.58954694  0.41038952  1  -1.424065  0  -0.447434  -0.994167  0  2.214002  0
