# generated using pymatgen
data_MgH20(C13N5)2
_symmetry_space_group_name_H-M   'P 1'
_cell_length_a   10.25957205
_cell_length_b   16.01391123
_cell_length_c   16.01142819
_cell_angle_alpha   115.57313523
_cell_angle_beta   102.29915808
_cell_angle_gamma   102.35314408
_symmetry_Int_Tables_number   1
_chemical_formula_structural   MgH20(C13N5)2
_chemical_formula_sum   'Mg3 H60 C78 N30'
_cell_volume   2174.32281230
_cell_formula_units_Z   3
loop_
 _symmetry_equiv_pos_site_id
 _symmetry_equiv_pos_as_xyz
  1  'x, y, z'
loop_
 _atom_site_type_symbol
 _atom_site_label
 _atom_site_symmetry_multiplicity
 _atom_site_fract_x
 _atom_site_fract_y
 _atom_site_fract_z
 _atom_site_occupancy
 _atom_site_pbe_bader_charge
 _atom_site_pbe_bader_spin_density
 _atom_site_pbe_cm5_charge
 _atom_site_pbe_ddec_charge
 _atom_site_pbe_ddec_spin_density
 _atom_site_pbe_ddec_sum_bond_order
 _atom_site_pbe_magmom
Mg  Mg0  1  0.99999841  0.49999994  0.00000109  1  1.648774  0  0.89389  1.026931  0  1.828392  0
Mg  Mg1  1  0.50000160  0.49999919  0.50000114  1  1.650139  0  0.89318  1.025788  0  1.829343  0
Mg  Mg2  1  0.99999960  0.99999815  0.49999937  1  1.651002  0  0.891999  1.025403  0  1.829388  0
H  H3  1  0.99352938  0.59055753  0.85750794  1  0.115316  0  0.114866  0.07921  0  1.030563  0
H  H4  1  0.40246173  0.26698173  0.40947031  1  0.110663  0  0.115302  0.080677  0  1.030102  0
H  H5  1  0.13557222  0.14233739  0.73298821  1  0.115568  0  0.114914  0.080483  0  1.028776  0
H  H6  1  0.00647776  0.40944675  0.14249868  1  0.115243  0  0.114895  0.079222  0  1.030513  0
H  H7  1  0.59754346  0.73301664  0.59052975  1  0.110655  0  0.115341  0.080783  0  1.030054  0
H  H8  1  0.86442736  0.85766172  0.26701077  1  0.115591  0  0.114919  0.080534  0  1.028706  0
H  H9  1  0.85112732  0.67893625  0.80091943  1  0.088369  0  0.101832  0.105914  0  1.034974  0
H  H10  1  0.17152727  0.12205869  0.32097491  1  0.084685  0  0.10112  0.10612  0  1.034553  0
H  H11  1  0.04963928  0.19859720  0.87799470  1  0.058831  0  0.101129  0.105407  0  1.034628  0
H  H12  1  0.14888145  0.32106729  0.19908397  1  0.088394  0  0.101862  0.105926  0  1.034914  0
H  H13  1  0.82847394  0.87793968  0.67902210  1  0.08473  0  0.101149  0.106157  0  1.034531  0
H  H14  1  0.95036330  0.80140191  0.12200469  1  0.05868  0  0.101161  0.105457  0  1.034636  0
H  H15  1  0.66657214  0.72172132  0.87497798  1  0.049948  0  0.105686  0.105264  0  0.983737  0
H  H16  1  0.94438588  0.15341820  0.27798652  1  0.087658  0  0.106071  0.106532  0  0.982489  0
H  H17  1  0.79098079  0.12463681  0.84665645  1  0.086053  0  0.106449  0.106947  0  0.984412  0
H  H18  1  0.33343465  0.27828222  0.12502390  1  0.049924  0  0.105722  0.10526  0  0.983769  0
H  H19  1  0.05561807  0.84658165  0.72200838  1  0.08761  0  0.10605  0.106486  0  0.982526  0
H  H20  1  0.20902278  0.87536230  0.15334433  1  0.085877  0  0.106429  0.106936  0  0.984395  0
H  H21  1  0.72827114  0.39933346  0.22443493  1  0.107871  0  0.107302  0.112548  0  1.028549  0
H  H22  1  0.32952509  0.82547799  0.60090531  1  0.110969  0  0.107221  0.112801  0  1.029424  0
H  H23  1  0.50421672  0.77534864  0.17465555  1  0.096898  0  0.107764  0.113416  0  1.028423  0
H  H24  1  0.27173265  0.60067008  0.77556717  1  0.107852  0  0.107298  0.112506  0  1.02856  0
H  H25  1  0.67047350  0.17452112  0.39909103  1  0.110901  0  0.107217  0.112828  0  1.029339  0
H  H26  1  0.49577886  0.22465047  0.82534475  1  0.096814  0  0.107762  0.113436  0  1.028392  0
H  H27  1  0.61913711  0.38170067  0.34399021  1  0.0937  0  0.115729  0.082309  0  1.01751  0
H  H28  1  0.23785927  0.96255848  0.61859419  1  0.094559  0  0.116024  0.082062  0  1.017852  0
H  H29  1  0.27558717  0.65583324  0.03751310  1  0.091054  0  0.116492  0.082634  0  1.016847  0
H  H30  1  0.38086645  0.61829844  0.65601056  1  0.093726  0  0.115736  0.082318  0  1.017537  0
H  H31  1  0.76213011  0.03743620  0.38140273  1  0.094372  0  0.116062  0.082108  0  1.017687  0
H  H32  1  0.72440579  0.34416660  0.96248778  1  0.090909  0  0.116478  0.082616  0  1.016759  0
H  H33  1  0.46461114  0.60853621  0.37621941  1  0.112881  0  0.116421  0.084457  0  1.015879  0
H  H34  1  0.85661732  0.76771916  0.39170500  1  0.109394  0  0.116296  0.083935  0  1.01628  0
H  H35  1  0.08862578  0.62386874  0.23225173  1  0.104783  0  0.115215  0.083453  0  1.016829  0
H  H36  1  0.53538806  0.39146217  0.62378419  1  0.112927  0  0.116431  0.08446  0  1.015832  0
H  H37  1  0.14337684  0.23227110  0.60828941  1  0.109446  0  0.116317  0.083956  0  1.016252  0
H  H38  1  0.91137253  0.37613185  0.76775145  1  0.104843  0  0.115183  0.083339  0  1.016837  0
H  H39  1  0.56402400  0.63317221  0.25522598  1  0.114882  0  0.106323  0.11616  0  1.034625  0
H  H40  1  0.93147860  0.62220691  0.36714507  1  0.132166  0  0.106337  0.115898  0  1.035076  0
H  H41  1  0.30890492  0.74493742  0.37783672  1  0.10094  0  0.105661  0.114905  0  1.034886  0
H  H42  1  0.43597231  0.36682837  0.74477818  1  0.11485  0  0.10633  0.116175  0  1.034686  0
H  H43  1  0.06852539  0.37778704  0.63284979  1  0.132271  0  0.106312  0.115864  0  1.034966  0
H  H44  1  0.69109801  0.25506243  0.62216554  1  0.100959  0  0.105667  0.114919  0  1.034942  0
H  H45  1  0.58670746  0.66259703  0.06514480  1  0.134199  0  0.093981  0.139306  0  1.068978  0
H  H46  1  0.92399909  0.40271202  0.33737240  1  0.128799  0  0.094215  0.139748  0  1.068151  0
H  H47  1  0.52116148  0.93486141  0.59727861  1  0.144416  0  0.094336  0.139542  0  1.069661  0
H  H48  1  0.41329644  0.33740872  0.93485826  1  0.134223  0  0.093986  0.139297  0  1.068936  0
H  H49  1  0.07600522  0.59728857  0.66262724  1  0.128779  0  0.094249  0.139791  0  1.068092  0
H  H50  1  0.47883957  0.06514065  0.40272309  1  0.14437  0  0.094341  0.139556  0  1.069697  0
H  H51  1  0.49191725  0.65445980  0.95311796  1  0.05936  0  0.089506  0.128075  0  1.026343  0
H  H52  1  0.83734087  0.29879604  0.34553379  1  0.024314  0  0.090355  0.129472  0  1.024785  0
H  H53  1  0.53839349  0.04689343  0.70120820  1  0.054852  0  0.090136  0.129117  0  1.026182  0
H  H54  1  0.50808728  0.34554522  0.04688425  1  0.059279  0  0.089474  0.128001  0  1.026425  0
H  H55  1  0.16266245  0.70120454  0.65446509  1  0.024251  0  0.090348  0.129481  0  1.024806  0
H  H56  1  0.46161329  0.95311011  0.29879555  1  0.054866  0  0.090132  0.129109  0  1.026184  0
H  H57  1  0.62273052  0.76798216  0.04913824  1  0.033774  0  0.089304  0.123164  0  0.992605  0
H  H58  1  0.85460884  0.28129237  0.23198459  1  -0.005401  0  0.089663  0.123571  0  0.992422  0
H  H59  1  0.57300534  0.95083028  0.71865819  1  0.026981  0  0.089233  0.123453  0  0.992476  0
H  H60  1  0.37727437  0.23202359  0.95086496  1  0.033907  0  0.089308  0.123167  0  0.992633  0
H  H61  1  0.14539148  0.71870821  0.76801388  1  -0.00537  0  0.08966  0.123585  0  0.992402  0
H  H62  1  0.42699634  0.04917105  0.28134329  1  0.026902  0  0.089228  0.123427  0  0.992448  0
C  C63  1  0.91195777  0.61177904  0.88742421  1  0.484267  0  0.048783  0.101345  0  3.967903  0
C  C64  1  0.29976383  0.27573084  0.38824970  1  0.50852  0  0.047379  0.099181  0  3.968852  0
C  C65  1  0.02408621  0.11241251  0.72427764  1  0.498306  0  0.047115  0.098664  0  3.96541  0
C  C66  1  0.08804938  0.38822524  0.11258178  1  0.483976  0  0.048761  0.101419  0  3.9679  0
C  C67  1  0.70024037  0.72426753  0.61174960  1  0.508432  0  0.047281  0.099024  0  3.969045  0
C  C68  1  0.97591699  0.88758586  0.27572277  1  0.498295  0  0.047113  0.098542  0  3.965354  0
C  C69  1  0.83314027  0.66060669  0.85651012  1  -0.023891  0  -0.093027  -0.131412  0  4.004813  0
C  C70  1  0.17204270  0.19599181  0.33930998  1  -0.050634  0  -0.093646  -0.133064  0  4.007245  0
C  C71  1  0.97611167  0.14316069  0.80404021  1  -0.044905  0  -0.092419  -0.130931  0  4.004093  0
C  C72  1  0.16686887  0.33939758  0.14349427  1  -0.023317  0  -0.093065  -0.13148  0  4.004861  0
C  C73  1  0.82795814  0.80400582  0.66068603  1  -0.050762  0  -0.093702  -0.133194  0  4.00733  0
C  C74  1  0.02389153  0.85683769  0.19595895  1  -0.044646  0  -0.092445  -0.130983  0  4.004028  0
C  C75  1  0.73079094  0.68402678  0.89795276  1  -0.021917  0  -0.074477  -0.100243  0  3.963076  0
C  C76  1  0.04639751  0.21406804  0.31581218  1  -0.090629  0  -0.073009  -0.099848  0  3.96411  0
C  C77  1  0.83230539  0.10175708  0.78598226  1  -0.081787  0  -0.074499  -0.101294  0  3.96568  0
C  C78  1  0.26921621  0.31597749  0.10205012  1  -0.021975  0  -0.074498  -0.100214  0  3.962985  0
C  C79  1  0.95360607  0.78593107  0.68418485  1  -0.090613  0  -0.072927  -0.099591  0  3.964025  0
C  C80  1  0.16770117  0.89824203  0.21401955  1  -0.081668  0  -0.074459  -0.101248  0  3.965615  0
C  C81  1  0.70683298  0.65956629  0.96885425  1  -0.035376  0  0.00367  0.110981  0  3.912757  0
C  C82  1  0.04708547  0.30947688  0.34039021  1  0.017567  0  0.0039  0.110264  0  3.913713  0
C  C83  1  0.73751289  0.03106502  0.69056668  1  0.045145  0  0.002755  0.110485  0  3.912009  0
C  C84  1  0.29317218  0.34043799  0.03114897  1  -0.035135  0  0.003672  0.111014  0  3.912602  0
C  C85  1  0.95291711  0.69052223  0.65960793  1  0.01729  0  0.003827  0.110085  0  3.913896  0
C  C86  1  0.26248968  0.96893409  0.30943521  1  0.044843  0  0.002733  0.110464  0  3.9119  0
C  C87  1  0.79083197  0.60963245  0.99557247  1  0.479493  0  0.12721  0.111279  0  3.937373  0
C  C88  1  0.18110006  0.38612625  0.39048249  1  0.475682  0  0.126987  0.111308  0  3.935387  0
C  C89  1  0.79488958  0.00446675  0.61390463  1  0.475979  0  0.126454  0.110082  0  3.935235  0
C  C90  1  0.20916982  0.39037109  0.00443059  1  0.479335  0  0.127205  0.111313  0  3.937295  0
C  C91  1  0.81890488  0.61387360  0.60951692  1  0.475761  0  0.127031  0.111425  0  3.935578  0
C  C92  1  0.20511324  0.99553088  0.38609666  1  0.476217  0  0.126472  0.110129  0  3.935091  0
C  C93  1  0.77918467  0.57503801  0.06590002  1  0.946677  0  0.201114  0.232261  0  4.049029  0
C  C94  1  0.20429721  0.49109418  0.42522555  1  0.971767  0  0.201779  0.234497  0  4.049455  0
C  C95  1  0.71309632  0.93421447  0.50895148  1  0.980017  0  0.200437  0.22984  0  4.05201  0
C  C96  1  0.22081575  0.42496479  0.93410254  1  0.94689  0  0.201056  0.232194  0  4.049026  0
C  C97  1  0.79570872  0.50890567  0.57477462  1  0.97185  0  0.201739  0.234346  0  4.049498  0
C  C98  1  0.28690451  0.06578317  0.49104890  1  0.980027  0  0.200347  0.229699  0  4.052049  0
C  C99  1  0.72361818  0.53317213  0.16490434  1  0.907643  0  0.193049  0.231721  0  4.100385  0
C  C100  1  0.19094709  0.63202253  0.46714057  1  0.9349  0  0.192391  0.230742  0  4.098874  0
C  C101  1  0.55881493  0.83512111  0.36806556  1  0.912258  0  0.191783  0.227763  0  4.102957  0
C  C102  1  0.27638335  0.46683289  0.83509932  1  0.907471  0  0.193016  0.231616  0  4.100454  0
C  C103  1  0.80905712  0.36797584  0.53285561  1  0.946287  0  0.19236  0.230737  0  4.098884  0
C  C104  1  0.44118391  0.16487652  0.63193455  1  0.911934  0  0.191792  0.227823  0  4.102944  0
C  C105  1  0.65647343  0.51902264  0.23134974  1  -0.015454  0  0.014857  0.076566  0  4.00668  0
C  C106  1  0.13804053  0.71261457  0.48128539  1  -0.070159  0  0.01654  0.078005  0  4.002435  0
C  C107  1  0.42532802  0.76863236  0.28747699  1  0.024119  0  0.017169  0.078623  0  4.004256  0
C  C108  1  0.34352736  0.48098090  0.76865382  1  -0.015477  0  0.014929  0.076773  0  4.006683  0
C  C109  1  0.86196368  0.28738380  0.51870954  1  -0.08107  0  0.01649  0.078009  0  4.002385  0
C  C110  1  0.57466719  0.23136601  0.71252357  1  0.024441  0  0.017127  0.078623  0  4.004361  0
C  C111  1  0.66941552  0.44629237  0.25613100  1  -0.002636  0  -0.085779  -0.175863  0  3.95704  0
C  C112  1  0.22366996  0.81015706  0.55398705  1  -0.027294  0  -0.08634  -0.177525  0  3.958914  0
C  C113  1  0.41359503  0.74371680  0.18993549  1  -0.069864  0  -0.086115  -0.176966  0  3.958878  0
C  C114  1  0.33058653  0.55370969  0.74387021  1  -0.002642  0  -0.085794  -0.175852  0  3.957075  0
C  C115  1  0.77632653  0.18983984  0.44600743  1  -0.027003  0  -0.086255  -0.17751  0  3.958639  0
C  C116  1  0.58639819  0.25628157  0.81006292  1  -0.0704  0  -0.086102  -0.177087  0  3.958783  0
C  C117  1  0.60910086  0.43667765  0.32250492  1  0.429096  0  0.043298  0.09627  0  3.9814  0
C  C118  1  0.17287904  0.88608267  0.56359848  1  0.475349  0  0.042425  0.097237  0  3.981424  0
C  C119  1  0.28695201  0.67734709  0.11398546  1  0.482935  0  0.040836  0.094909  0  3.982103  0
C  C120  1  0.39090145  0.56332294  0.67749632  1  0.429079  0  0.043329  0.096281  0  3.981386  0
C  C121  1  0.82711544  0.11391423  0.43639822  1  0.476899  0  0.042324  0.097097  0  3.981293  0
C  C122  1  0.71304395  0.32265276  0.88601583  1  0.483487  0  0.040837  0.095033  0  3.981826  0
C  C123  1  0.52260009  0.56278201  0.34019941  1  0.452788  0  0.045683  0.102399  0  3.953165  0
C  C124  1  0.96034552  0.77754669  0.43749455  1  0.529147  0  0.04613  0.10442  0  3.955765  0
C  C125  1  0.18265409  0.65983506  0.22247977  1  0.443379  0  0.046463  0.10209  0  3.956673  0
C  C126  1  0.47739985  0.43721784  0.65980430  1  0.452694  0  0.04568  0.102429  0  3.953185  0
C  C127  1  0.03965211  0.22244652  0.56249974  1  0.529209  0  0.046042  0.104406  0  3.955776  0
C  C128  1  0.81734386  0.34016479  0.77752242  1  0.442926  0  0.046529  0.102285  0  3.956604  0
C  C129  1  0.57803409  0.57679519  0.27338233  1  -0.030037  0  -0.080289  -0.159693  0  3.913865  0
C  C130  1  0.00181481  0.69677881  0.42350272  1  -0.084892  0  -0.082606  -0.162063  0  3.915784  0
C  C131  1  0.30482182  0.72666508  0.30327000  1  -0.009843  0  -0.081462  -0.15895  0  3.91538  0
C  C132  1  0.42196422  0.42320539  0.72662148  1  -0.029868  0  -0.080414  -0.159966  0  3.914115  0
C  C133  1  0.99818382  0.30321439  0.57648983  1  -0.084836  0  -0.082559  -0.162041  0  3.915736  0
C  C134  1  0.69517676  0.27333403  0.69673134  1  -0.009526  0  -0.081443  -0.158989  0  3.915493  0
C  C135  1  0.59591511  0.68732669  0.01210568  1  -0.114447  0  -0.247548  -0.418968  0  3.95361  0
C  C136  1  0.90845001  0.32495771  0.31263487  1  -0.034742  0  -0.248582  -0.420653  0  3.953781  0
C  C137  1  0.58333028  0.98786481  0.67505262  1  -0.132979  0  -0.247925  -0.420071  0  3.955138  0
C  C138  1  0.40409015  0.31267980  0.98789852  1  -0.114728  0  -0.247523  -0.418906  0  3.953623  0
C  C139  1  0.09155493  0.67504214  0.68736391  1  -0.034586  0  -0.2486  -0.420711  0  3.953767  0
C  C140  1  0.41667240  0.01213652  0.32494961  1  -0.132876  0  -0.247938  -0.420083  0  3.955126  0
N  N141  1  0.89136997  0.58717556  0.95483992  1  -1.291531  0  -0.353638  -0.341633  0  3.491068  0
N  N142  1  0.30398921  0.36778418  0.41293247  1  -1.29476  0  -0.353797  -0.341071  0  3.489871  0
N  N143  1  0.93616837  0.04518598  0.63221031  1  -1.286547  0  -0.3514  -0.339229  0  3.489355  0
N  N144  1  0.10863345  0.41282724  0.04516368  1  -1.291753  0  -0.353643  -0.341743  0  3.491151  0
N  N145  1  0.69601499  0.63221419  0.58706683  1  -1.294442  0  -0.353728  -0.341037  0  3.489974  0
N  N146  1  0.06383246  0.95481166  0.36778882  1  -1.28653  0  -0.351386  -0.33912  0  3.489303  0
N  N147  1  0.85943417  0.52087321  0.07881239  1  -0.802314  0  -0.303344  -0.335365  0  3.520712  0
N  N148  1  0.33878076  0.55811869  0.47943634  1  -0.800238  0  -0.302894  -0.337296  0  3.518925  0
N  N149  1  0.78063778  0.92122133  0.44193157  1  -0.803865  0  -0.301888  -0.333208  0  3.516545  0
N  N150  1  0.14056352  0.47912812  0.92118916  1  -0.801676  0  -0.303321  -0.335363  0  3.520836  0
N  N151  1  0.66122181  0.44188042  0.52056492  1  -0.800117  0  -0.302851  -0.337176  0  3.518791  0
N  N152  1  0.21935932  0.07877482  0.55806704  1  -0.803924  0  -0.301917  -0.333264  0  3.516588  0
N  N153  1  0.82364807  0.49322799  0.14147374  1  -0.661758  0  -0.233448  -0.265428  0  3.232692  0
N  N154  1  0.33087627  0.64846853  0.50709733  1  -0.68917  0  -0.233763  -0.263588  0  3.229959  0
N  N155  1  0.68235454  0.85848263  0.35159858  1  -0.677942  0  -0.233839  -0.265098  0  3.231705  0
N  N156  1  0.17635072  0.50677555  0.85853016  1  -0.662381  0  -0.233465  -0.265418  0  3.232707  0
N  N157  1  0.66912756  0.35152910  0.49290097  1  -0.689594  0  -0.233753  -0.263622  0  3.230038  0
N  N158  1  0.31764367  0.14151574  0.64840114  1  -0.677859  0  -0.233786  -0.265061  0  3.231735  0
N  N159  1  0.69342905  0.58527437  0.12007029  1  -1.140997  0  -0.333026  -0.395835  0  3.174582  0
N  N160  1  0.10849168  0.53510791  0.41501409  1  -1.163695  0  -0.332336  -0.395745  0  3.17728  0
N  N161  1  0.57321554  0.88006513  0.46497775  1  -1.165474  0  -0.332063  -0.392627  0  3.180854  0
N  N162  1  0.30657285  0.41473138  0.87993437  1  -1.140929  0  -0.332973  -0.395723  0  3.174539  0
N  N163  1  0.89151353  0.46489046  0.58498035  1  -1.163894  0  -0.332285  -0.395662  0  3.177309  0
N  N164  1  0.42678466  0.11993324  0.53502287  1  -1.165444  0  -0.332013  -0.392539  0  3.180722  0
N  N165  1  0.53858899  0.49484247  0.36616781  1  -1.293136  0  -0.361468  -0.328674  0  3.502871  0
N  N166  1  0.04419248  0.87148734  0.50542631  1  -1.308936  0  -0.35893  -0.328119  0  3.500334  0
N  N167  1  0.17275453  0.63377388  0.12855007  1  -1.296638  0  -0.359099  -0.326161  0  3.500746  0
N  N168  1  0.46141121  0.50515590  0.63383406  1  -1.293148  0  -0.361415  -0.328602  0  3.5028  0
N  N169  1  0.95580215  0.12850586  0.49456944  1  -1.310846  0  -0.358864  -0.328041  0  3.500379  0
N  N170  1  0.82724216  0.36622745  0.87145197  1  -1.296405  0  -0.359124  -0.326256  0  3.500795  0
