# generated using pymatgen
data_NaP2H15C6O7
_symmetry_space_group_name_H-M   'P 1'
_cell_length_a   6.43667652
_cell_length_b   9.11276748
_cell_length_c   12.40321314
_cell_angle_alpha   108.31077632
_cell_angle_beta   93.05658851
_cell_angle_gamma   101.00733771
_symmetry_Int_Tables_number   1
_chemical_formula_structural   NaP2H15C6O7
_chemical_formula_sum   'Na2 P4 H30 C12 O14'
_cell_volume   672.94811638
_cell_formula_units_Z   2
loop_
 _symmetry_equiv_pos_site_id
 _symmetry_equiv_pos_as_xyz
  1  'x, y, z'
loop_
 _atom_site_type_symbol
 _atom_site_label
 _atom_site_symmetry_multiplicity
 _atom_site_fract_x
 _atom_site_fract_y
 _atom_site_fract_z
 _atom_site_occupancy
 _atom_site_hle17_bader_spin_density
 _atom_site_hle17_ddec_charge
 _atom_site_hle17_ddec_spin_density
 _atom_site_hle17_ddec_sum_bond_order
 _atom_site_hle17_magmom
 _atom_site_hse06_10hf_bader_spin_density
 _atom_site_hse06_10hf_ddec_charge
 _atom_site_hse06_10hf_ddec_spin_density
 _atom_site_hse06_10hf_ddec_sum_bond_order
 _atom_site_hse06_10hf_magmom
 _atom_site_hse06_bader_spin_density
 _atom_site_hse06_ddec_charge
 _atom_site_hse06_ddec_spin_density
 _atom_site_hse06_ddec_sum_bond_order
 _atom_site_hse06_magmom
 _atom_site_pbe_bader_spin_density
 _atom_site_pbe_cm5_charge
 _atom_site_pbe_ddec_charge
 _atom_site_pbe_ddec_spin_density
 _atom_site_pbe_ddec_sum_bond_order
 _atom_site_pbe_magmom
Na  Na0  1  0.80165449  0.87502184  0.90342543  1  0  0.915502  0  0.397334  0  0  0.888585  0  0.528771  0  0  0.895505  0  0.511614  0  0  0.744852  0.883425  0  0.54087  0
Na  Na1  1  0.19835001  0.12497550  0.09657448  1  0  0.915503  0  0.397352  0  0  0.888605  0  0.528753  0  0  0.895529  0  0.511616  0  0  0.744868  0.883456  0  0.540864  0
P  P2  1  0.28517069  0.94644791  0.81959437  1  0  1.386075  0  4.819625  0  0  1.234022  0  5.318555  0  0  1.281925  0  5.283229  0  0  0.356925  1.200356  0  5.343461  0
P  P3  1  0.71489019  0.05354583  0.18039562  1  0  1.386141  0  4.819502  0  0  1.23403  0  5.318492  0  0  1.281952  0  5.28315  0  0  0.356921  1.200374  0  5.343373  0
P  P4  1  0.31969876  0.65723519  0.88078619  1  0  1.360865  0  4.756392  0  0  1.208104  0  5.253425  0  0  1.257248  0  5.21718  0  0  0.374644  1.174607  0  5.277597  0
P  P5  1  0.68029525  0.34276347  0.11921216  1  0  1.360841  0  4.756562  0  0  1.208101  0  5.253591  0  0  1.257243  0  5.21735  0  0  0.374623  1.174597  0  5.277766  0
H  H6  1  0.62633472  0.14109874  0.94518674  1  0  0.448956  0  0.855488  0  0  0.41264  0  0.927022  0  0  0.425422  0  0.908663  0  0  0.310905  0.403684  0  0.939909  0
H  H7  1  0.37367709  0.85890217  0.05481263  1  0  0.449153  0  0.855243  0  0  0.41273  0  0.926931  0  0  0.425509  0  0.908575  0  0  0.310923  0.403777  0  0.939815  0
H  H8  1  0.92505639  0.58976781  0.78367884  1  0  0.387418  0  0.839484  0  0  0.370657  0  0.898776  0  0  0.379317  0  0.888545  0  0  0.328741  0.364276  0  0.906449  0
H  H9  1  0.07494492  0.41023439  0.21631977  1  0  0.387392  0  0.839522  0  0  0.370626  0  0.898824  0  0  0.379283  0  0.888596  0  0  0.328721  0.364246  0  0.906499  0
H  H10  1  0.14748692  0.69089423  0.59565488  1  0  0.044829  0  0.930868  0  0  0.060575  0  0.990799  0  0  0.060382  0  0.991818  0  0  0.097111  0.060713  0  0.98986  0
H  H11  1  0.85251283  0.30910789  0.40434609  1  0  0.044778  0  0.930808  0  0  0.060493  0  0.990826  0  0  0.0603  0  0.991845  0  0  0.097068  0.06063  0  0.989886  0
H  H12  1  0.00216536  0.42681696  0.61873138  1  0  0.097411  0  0.948246  0  0  0.117737  0  1.010198  0  0  0.119763  0  1.009214  0  0  0.08596  0.116126  0  1.011061  0
H  H13  1  0.99781841  0.57318892  0.38126769  1  0  0.097366  0  0.948343  0  0  0.117747  0  1.010227  0  0  0.119769  0  1.00925  0  0  0.085924  0.116136  0  1.011093  0
H  H14  1  0.26775049  0.40775850  0.64737249  1  0  0.103334  0  0.948807  0  0  0.124906  0  1.008133  0  0  0.126688  0  1.00764  0  0  0.088762  0.123743  0  1.007793  0
H  H15  1  0.73223036  0.59223783  0.35262656  1  0  0.103351  0  0.948711  0  0  0.124877  0  1.008088  0  0  0.126667  0  1.007585  0  0  0.088748  0.123715  0  1.007751  0
H  H16  1  0.17728869  0.41789032  0.51243673  1  0  0.098138  0  0.963831  0  0  0.120643  0  1.0273  0  0  0.121581  0  1.028075  0  0  0.087649  0.119833  0  1.026881  0
H  H17  1  0.82269719  0.58210724  0.48756034  1  0  0.098162  0  0.963789  0  0  0.120634  0  1.027294  0  0  0.121573  0  1.028069  0  0  0.087647  0.119824  0  1.02687  0
H  H18  1  0.05765853  0.29596455  0.90487657  1  0  0.109425  0  0.945818  0  0  0.124268  0  1.009868  0  0  0.126055  0  1.008171  0  0  0.109908  0.123327  0  1.010224  0
H  H19  1  0.94233191  0.70403764  0.09512418  1  0  0.109499  0  0.945794  0  0  0.124285  0  1.00991  0  0  0.126072  0  1.008212  0  0  0.109915  0.123345  0  1.010265  0
H  H20  1  0.22254848  0.46182520  0.01410786  1  0  0.097787  0  0.938224  0  0  0.112307  0  1.003754  0  0  0.113993  0  1.002141  0  0  0.104657  0.110937  0  1.005142  0
H  H21  1  0.77744040  0.53817700  0.98589285  1  0  0.097807  0  0.938223  0  0  0.11235  0  1.003715  0  0  0.114035  0  1.002105  0  0  0.104674  0.110976  0  1.005102  0
H  H22  1  0.33963193  0.34657032  0.89829735  1  0  0.091069  0  0.928935  0  0  0.107136  0  0.99262  0  0  0.108449  0  0.991296  0  0  0.103737  0.10612  0  0.993412  0
H  H23  1  0.66035850  0.65343178  0.10170579  1  0  0.09105  0  0.928843  0  0  0.10712  0  0.992512  0  0  0.108435  0  0.991185  0  0  0.10374  0.106105  0  0.993305  0
H  H24  1  0.53728382  0.81857182  0.65261775  1  0  0.10577  0  0.971541  0  0  0.122666  0  1.038883  0  0  0.125034  0  1.037525  0  0  0.091226  0.120753  0  1.040151  0
H  H25  1  0.46271923  0.18142082  0.34738015  1  0  0.105777  0  0.971586  0  0  0.122684  0  1.038905  0  0  0.125043  0  1.037558  0  0  0.091238  0.120771  0  1.040175  0
H  H26  1  0.48555377  0.64291127  0.53253470  1  0  0.100631  0  0.955495  0  0  0.124942  0  1.01274  0  0  0.125708  0  1.013808  0  0  0.087218  0.124271  0  1.012182  0
H  H27  1  0.51444307  0.35708144  0.46746226  1  0  0.100637  0  0.955498  0  0  0.124934  0  1.012757  0  0  0.125705  0  1.01382  0  0  0.087204  0.124263  0  1.012195  0
H  H28  1  0.58358729  0.63968476  0.66838123  1  0  0.107921  0  0.972828  0  0  0.12613  0  1.039618  0  0  0.12844  0  1.038582  0  0  0.087714  0.124238  0  1.040667  0
H  H29  1  0.41640572  0.36030557  0.33161584  1  0  0.107957  0  0.972793  0  0  0.126179  0  1.039562  0  0  0.128474  0  1.038542  0  0  0.087732  0.124288  0  1.040613  0
H  H30  1  0.09133706  0.06418878  0.59504565  1  0  0.089876  0  0.932193  0  0  0.109264  0  0.992255  0  0  0.10952  0  0.992345  0  0  0.105895  0.109294  0  0.991563  0
H  H31  1  0.90866927  0.93581449  0.40495577  1  0  0.089856  0  0.932104  0  0  0.109228  0  0.992199  0  0  0.109485  0  0.992287  0  0  0.105877  0.109269  0  0.991495  0
H  H32  1  0.98538964  0.08205422  0.72842512  1  0  0.094064  0  0.935624  0  0  0.111702  0  0.996768  0  0  0.113128  0  0.995607  0  0  0.110402  0.110297  0  0.998036  0
H  H33  1  0.01462517  0.91795127  0.27157949  1  0  0.094078  0  0.935626  0  0  0.111694  0  0.996782  0  0  0.113121  0  0.995619  0  0  0.110418  0.110289  0  0.99805  0
H  H34  1  0.95325743  0.89064890  0.62182168  1  0  0.079995  0  0.942632  0  0  0.097177  0  1.009256  0  0  0.097893  0  1.008666  0  0  0.101837  0.096777  0  1.00941  0
H  H35  1  0.04674842  0.10935785  0.37818301  1  0  0.079974  0  0.942728  0  0  0.097172  0  1.009347  0  0  0.097888  0  1.008756  0  0  0.101842  0.09677  0  1.009504  0
C  C36  1  0.19816954  0.72435329  0.77097582  1  0  -0.25714  0  3.575941  0  0  -0.221089  0  3.824335  0  0  -0.230081  0  3.835037  0  0  0.058303  -0.215664  0  3.817664  0
C  C37  1  0.80183450  0.27564761  0.22902496  1  0  -0.2573  0  3.575926  0  0  -0.221238  0  3.824369  0  0  -0.230203  0  3.835023  0  0  0.058207  -0.215815  0  3.817701  0
C  C38  1  0.24591349  0.64460155  0.64706020  1  0  0.09954  0  3.657376  0  0  0.09957  0  3.898707  0  0  0.100959  0  3.917737  0  0  -0.086187  0.09849  0  3.886095  0
C  C39  1  0.75408471  0.35540062  0.35293993  1  0  0.099725  0  3.657138  0  0  0.099682  0  3.898611  0  0  0.10107  0  3.917641  0  0  -0.086149  0.098605  0  3.885998  0
C  C40  1  0.16838215  0.46387351  0.60481342  1  0  -0.322693  0  3.683116  0  0  -0.405853  0  3.932967  0  0  -0.408792  0  3.94317  0  0  -0.248531  -0.403484  0  3.925763  0
C  C41  1  0.83160828  0.53612868  0.39518732  1  0  -0.322691  0  3.683021  0  0  -0.405797  0  3.932875  0  0  -0.408739  0  3.943074  0  0  -0.248467  -0.403428  0  3.92567  0
C  C42  1  0.19758137  0.39265812  0.92275386  1  0  -0.030196  0  3.554638  0  0  -0.126337  0  3.822599  0  0  -0.119311  0  3.824098  0  0  -0.130688  -0.13016  0  3.820071  0
C  C43  1  0.80241062  0.60734408  0.07724612  1  0  -0.030278  0  3.554554  0  0  -0.126395  0  3.822512  0  0  -0.11937  0  3.824009  0  0  -0.130725  -0.130214  0  3.819982  0
C  C44  1  0.47725238  0.68991899  0.62490592  1  0  -0.337622  0  3.686449  0  0  -0.419993  0  3.931746  0  0  -0.423336  0  3.941569  0  0  -0.250741  -0.417424  0  3.925574  0
C  C45  1  0.52274602  0.31007368  0.37509188  1  0  -0.33771  0  3.686465  0  0  -0.420061  0  3.931772  0  0  -0.42339  0  3.941614  0  0  -0.250756  -0.417492  0  3.9256  0
C  C46  1  0.06024663  0.00811632  0.66055003  1  0  -0.035004  0  3.624158  0  0  -0.129187  0  3.882388  0  0  -0.122443  0  3.88624  0  0  -0.12686  -0.13359  0  3.879238  0
C  C47  1  0.93976590  0.99188687  0.33945234  1  0  -0.035006  0  3.624151  0  0  -0.129167  0  3.882381  0  0  -0.122411  0  3.886238  0  0  -0.126885  -0.13358  0  3.879227  0
O  O48  1  0.13718578  0.01711513  0.90059714  1  0  -0.913278  0  1.921938  0  0  -0.858088  0  2.189759  0  0  -0.879612  0  2.169107  0  0  -0.509783  -0.843017  0  2.203132  0
O  O49  1  0.86280645  0.98289274  0.09941231  1  0  -0.913105  0  1.92314  0  0  -0.857875  0  2.190902  0  0  -0.879411  0  2.170276  0  0  -0.509623  -0.84279  0  2.20424  0
O  O50  1  0.52221060  0.98820401  0.86106990  1  0  -0.862366  0  1.984781  0  0  -0.792137  0  2.232067  0  0  -0.815955  0  2.210763  0  0  -0.415951  -0.775294  0  2.2469  0
O  O51  1  0.47777621  0.01178656  0.13892143  1  0  -0.862609  0  1.983692  0  0  -0.792271  0  2.230973  0  0  -0.816095  0  2.209678  0  0  -0.416074  -0.775429  0  2.24581  0
O  O52  1  0.26458404  0.99422513  0.70521164  1  0  -0.450684  0  2.228068  0  0  -0.362275  0  2.473155  0  0  -0.381708  0  2.465245  0  0  -0.224839  -0.348888  0  2.478241  0
O  O53  1  0.73542275  0.00577459  0.29478812  1  0  -0.450663  0  2.227941  0  0  -0.362276  0  2.473026  0  0  -0.381743  0  2.465144  0  0  -0.224811  -0.348887  0  2.478112  0
O  O54  1  0.26912682  0.75583026  0.00100681  1  0  -0.748608  0  2.057008  0  0  -0.68027  0  2.290124  0  0  -0.701322  0  2.263898  0  0  -0.363335  -0.665886  0  2.308386  0
O  O55  1  0.73088260  0.24417288  0.99899789  1  0  -0.748384  0  2.057288  0  0  -0.680133  0  2.290308  0  0  -0.70119  0  2.264087  0  0  -0.363242  -0.665729  0  2.308549  0
O  O56  1  0.54655661  0.64667999  0.87068057  1  0  -0.834694  0  1.893236  0  0  -0.77546  0  2.142533  0  0  -0.799061  0  2.125373  0  0  -0.429553  -0.758637  0  2.153488  0
O  O57  1  0.45344946  0.35331745  0.12931618  1  0  -0.83465  0  1.893408  0  0  -0.775423  0  2.142712  0  0  -0.799025  0  2.125558  0  0  -0.429514  -0.758601  0  2.153676  0
O  O58  1  0.15568418  0.49074820  0.85482258  1  0  -0.475011  0  2.265889  0  0  -0.385121  0  2.514341  0  0  -0.406302  0  2.507454  0  0  -0.223715  -0.370646  0  2.518414  0
O  O59  1  0.84431365  0.50925273  0.14517885  1  0  -0.47498  0  2.265884  0  0  -0.38508  0  2.5143  0  0  -0.406262  0  2.507416  0  0  -0.223684  -0.370605  0  2.518377  0
O  O60  1  0.96917379  0.69325063  0.77398900  1  0  -0.551504  0  2.127794  0  0  -0.517359  0  2.353186  0  0  -0.529221  0  2.343308  0  0  -0.426342  -0.50874  0  2.360057  0
O  O61  1  0.03082942  0.30675265  0.22601235  1  0  -0.551479  0  2.127956  0  0  -0.517315  0  2.353318  0  0  -0.529181  0  2.343446  0  0  -0.426281  -0.508702  0  2.360198  0
