# generated using pymatgen
data_CdH20C18N4O5
_symmetry_space_group_name_H-M   'P 1'
_cell_length_a   6.71970131
_cell_length_b   17.38604071
_cell_length_c   17.91178346
_cell_angle_alpha   90.00020582
_cell_angle_beta   89.99989026
_cell_angle_gamma   90.00015612
_symmetry_Int_Tables_number   1
_chemical_formula_structural   CdH20C18N4O5
_chemical_formula_sum   'Cd4 H80 C72 N16 O20'
_cell_volume   2092.61576012
_cell_formula_units_Z   4
loop_
 _symmetry_equiv_pos_site_id
 _symmetry_equiv_pos_as_xyz
  1  'x, y, z'
loop_
 _atom_site_type_symbol
 _atom_site_label
 _atom_site_symmetry_multiplicity
 _atom_site_fract_x
 _atom_site_fract_y
 _atom_site_fract_z
 _atom_site_occupancy
 _atom_site_pbe_bader_charge
 _atom_site_pbe_bader_spin_density
 _atom_site_pbe_cm5_charge
 _atom_site_pbe_ddec_charge
 _atom_site_pbe_ddec_spin_density
 _atom_site_pbe_ddec_sum_bond_order
 _atom_site_pbe_magmom
Cd  Cd0  1  0.71055476  0.99306815  0.52289019  1  1.259479  0  0.755106  0.863992  0  2.167152  0
Cd  Cd1  1  0.28945182  0.00693046  0.02289209  1  1.259382  0  0.755145  0.864106  0  2.167075  0
Cd  Cd2  1  0.78944604  0.49306728  0.02289163  1  1.259417  0  0.755136  0.864119  0  2.166986  0
Cd  Cd3  1  0.21055162  0.50693018  0.52289122  1  1.259431  0  0.755116  0.864105  0  2.166999  0
H  H4  1  0.81384876  0.84970511  0.63035268  1  0.101636  0  0.117409  0.092612  0  0.987393  0
H  H5  1  0.18616178  0.15028987  0.13035683  1  0.101543  0  0.117427  0.092608  0  0.987328  0
H  H6  1  0.68616389  0.34970414  0.13035587  1  0.101615  0  0.117434  0.092717  0  0.987322  0
H  H7  1  0.31383623  0.65029775  0.63035365  1  0.101714  0  0.11741  0.092693  0  0.987261  0
H  H8  1  0.79898453  0.63668915  0.50653048  1  0.104369  0  0.113123  0.125211  0  1.014612  0
H  H9  1  0.20101023  0.36330652  0.00653312  1  0.104338  0  0.113136  0.125277  0  1.014599  0
H  H10  1  0.70102419  0.13669049  0.00652472  1  0.104413  0  0.11312  0.125196  0  1.014614  0
H  H11  1  0.29898990  0.86331093  0.50652437  1  0.104252  0  0.113148  0.12523  0  1.014588  0
H  H12  1  0.83185499  0.70434885  0.62759614  1  0.085961  0  0.107097  0.108999  0  1.004269  0
H  H13  1  0.16815556  0.29564498  0.12759522  1  0.086105  0  0.107063  0.10898  0  1.004408  0
H  H14  1  0.66815662  0.20434785  0.12758985  1  0.086089  0  0.107088  0.108939  0  1.004403  0
H  H15  1  0.33185096  0.79565345  0.62759091  1  0.086039  0  0.107066  0.108935  0  1.004386  0
H  H16  1  0.67067117  0.61011279  0.30176863  1  0.072741  0  0.100132  0.149639  0  1.017126  0
H  H17  1  0.32931028  0.38988571  0.80177107  1  0.072809  0  0.100119  0.149626  0  1.017133  0
H  H18  1  0.82932406  0.11011900  0.80176425  1  0.072655  0  0.100089  0.149604  0  1.017139  0
H  H19  1  0.17068567  0.88988353  0.30176317  1  0.072627  0  0.100104  0.149621  0  1.017038  0
H  H20  1  0.53911307  0.61758439  0.38762279  1  0.051119  0  0.09242  0.135252  0  1.052631  0
H  H21  1  0.46086947  0.38241213  0.88762511  1  0.05167  0  0.092366  0.135154  0  1.052585  0
H  H22  1  0.96087884  0.11759189  0.88762055  1  0.051238  0  0.092399  0.13524  0  1.052577  0
H  H23  1  0.03912305  0.88240981  0.38761953  1  0.051257  0  0.092385  0.135219  0  1.052599  0
H  H24  1  0.79009584  0.58717334  0.38815469  1  0.101371  0  0.097605  0.157083  0  1.039677  0
H  H25  1  0.20988521  0.41282548  0.88815731  1  0.101145  0  0.097627  0.157058  0  1.039786  0
H  H26  1  0.70989733  0.08718000  0.88815208  1  0.10139  0  0.097667  0.157157  0  1.039664  0
H  H27  1  0.29011199  0.91282227  0.38815154  1  0.101386  0  0.097645  0.157108  0  1.039632  0
H  H28  1  0.71298026  0.85810793  0.40252618  1  0.111741  0  0.119933  0.087417  0  1.024568  0
H  H29  1  0.28701709  0.14189094  0.90252556  1  0.111595  0  0.119927  0.087443  0  1.024711  0
H  H30  1  0.78701182  0.35811122  0.90252742  1  0.112195  0  0.119936  0.087432  0  1.024726  0
H  H31  1  0.21297809  0.64188881  0.40252767  1  0.112204  0  0.119913  0.087418  0  1.024742  0
H  H32  1  0.80514035  0.62097704  0.14888544  1  0.128089  0  0.116583  0.082829  0  1.047296  0
H  H33  1  0.19486415  0.37902435  0.64888516  1  0.128136  0  0.116602  0.082852  0  1.047323  0
H  H34  1  0.69486759  0.12097850  0.64888173  1  0.128283  0  0.116604  0.082878  0  1.047348  0
H  H35  1  0.30513691  0.87902230  0.14888217  1  0.12821  0  0.11659  0.082858  0  1.047366  0
H  H36  1  0.65297372  0.87879880  0.18210430  1  0.06397  0  0.098911  0.143727  0  1.0181  0
H  H37  1  0.34701574  0.12120385  0.68210412  1  0.064066  0  0.098907  0.14373  0  1.01805  0
H  H38  1  0.84701062  0.37880043  0.68209935  1  0.064041  0  0.098906  0.143759  0  1.01799  0
H  H39  1  0.15298331  0.62120108  0.18210181  1  0.063993  0  0.098903  0.143724  0  1.018112  0
H  H40  1  0.91163261  0.88557963  0.16448006  1  0.060791  0  0.100485  0.150678  0  0.99206  0
H  H41  1  0.08836289  0.11442296  0.66448173  1  0.060817  0  0.100451  0.150597  0  0.992233  0
H  H42  1  0.58836526  0.38558041  0.66447531  1  0.060684  0  0.100481  0.150662  0  0.992023  0
H  H43  1  0.41163768  0.61441700  0.16447699  1  0.060704  0  0.100483  0.150645  0  0.99196  0
H  H44  1  0.82352872  0.87213046  0.25810782  1  0.095005  0  0.103387  0.150232  0  1.027768  0
H  H45  1  0.17646336  0.12786845  0.75810780  1  0.094804  0  0.103434  0.150311  0  1.027677  0
H  H46  1  0.67645521  0.37213364  0.75810245  1  0.094894  0  0.103349  0.150157  0  1.027855  0
H  H47  1  0.32353538  0.62786930  0.25810312  1  0.094888  0  0.103381  0.150192  0  1.027887  0
H  H48  1  0.80746442  0.85034593  0.05490022  1  0.13775  0  0.108854  0.114316  0  1.018716  0
H  H49  1  0.19253457  0.14965395  0.55490305  1  0.137666  0  0.108878  0.114369  0  1.018639  0
H  H50  1  0.69252925  0.35034337  0.55489707  1  0.137839  0  0.108845  0.114327  0  1.018683  0
H  H51  1  0.30746230  0.64965306  0.05489504  1  0.137759  0  0.108837  0.114317  0  1.018614  0
H  H52  1  0.78904564  0.64521112  0.91939112  1  0.113273  0  0.115101  0.088142  0  1.013861  0
H  H53  1  0.21095312  0.35478782  0.41939149  1  0.113278  0  0.115075  0.088115  0  1.013834  0
H  H54  1  0.71095822  0.14520902  0.41938535  1  0.113123  0  0.11508  0.08819  0  1.013826  0
H  H55  1  0.28904203  0.85478934  0.91938832  1  0.113194  0  0.115101  0.088169  0  1.013901  0
H  H56  1  0.79427405  0.79001352  0.92932337  1  0.077683  0  0.112401  0.117397  0  0.975987  0
H  H57  1  0.20572913  0.20998488  0.42932437  1  0.077682  0  0.112428  0.11745  0  0.97596  0
H  H58  1  0.70572634  0.29001199  0.42931873  1  0.07757  0  0.112393  0.117344  0  0.976075  0
H  H59  1  0.29426493  0.70998641  0.92932064  1  0.077583  0  0.112382  0.117353  0  0.976013  0
H  H60  1  0.20987426  0.98172583  0.72156573  1  0.067937  0  0.102433  0.124735  0  0.983197  0
H  H61  1  0.79014032  0.01827985  0.22156895  1  0.067759  0  0.102501  0.124825  0  0.983165  0
H  H62  1  0.29013762  0.48172093  0.22156772  1  0.067677  0  0.102508  0.124824  0  0.983087  0
H  H63  1  0.70986207  0.51828014  0.72156640  1  0.06767  0  0.102499  0.124822  0  0.983157  0
H  H64  1  0.33701796  0.89507767  0.73461504  1  0.046735  0  0.096742  0.106727  0  0.974565  0
H  H65  1  0.66299804  0.10492518  0.23462090  1  0.046631  0  0.096792  0.10684  0  0.974592  0
H  H66  1  0.16298579  0.39507379  0.23461824  1  0.046592  0  0.096764  0.106778  0  0.974577  0
H  H67  1  0.83701979  0.60492618  0.73461937  1  0.04663  0  0.096786  0.106802  0  0.974519  0
H  H68  1  0.51028145  0.05270548  0.77752102  1  0.053687  0  0.103267  0.118402  0  0.995154  0
H  H69  1  0.48972393  0.94729868  0.27751709  1  0.053247  0  0.103251  0.118389  0  0.99524  0
H  H70  1  0.98971497  0.55270018  0.27751956  1  0.053535  0  0.103239  0.11836  0  0.995216  0
H  H71  1  0.01027702  0.44729478  0.77751910  1  0.053736  0  0.103269  0.118413  0  0.995151  0
H  H72  1  0.62276737  0.96474129  0.79582727  1  0.084161  0  0.10015  0.121514  0  0.969194  0
H  H73  1  0.37724239  0.03526409  0.29582920  1  0.083981  0  0.100146  0.121455  0  0.96928  0
H  H74  1  0.87723937  0.46473418  0.29583031  1  0.083938  0  0.100157  0.121458  0  0.969153  0
H  H75  1  0.12275848  0.53526027  0.79583118  1  0.084236  0  0.100143  0.121433  0  0.969296  0
H  H76  1  0.16594864  0.99366265  0.55134318  1  0.663065  0  0.288081  0.39951  0  0.936194  0
H  H77  1  0.83406822  0.00634067  0.05134801  1  0.663088  0  0.28808  0.399588  0  0.936104  0
H  H78  1  0.33406561  0.49366125  0.05134626  1  0.663136  0  0.288088  0.39959  0  0.936094  0
H  H79  1  0.66593488  0.50633862  0.55134717  1  0.663122  0  0.288096  0.39961  0  0.936077  0
H  H80  1  0.09938283  0.01537590  0.46907556  1  0.609403  0  0.31577  0.408498  0  0.881669  0
H  H81  1  0.90062313  0.98462322  0.96907907  1  0.609459  0  0.315774  0.408579  0  0.881604  0
H  H82  1  0.40062601  0.51537524  0.96907733  1  0.609428  0  0.315831  0.408614  0  0.881531  0
H  H83  1  0.59937847  0.48462561  0.46907841  1  0.609438  0  0.315798  0.408572  0  0.881639  0
C  C84  1  0.79791502  0.81700349  0.57864645  1  0.484031  0  0.042124  0.079392  0  3.960877  0
C  C85  1  0.20209428  0.18299131  0.07864623  1  0.483926  0  0.042195  0.079501  0  3.96086  0
C  C86  1  0.70209169  0.31700368  0.07864571  1  0.483777  0  0.042044  0.079207  0  3.960868  0
C  C87  1  0.29790422  0.68299859  0.57864418  1  0.483788  0  0.04212  0.079275  0  3.960791  0
C  C88  1  0.76061282  0.74252852  0.44321593  1  -0.004437  0  0.000659  -0.015388  0  3.961371  0
C  C89  1  0.23939327  0.25746763  0.94321799  1  -0.00442  0  0.000641  -0.015409  0  3.96172  0
C  C90  1  0.73939163  0.24253291  0.94321274  1  -0.004441  0  0.000581  -0.01551  0  3.961349  0
C  C91  1  0.26060404  0.75746841  0.44321392  1  -0.004458  0  0.000557  -0.01552  0  3.961475  0
C  C92  1  0.75062879  0.70748705  0.36820492  1  0.631371  0  0.150039  0.271023  0  3.930338  0
C  C93  1  0.24936426  0.29251055  0.86821044  1  0.631493  0  0.150038  0.270976  0  3.930601  0
C  C94  1  0.74937278  0.20749202  0.86820340  1  0.631309  0  0.149992  0.270907  0  3.930629  0
C  C95  1  0.25063068  0.79250845  0.36820414  1  0.631303  0  0.150043  0.271103  0  3.930466  0
C  C96  1  0.78757204  0.69912660  0.50837351  1  0.052741  0  -0.060751  -0.057376  0  3.887977  0
C  C97  1  0.21242420  0.30087024  0.00837426  1  0.052854  0  -0.06077  -0.057402  0  3.888084  0
C  C98  1  0.71242968  0.19912795  0.00837054  1  0.053263  0  -0.06074  -0.057283  0  3.887755  0
C  C99  1  0.28756804  0.80087291  0.50836997  1  0.053432  0  -0.060756  -0.057361  0  3.887891  0
C  C100  1  0.80671825  0.77185908  0.18981685  1  0.652672  0  0.145077  0.258242  0  3.938108  0
C  C101  1  0.19327118  0.22814591  0.68981829  1  0.652736  0  0.144947  0.258189  0  3.938192  0
C  C102  1  0.69327421  0.27185767  0.68981091  1  0.653206  0  0.145006  0.258175  0  3.938184  0
C  C103  1  0.30672712  0.72813926  0.18981362  1  0.652878  0  0.144922  0.258122  0  3.938014  0
C  C104  1  0.80762945  0.73708017  0.57652926  1  -0.089962  0  -0.084422  -0.124641  0  4.004619  0
C  C105  1  0.19237539  0.26291346  0.07652877  1  -0.089912  0  -0.084444  -0.124723  0  4.004842  0
C  C106  1  0.69236924  0.23708035  0.07652407  1  -0.090127  0  -0.084364  -0.124524  0  4.004677  0
C  C107  1  0.30762518  0.76292134  0.57652503  1  -0.090208  0  -0.084372  -0.124536  0  4.004682  0
C  C108  1  0.68365679  0.62625114  0.36048084  1  -0.072149  0  -0.24821  -0.479129  0  3.937913  0
C  C109  1  0.31632736  0.37374758  0.86048491  1  -0.072627  0  -0.248164  -0.478968  0  3.937893  0
C  C110  1  0.81634275  0.12625676  0.86047871  1  -0.072186  0  -0.248254  -0.479177  0  3.937926  0
C  C111  1  0.18366224  0.87374484  0.36047867  1  -0.072204  0  -0.248243  -0.479196  0  3.93771  0
C  C112  1  0.74466595  0.82261922  0.45117006  1  0.479979  0  0.05469  0.057799  0  3.934666  0
C  C113  1  0.25533713  0.17737581  0.95116903  1  0.479977  0  0.054831  0.057859  0  3.9348  0
C  C114  1  0.75533160  0.32262420  0.95116742  1  0.479372  0  0.054804  0.057955  0  3.934805  0
C  C115  1  0.24465659  0.67737773  0.45116721  1  0.479398  0  0.054853  0.057951  0  3.934785  0
C  C116  1  0.80568825  0.66044194  0.10158313  1  0.472847  0  0.054043  0.056247  0  3.91992  0
C  C117  1  0.19430755  0.33956041  0.60158383  1  0.472794  0  0.054015  0.05615  0  3.919977  0
C  C118  1  0.69431425  0.16044053  0.60157830  1  0.472591  0  0.053934  0.056123  0  3.920295  0
C  C119  1  0.30568155  0.83955780  0.10157972  1  0.472639  0  0.054011  0.0562  0  3.920151  0
C  C120  1  0.80735376  0.74036931  0.11338611  1  -0.026592  0  -0.004041  -0.024677  0  3.974531  0
C  C121  1  0.19263156  0.25963194  0.61338597  1  -0.026326  0  -0.004041  -0.024537  0  3.974409  0
C  C122  1  0.69263735  0.24036675  0.61337961  1  -0.02663  0  -0.00393  -0.024506  0  3.974468  0
C  C123  1  0.30735988  0.75962933  0.11338075  1  -0.026578  0  -0.003942  -0.024527  0  3.974394  0
C  C124  1  0.79957536  0.85712865  0.19957148  1  -0.102487  0  -0.23988  -0.462852  0  3.926912  0
C  C125  1  0.20041551  0.14287522  0.69957261  1  -0.102477  0  -0.239927  -0.462939  0  3.927031  0
C  C126  1  0.70041470  0.35712725  0.69956720  1  -0.10249  0  -0.239852  -0.462822  0  3.926887  0
C  C127  1  0.29957617  0.64287145  0.19956851  1  -0.102266  0  -0.239826  -0.462727  0  3.926873  0
C  C128  1  0.80424680  0.78787339  0.04994192  1  -0.080381  0  -0.063932  -0.062927  0  3.905746  0
C  C129  1  0.19574180  0.21212820  0.54994385  1  -0.080657  0  -0.06394  -0.063024  0  3.905681  0
C  C130  1  0.69573900  0.28787026  0.54993709  1  -0.080767  0  -0.063929  -0.06306  0  3.905863  0
C  C131  1  0.30425555  0.71212731  0.04993752  1  -0.080771  0  -0.06394  -0.063046  0  3.905811  0
C  C132  1  0.46623695  0.96691395  0.65131799  1  1.536773  0  0.197662  0.612723  0  4.169779  0
C  C133  1  0.53377944  0.03309435  0.15131756  1  1.536936  0  0.197776  0.612888  0  4.16966  0
C  C134  1  0.03377068  0.46690879  0.15131739  1  1.53711  0  0.197709  0.612903  0  4.169746  0
C  C135  1  0.96622934  0.53309088  0.65131816  1  1.537109  0  0.19772  0.612894  0  4.169747  0
C  C136  1  0.79716057  0.67456121  0.97311222  1  0.447405  0  0.043917  0.081147  0  3.955441  0
C  C137  1  0.20283794  0.32543736  0.47311306  1  0.447488  0  0.043952  0.081204  0  3.955222  0
C  C138  1  0.70283284  0.17456140  0.47310702  1  0.447401  0  0.043953  0.081037  0  3.955284  0
C  C139  1  0.29716418  0.82543774  0.97310877  1  0.447398  0  0.043899  0.081056  0  3.955376  0
C  C140  1  0.79829035  0.75432291  0.97932503  1  0.03341  0  -0.083024  -0.12646  0  4.011424  0
C  C141  1  0.20170515  0.24567338  0.47932727  1  0.033424  0  -0.083033  -0.126478  0  4.011293  0
C  C142  1  0.70169913  0.25432483  0.47932039  1  0.033617  0  -0.083032  -0.126286  0  4.011481  0
C  C143  1  0.29829637  0.74567491  0.97932130  1  0.033638  0  -0.082992  -0.126289  0  4.011388  0
C  C144  1  0.36006685  0.95727756  0.72583767  1  -0.05292  0  -0.166155  -0.275678  0  3.963825  0
C  C145  1  0.63994176  0.04272756  0.22583943  1  -0.053164  0  -0.166265  -0.276021  0  3.963958  0
C  C146  1  0.13993888  0.45727251  0.22584034  1  -0.052948  0  -0.166289  -0.275988  0  3.963837  0
C  C147  1  0.86006079  0.54272628  0.72584067  1  -0.053073  0  -0.166317  -0.276007  0  3.963997  0
C  C148  1  0.47634580  0.99212582  0.79035500  1  -0.056531  0  -0.169938  -0.274472  0  3.95028  0
C  C149  1  0.52366101  0.00787839  0.29035504  1  -0.055549  0  -0.169879  -0.274291  0  3.950384  0
C  C150  1  0.02365839  0.49212180  0.29035607  1  -0.055853  0  -0.169854  -0.274195  0  3.950281  0
C  C151  1  0.97633651  0.50787436  0.79035620  1  -0.056212  0  -0.169838  -0.274208  0  3.950471  0
C  C152  1  0.37419376  0.99218745  0.86607558  1  1.545645  0  0.185447  0.600667  0  4.197684  0
C  C153  1  0.62581567  0.00781187  0.36607443  1  1.545606  0  0.185363  0.6006  0  4.197416  0
C  C154  1  0.12580710  0.49218699  0.36607379  1  1.545653  0  0.185332  0.600529  0  4.197833  0
C  C155  1  0.87418596  0.50781175  0.86607399  1  1.545664  0  0.185273  0.600482  0  4.197677  0
N  N156  1  0.76423525  0.85888638  0.51664657  1  -1.243704  0  -0.329765  -0.244963  0  3.539787  0
N  N157  1  0.23577285  0.14110934  0.01664562  1  -1.243779  0  -0.329906  -0.245083  0  3.53988  0
N  N158  1  0.73577056  0.35888833  0.01664636  1  -1.243781  0  -0.329821  -0.245063  0  3.539839  0
N  N159  1  0.26422414  0.64111371  0.51664471  1  -1.243772  0  -0.329815  -0.245035  0  3.539768  0
N  N160  1  0.80687122  0.72182134  0.24412068  1  -0.763431  0  -0.204669  -0.200816  0  3.295791  0
N  N161  1  0.19311051  0.27818155  0.74412341  1  -0.763376  0  -0.204537  -0.200764  0  3.295887  0
N  N162  1  0.69312063  0.22182223  0.74411697  1  -0.763695  0  -0.20456  -0.200751  0  3.296026  0
N  N163  1  0.30687747  0.77817778  0.24411763  1  -0.763582  0  -0.20458  -0.200799  0  3.295894  0
N  N164  1  0.80679527  0.75305514  0.31437226  1  -0.743667  0  -0.205864  -0.204831  0  3.323993  0
N  N165  1  0.19319654  0.24694513  0.81437375  1  -0.74364  0  -0.205906  -0.204833  0  3.323975  0
N  N166  1  0.69320242  0.25305719  0.81436799  1  -0.743524  0  -0.20584  -0.20473  0  3.324269  0
N  N167  1  0.30679981  0.74694309  0.31436965  1  -0.743564  0  -0.205882  -0.204839  0  3.324245  0
N  N168  1  0.80250660  0.62863469  0.03366186  1  -1.225185  0  -0.326481  -0.228527  0  3.519236  0
N  N169  1  0.19749993  0.37136569  0.53366155  1  -1.22518  0  -0.326472  -0.228532  0  3.519178  0
N  N170  1  0.69750044  0.12863271  0.53365647  1  -1.224974  0  -0.326452  -0.228437  0  3.51928  0
N  N171  1  0.30250013  0.87136537  0.03365745  1  -1.224882  0  -0.326462  -0.228489  0  3.51931  0
O  O172  1  0.65322299  0.98072857  0.65139945  1  -1.147216  0  -0.336255  -0.556304  0  2.172266  0
O  O173  1  0.34679786  0.01927512  0.15139577  1  -1.147577  0  -0.336248  -0.556287  0  2.172094  0
O  O174  1  0.84678752  0.48072489  0.15139917  1  -1.147513  0  -0.336188  -0.556269  0  2.1723  0
O  O175  1  0.15321399  0.51927650  0.65139829  1  -1.147526  0  -0.336182  -0.556275  0  2.172334  0
O  O176  1  0.36742762  0.95997431  0.59098734  1  -1.207861  0  -0.33278  -0.59551  0  2.235822  0
O  O177  1  0.63260394  0.04003664  0.09099188  1  -1.207449  0  -0.332882  -0.595627  0  2.236028  0
O  O178  1  0.13258472  0.45996983  0.09098889  1  -1.207805  0  -0.332854  -0.595697  0  2.235935  0
O  O179  1  0.86741410  0.54002904  0.59098865  1  -1.2078  0  -0.332875  -0.5957  0  2.235832  0
O  O180  1  0.18892952  0.98308121  0.87268078  1  -1.206219  0  -0.347171  -0.576395  0  2.072684  0
O  O181  1  0.81107839  0.01691756  0.37268120  1  -1.206283  0  -0.347134  -0.576361  0  2.072465  0
O  O182  1  0.31106826  0.48308151  0.37268276  1  -1.206213  0  -0.347156  -0.576375  0  2.07278  0
O  O183  1  0.68892328  0.51691955  0.87268090  1  -1.20627  0  -0.34713  -0.576339  0  2.072466  0
O  O184  1  0.49167148  0.00448545  0.92211012  1  -1.162804  0  -0.353626  -0.590517  0  2.246316  0
O  O185  1  0.50833173  0.99551177  0.42210913  1  -1.162705  0  -0.353621  -0.590506  0  2.246173  0
O  O186  1  0.00832411  0.50448655  0.42210903  1  -1.162833  0  -0.353584  -0.59048  0  2.246218  0
O  O187  1  0.99166273  0.49551355  0.92210798  1  -1.162809  0  -0.353556  -0.590465  0  2.246325  0
O  O188  1  0.05868151  0.01913186  0.52119378  1  -1.24126  0  -0.581694  -0.762772  0  2.043959  0
O  O189  1  0.94132955  0.98086904  0.02119688  1  -1.241333  0  -0.58171  -0.762938  0  2.043792  0
O  O190  1  0.44132947  0.51913054  0.02119572  1  -1.241305  0  -0.58177  -0.762966  0  2.04376  0
O  O191  1  0.55867117  0.48086980  0.52119662  1  -1.241325  0  -0.581747  -0.762932  0  2.043846  0
