# generated using pymatgen
data_ZnH10C11N4Cl2O
_symmetry_space_group_name_H-M   'P 1'
_cell_length_a   9.31700980
_cell_length_b   9.31699920
_cell_length_c   10.34555458
_cell_angle_alpha   104.37603949
_cell_angle_beta   104.37581399
_cell_angle_gamma   116.64191798
_symmetry_Int_Tables_number   1
_chemical_formula_structural   ZnH10C11N4Cl2O
_chemical_formula_sum   'Zn2 H20 C22 N8 Cl4 O2'
_cell_volume   707.33584502
_cell_formula_units_Z   2
loop_
 _symmetry_equiv_pos_site_id
 _symmetry_equiv_pos_as_xyz
  1  'x, y, z'
loop_
 _atom_site_type_symbol
 _atom_site_label
 _atom_site_symmetry_multiplicity
 _atom_site_fract_x
 _atom_site_fract_y
 _atom_site_fract_z
 _atom_site_occupancy
 _atom_site_hle17_bader_spin_density
 _atom_site_hle17_ddec_charge
 _atom_site_hle17_ddec_spin_density
 _atom_site_hle17_ddec_sum_bond_order
 _atom_site_hle17_magmom
 _atom_site_hse06_10hf_bader_spin_density
 _atom_site_hse06_10hf_ddec_charge
 _atom_site_hse06_10hf_ddec_spin_density
 _atom_site_hse06_10hf_ddec_sum_bond_order
 _atom_site_hse06_10hf_magmom
 _atom_site_hse06_bader_spin_density
 _atom_site_hse06_ddec_charge
 _atom_site_hse06_ddec_spin_density
 _atom_site_hse06_ddec_sum_bond_order
 _atom_site_hse06_magmom
 _atom_site_pbe_bader_spin_density
 _atom_site_pbe_cm5_charge
 _atom_site_pbe_ddec_charge
 _atom_site_pbe_ddec_spin_density
 _atom_site_pbe_ddec_sum_bond_order
 _atom_site_pbe_magmom
Zn  Zn0  1  0.45877992  0.54121826  0.49999986  1  0  0.808244  0  2.184378  0  0  0.628853  0  2.679565  0  0  0.666701  0  2.635753  0  0  0.558305  0.602113  0  2.7101  0
Zn  Zn1  1  0.20870602  0.79129228  0.99999864  1  0  0.808009  0  2.183426  0  0  0.629366  0  2.678331  0  0  0.667187  0  2.634647  0  0  0.558863  0.603252  0  2.707994  0
H  H2  1  0.52069597  0.74964864  0.80358482  1  0  0.078358  0  0.956835  0  0  0.080418  0  1.03217  0  0  0.083492  0  1.029499  0  0  0.104916  0.078086  0  1.03422  0
H  H3  1  0.25035023  0.47930518  0.19641306  1  0  0.078386  0  0.956797  0  0  0.080443  0  1.032138  0  0  0.083514  0  1.029467  0  0  0.104935  0.078115  0  1.034182  0
H  H4  1  0.30371015  0.03277578  0.30354728  1  0  0.078937  0  0.958243  0  0  0.080789  0  1.033665  0  0  0.083843  0  1.030976  0  0  0.105122  0.078614  0  1.035434  0
H  H5  1  0.96722506  0.69628864  0.69644971  1  0  0.078894  0  0.958278  0  0  0.080762  0  1.033692  0  0  0.083815  0  1.031004  0  0  0.105108  0.078583  0  1.035473  0
H  H6  1  0.57018974  0.04488190  0.93536099  1  0  0.106862  0  0.96642  0  0  0.113717  0  1.031841  0  0  0.116478  0  1.03132  0  0  0.100672  0.112066  0  1.031779  0
H  H7  1  0.95511746  0.42981420  0.06464126  1  0  0.10688  0  0.9664  0  0  0.113743  0  1.031808  0  0  0.116505  0  1.031285  0  0  0.100681  0.112092  0  1.031746  0
H  H8  1  0.14017616  0.11496446  0.43536828  1  0  0.106908  0  0.965014  0  0  0.113576  0  1.030638  0  0  0.116385  0  1.030092  0  0  0.100559  0.111605  0  1.030988  0
H  H9  1  0.88503557  0.85982315  0.56463193  1  0  0.106908  0  0.96501  0  0  0.113566  0  1.030647  0  0  0.116376  0  1.030098  0  0  0.100559  0.111594  0  1.030997  0
H  H10  1  0.62839849  0.25601601  0.81740516  1  0  0.127525  0  0.964916  0  0  0.133617  0  1.030199  0  0  0.137342  0  1.027149  0  0  0.107378  0.130802  0  1.032541  0
H  H11  1  0.74398604  0.37160612  0.18259808  1  0  0.127521  0  0.964933  0  0  0.133644  0  1.030187  0  0  0.137373  0  1.027131  0  0  0.107376  0.130828  0  1.032531  0
H  H12  1  0.81116141  0.93898394  0.31737773  1  0  0.128032  0  0.965581  0  0  0.134421  0  1.030597  0  0  0.13816  0  1.027495  0  0  0.107522  0.131605  0  1.032853  0
H  H13  1  0.06101522  0.18883730  0.68262434  1  0  0.128014  0  0.965547  0  0  0.13437  0  1.030602  0  0  0.138134  0  1.027464  0  0  0.107504  0.131566  0  1.032845  0
H  H14  1  0.57437646  0.86330924  0.44816030  1  0  0.09446  0  0.945744  0  0  0.098061  0  1.018365  0  0  0.101098  0  1.015322  0  0  0.114307  0.095898  0  1.020498  0
H  H15  1  0.13669185  0.42562380  0.55183991  1  0  0.094468  0  0.945711  0  0  0.09806  0  1.01834  0  0  0.101097  0  1.015296  0  0  0.114313  0.095895  0  1.020471  0
H  H16  1  0.83472803  0.62384752  0.94812771  1  0  0.094822  0  0.947154  0  0  0.098102  0  1.01977  0  0  0.101216  0  1.016648  0  0  0.114306  0.095803  0  1.02194  0
H  H17  1  0.37615310  0.16526829  0.05186975  1  0  0.094816  0  0.947167  0  0  0.098104  0  1.019783  0  0  0.101219  0  1.01666  0  0  0.114298  0.095805  0  1.021957  0
H  H18  1  0.61631663  0.28627784  0.58358894  1  0  0.290067  0  0.939977  0  0  0.271455  0  1.0102  0  0  0.27884  0  1.004557  0  0  0.283996  0.266229  0  1.014266  0
H  H19  1  0.71372338  0.38368409  0.41641234  1  0  0.29008  0  0.939892  0  0  0.271467  0  1.010135  0  0  0.278847  0  1.004493  0  0  0.283988  0.266242  0  1.014201  0
H  H20  1  0.54712765  0.71728221  0.08353564  1  0  0.290795  0  0.939142  0  0  0.272104  0  1.009381  0  0  0.279514  0  1.003705  0  0  0.284465  0.266859  0  1.013364  0
H  H21  1  0.28271864  0.45287229  0.91646426  1  0  0.29078  0  0.939117  0  0  0.27208  0  1.009363  0  0  0.279489  0  1.003689  0  0  0.284456  0.266836  0  1.013349  0
C  C22  1  0.54506688  0.84588624  0.75603340  1  0  0.101963  0  3.706147  0  0  0.070219  0  3.952355  0  0  0.076335  0  3.970759  0  0  0.033565  0.066375  0  3.940248  0
C  C23  1  0.15411379  0.45493372  0.24396570  1  0  0.101849  0  3.706113  0  0  0.0701  0  3.952341  0  0  0.076228  0  3.970725  0  0  0.033494  0.066256  0  3.940239  0
C  C24  1  0.15993903  0.96092214  0.25597993  1  0  0.099335  0  3.70918  0  0  0.068157  0  3.955799  0  0  0.074584  0  3.973693  0  0  0.032425  0.06388  0  3.943815  0
C  C25  1  0.03907854  0.84005888  0.74401661  1  0  0.099394  0  3.709271  0  0  0.068149  0  3.955913  0  0  0.074581  0  3.9738  0  0  0.032455  0.063866  0  3.943927  0
C  C26  1  0.57260466  0.00941779  0.82769062  1  0  -0.092454  0  3.743752  0  0  -0.102689  0  3.99131  0  0  -0.108508  0  4.013052  0  0  -0.082968  -0.099205  0  3.976618  0
C  C27  1  0.99058243  0.42739690  0.17231122  1  0  -0.0924  0  3.743716  0  0  -0.10264  0  3.991275  0  0  -0.108463  0  4.013021  0  0  -0.082933  -0.099157  0  3.976584  0
C  C28  1  0.06801030  0.00501116  0.32764344  1  0  -0.091892  0  3.742038  0  0  -0.101973  0  3.989379  0  0  -0.107962  0  4.011193  0  0  -0.082749  -0.098371  0  3.974544  0
C  C29  1  0.99499030  0.93198691  0.67235560  1  0  -0.091834  0  3.742051  0  0  -0.101907  0  3.989389  0  0  -0.107899  0  4.011209  0  0  -0.082739  -0.098305  0  3.974555  0
C  C30  1  0.60577077  0.12721766  0.76164322  1  0  -0.090857  0  3.650249  0  0  -0.118637  0  3.89809  0  0  -0.117014  0  3.914429  0  0  -0.069043  -0.119564  0  3.887267  0
C  C31  1  0.87278404  0.39423205  0.23835937  1  0  -0.090844  0  3.650288  0  0  -0.118667  0  3.898102  0  0  -0.117046  0  3.914447  0  0  -0.069059  -0.119598  0  3.887292  0
C  C32  1  0.88421251  0.90594873  0.26156093  1  0  -0.090382  0  3.649629  0  0  -0.117857  0  3.897046  0  0  -0.116195  0  3.913512  0  0  -0.068698  -0.118349  0  3.885737  0
C  C33  1  0.09405020  0.11578408  0.73843851  1  0  -0.090431  0  3.649525  0  0  -0.117868  0  3.896907  0  0  -0.116222  0  3.913364  0  0  -0.068692  -0.118373  0  3.885595  0
C  C34  1  0.61131506  0.07826259  0.62468354  1  0  0.225074  0  3.795226  0  0  0.225283  0  4.037747  0  0  0.228277  0  4.059876  0  0  0.10478  0.222571  0  4.023505  0
C  C35  1  0.92173791  0.38868608  0.37531736  1  0  0.224973  0  3.795226  0  0  0.225234  0  4.037694  0  0  0.228221  0  4.059823  0  0  0.104775  0.222522  0  4.023452  0
C  C36  1  0.79623258  0.76346403  0.12459784  1  0  0.224221  0  3.793999  0  0  0.222828  0  4.038491  0  0  0.225842  0  4.060689  0  0  0.104789  0.220271  0  4.023687  0
C  C37  1  0.23653757  0.20376646  0.87540266  1  0  0.224216  0  3.793987  0  0  0.222849  0  4.038416  0  0  0.225863  0  4.060619  0  0  0.104789  0.220292  0  4.023618  0
C  C38  1  0.57719502  0.90943695  0.55688301  1  0  0.046448  0  3.645486  0  0  0.007392  0  3.89426  0  0  0.013498  0  3.909672  0  0  0.04527  0.003483  0  3.883969  0
C  C39  1  0.09056608  0.42280715  0.44311909  1  0  0.046538  0  3.645348  0  0  0.007484  0  3.894084  0  0  0.01359  0  3.909492  0  0  0.045305  0.003576  0  3.88379  0
C  C40  1  0.89727458  0.72975570  0.05680995  1  0  0.045425  0  3.643887  0  0  0.0077  0  3.892785  0  0  0.013677  0  3.908197  0  0  0.045154  0.004052  0  3.882095  0
C  C41  1  0.27024313  0.10272497  0.94318789  1  0  0.045468  0  3.643859  0  0  0.007691  0  3.892722  0  0  0.013668  0  3.908134  0  0  0.045163  0.004038  0  3.882037  0
C  C42  1  0.77423884  0.22576037  0.50000056  1  0  0.738146  0  3.875364  0  0  0.662622  0  4.192213  0  0  0.697316  0  4.187872  0  0  0.330546  0.639303  0  4.193794  0
C  C43  1  0.52414957  0.47585138  0.00000009  1  0  0.7365  0  3.878976  0  0  0.662933  0  4.192051  0  0  0.697647  0  4.188029  0  0  0.330207  0.637997  0  4.19757  0
N  N44  1  0.54554713  0.79721230  0.62193862  1  0  -0.314159  0  3.391046  0  0  -0.224548  0  3.658881  0  0  -0.243679  0  3.67791  0  0  -0.339878  -0.21162  0  3.645582  0
N  N45  1  0.20278890  0.45445489  0.37806098  1  0  -0.314134  0  3.39105  0  0  -0.224519  0  3.65887  0  0  -0.243651  0  3.6779  0  0  -0.339864  -0.21159  0  3.645571  0
N  N46  1  0.07454238  0.82639852  0.12188156  1  0  -0.311847  0  3.388084  0  0  -0.223462  0  3.656487  0  0  -0.242654  0  3.675666  0  0  -0.339324  -0.210736  0  3.643407  0
N  N47  1  0.17360010  0.92545334  0.87811491  1  0  -0.311927  0  3.388037  0  0  -0.223457  0  3.656392  0  0  -0.24265  0  3.675571  0  0  -0.33937  -0.210725  0  3.643306  0
N  N48  1  0.64897286  0.19464980  0.55636337  1  0  -0.510914  0  3.330749  0  0  -0.45575  0  3.573288  0  0  -0.478369  0  3.581693  0  0  -0.414778  -0.440312  0  3.567153  0
N  N49  1  0.80535206  0.35102784  0.44363882  1  0  -0.510989  0  3.330737  0  0  -0.455861  0  3.57328  0  0  -0.478458  0  3.581667  0  0  -0.414811  -0.440421  0  3.56714  0
N  N50  1  0.61156628  0.65743645  0.05631913  1  0  -0.511168  0  3.331625  0  0  -0.455779  0  3.572911  0  0  -0.478485  0  3.581334  0  0  -0.415108  -0.440086  0  3.568491  0
N  N51  1  0.34256310  0.38843243  0.94368000  1  0  -0.511137  0  3.331547  0  0  -0.455758  0  3.572844  0  0  -0.478468  0  3.581272  0  0  -0.415091  -0.440051  0  3.568388  0
Cl  Cl52  1  0.47116807  0.40905547  0.65191781  1  0  -0.533698  0  0.971538  0  0  -0.469963  0  1.247944  0  0  -0.483555  0  1.224758  0  0  -0.285775  -0.459625  0  1.264603  0
Cl  Cl53  1  0.59094065  0.52883376  0.34808010  1  0  -0.533694  0  0.971543  0  0  -0.469956  0  1.247955  0  0  -0.483552  0  1.224777  0  0  -0.285769  -0.459617  0  1.264616  0
Cl  Cl54  1  0.49271016  0.93077776  0.15195166  1  0  -0.533912  0  0.972228  0  0  -0.470347  0  1.249307  0  0  -0.483938  0  1.226031  0  0  -0.285863  -0.460102  0  1.264658  0
Cl  Cl55  1  0.06921706  0.50728564  0.84804542  1  0  -0.533912  0  0.972222  0  0  -0.470341  0  1.249287  0  0  -0.483932  0  1.226012  0  0  -0.285871  -0.460099  0  1.264639  0
O  O56  1  0.85231597  0.14767975  0.49999965  1  0  -0.603999  0  1.971935  0  0  -0.549055  0  2.202033  0  0  -0.573046  0  2.196548  0  0  -0.293821  -0.531824  0  2.204906  0
O  O57  1  0.60225120  0.39774845  0.00000161  1  0  -0.602729  0  1.969663  0  0  -0.548325  0  2.198021  0  0  -0.572203  0  2.192552  0  0  -0.294143  -0.531238  0  2.202928  0
