# generated using pymatgen
data_ZnH37C31(NO)9
_symmetry_space_group_name_H-M   'P 1'
_cell_length_a   9.58012048
_cell_length_b   10.61976643
_cell_length_c   23.48372294
_cell_angle_alpha   89.42122154
_cell_angle_beta   88.20214100
_cell_angle_gamma   85.50434090
_symmetry_Int_Tables_number   1
_chemical_formula_structural   ZnH37C31(NO)9
_chemical_formula_sum   'Zn2 H74 C62 N18 O18'
_cell_volume   2380.60863610
_cell_formula_units_Z   2
loop_
 _symmetry_equiv_pos_site_id
 _symmetry_equiv_pos_as_xyz
  1  'x, y, z'
loop_
 _atom_site_type_symbol
 _atom_site_label
 _atom_site_symmetry_multiplicity
 _atom_site_fract_x
 _atom_site_fract_y
 _atom_site_fract_z
 _atom_site_occupancy
 _atom_site_pbe_bader_charge
 _atom_site_pbe_bader_spin_density
 _atom_site_pbe_cm5_charge
 _atom_site_pbe_ddec_charge
 _atom_site_pbe_ddec_spin_density
 _atom_site_pbe_ddec_sum_bond_order
 _atom_site_pbe_magmom
Zn  Zn0  1  0.35689268  0.50906913  0.50036872  1  1.28584  0  0.679015  0.839908  0  2.43364  0
Zn  Zn1  1  0.65761427  0.49910364  0.49622912  1  1.290147  0  0.682201  0.850025  0  2.369526  0
H  H2  1  0.70079008  0.41724216  0.68898014  1  0.059266  0  0.099175  0.112779  0  1.015848  0
H  H3  1  0.28710527  0.67393816  0.33228311  1  0.045926  0  0.098491  0.105866  0  1.033762  0
H  H4  1  0.34779142  0.10134420  0.42697867  1  0.071522  0  0.098003  0.109469  0  1.025301  0
H  H5  1  0.66460351  0.90895819  0.56934324  1  0.054405  0  0.105962  0.11804  0  1.002288  0
H  H6  1  0.35756687  0.04977905  0.10385608  1  0.066153  0  0.107506  0.081095  0  0.991323  0
H  H7  1  0.34847454  0.89931969  0.13653084  1  0.108391  0  0.101674  0.07407  0  1.044883  0
H  H8  1  0.18465744  0.99178671  0.03074612  1  -0.028847  0  0.08949  0.077173  0  0.995113  0
H  H9  1  0.17356292  0.84407818  0.06414966  1  0.04392  0  0.090646  0.084267  0  0.987244  0
H  H10  1  0.07709477  0.94956396  0.15470280  1  0.031867  0  0.087279  0.113767  0  1.00405  0
H  H11  1  0.97133057  0.99204750  0.09588410  1  0.076326  0  0.094247  0.125763  0  0.989221  0
H  H12  1  0.08639414  0.09985974  0.12177878  1  -0.001597  0  0.087907  0.116243  0  1.008528  0
H  H13  1  0.18120641  0.19132914  0.87202291  1  0.078066  0  0.113259  0.089576  0  0.945281  0
H  H14  1  0.16371275  0.35789956  0.87894324  1  0.083095  0  0.106678  0.078866  0  0.990184  0
H  H15  1  0.03679482  0.16849629  0.96205439  1  0.016931  0  0.08735  0.075317  0  0.987989  0
H  H16  1  0.02653853  0.33404531  0.97185617  1  0.016683  0  0.091055  0.085957  0  0.975353  0
H  H17  1  0.89367534  0.36612982  0.88079858  1  0.056136  0  0.08857  0.120076  0  1.014698  0
H  H18  1  0.80591694  0.26898884  0.93000209  1  0.042666  0  0.087968  0.115443  0  0.996699  0
H  H19  1  0.90257769  0.19977093  0.87104864  1  0.006266  0  0.088685  0.114331  0  0.996203  0
H  H20  1  0.16146052  0.68594583  0.41071774  1  0.432998  0  0.285636  0.283831  0  0.978237  0
H  H21  1  0.17153194  0.75318516  0.47214618  1  0.424822  0  0.285579  0.284525  0  1.000257  0
H  H22  1  0.84045460  0.30833883  0.57947540  1  0.450548  0  0.301261  0.30264  0  0.946671  0
H  H23  1  0.87362885  0.22365241  0.52080213  1  0.447975  0  0.290133  0.293629  0  0.985977  0
H  H24  1  0.95216793  0.87339067  0.55492460  1  0.08039  0  0.099564  0.06495  0  0.987315  0
H  H25  1  0.07742971  0.74997683  0.57618644  1  0.042059  0  0.104523  0.072008  0  0.98901  0
H  H26  1  0.80946566  0.83110753  0.64522090  1  0.024026  0  0.094305  0.088733  0  0.986268  0
H  H27  1  0.94416804  0.71968225  0.66623206  1  0.032286  0  0.090967  0.08443  0  0.988429  0
H  H28  1  0.11548896  0.89624770  0.66121030  1  0.022017  0  0.08215  0.108652  0  1.046698  0
H  H29  1  0.97461221  0.92808421  0.71181533  1  0.025475  0  0.083269  0.109827  0  1.009375  0
H  H30  1  0.97396325  0.00505399  0.64420107  1  0.035396  0  0.082846  0.1097  0  1.013417  0
H  H31  1  0.29635814  0.28473231  0.39040286  1  0.043898  0  0.100632  0.072803  0  0.999896  0
H  H32  1  0.18147876  0.41910496  0.37861890  1  0.058379  0  0.103053  0.069811  0  0.99596  0
H  H33  1  0.12987364  0.14670783  0.34711389  1  0.005065  0  0.084225  0.073303  0  0.992241  0
H  H34  1  0.00344439  0.27711403  0.34139413  1  0.029633  0  0.085791  0.081943  0  1.006052  0
H  H35  1  0.15908280  0.38413691  0.27115962  1  0.033861  0  0.083645  0.11608  0  1.012362  0
H  H36  1  0.13430553  0.23034403  0.24677369  1  0.027984  0  0.080664  0.106386  0  1.009495  0
H  H37  1  0.29328495  0.26173838  0.27842936  1  0.037406  0  0.083295  0.111688  0  1.021981  0
H  H38  1  0.20280269  0.48546459  0.61034985  1  0.468853  0  0.287611  0.295253  0  1.00414  0
H  H39  1  0.09415641  0.37263764  0.61906418  1  0.420496  0  0.297494  0.294663  0  0.945841  0
H  H40  1  0.96789110  0.53809728  0.35744395  1  0.419662  0  0.29903  0.2933  0  0.948423  0
H  H41  1  0.80702183  0.55478117  0.38909005  1  0.481849  0  0.293686  0.304239  0  0.985812  0
H  H42  1  0.49285286  0.98432027  0.97040628  1  0.471701  0  0.314489  0.312031  0  0.947102  0
H  H43  1  0.50362445  0.90815090  0.90222552  1  0.519054  0  0.308041  0.323454  0  0.975781  0
H  H44  1  0.27438480  0.24779152  0.09316194  1  0.494715  0  0.300125  0.30528  0  1.010359  0
H  H45  1  0.24889237  0.18054149  0.02419470  1  0.468968  0  0.306871  0.293817  0  0.990668  0
H  H46  1  0.75734586  0.36216033  0.78330068  1  0.424728  0  0.299184  0.28825  0  0.951816  0
H  H47  1  0.65570790  0.40209779  0.83984751  1  0.429638  0  0.290113  0.273073  0  0.994276  0
H  H48  1  0.20698524  0.70756251  0.18271691  1  0.420766  0  0.292146  0.277166  0  0.987909  0
H  H49  1  0.17294481  0.76379525  0.24857288  1  0.42871  0  0.301124  0.293134  0  0.948724  0
H  H50  1  0.20187684  0.66413414  0.66702990  1  0.428433  0  0.29323  0.27741  0  0.970139  0
H  H51  1  0.32282801  0.67363257  0.61539389  1  0.440413  0  0.286856  0.286905  0  1.0013  0
H  H52  1  0.69262791  0.40124041  0.34813508  1  0.467342  0  0.288702  0.295517  0  1.002416  0
H  H53  1  0.67753044  0.29992871  0.29389533  1  0.411665  0  0.287227  0.264669  0  0.986772  0
H  H54  1  0.30683409  0.77022630  0.80502654  1  0.451795  0  0.289067  0.281363  0  0.990816  0
H  H55  1  0.24226415  0.77619928  0.73956875  1  0.423278  0  0.293096  0.282604  0  0.983012  0
H  H56  1  0.56943857  0.33813997  0.16496854  1  0.448546  0  0.294611  0.288632  0  0.976201  0
H  H57  1  0.70407872  0.35406024  0.20894147  1  0.418627  0  0.297512  0.289313  0  0.970276  0
H  H58  1  0.19895538  0.89587766  0.53026951  1  0.426007  0  0.27516  0.252015  0  1.058863  0
H  H59  1  0.15995716  0.05335357  0.52843606  1  0.412195  0  0.288991  0.286545  0  0.970736  0
H  H60  1  0.84483061  0.95037239  0.46065798  1  0.420404  0  0.287844  0.281313  0  0.970161  0
H  H61  1  0.80086353  0.09440863  0.43531121  1  0.39172  0  0.286934  0.274792  0  0.972084  0
H  H62  1  0.53536654  0.23627516  0.65753385  1  0.062633  0  0.099197  0.069833  0  0.993733  0
H  H63  1  0.65723554  0.13357808  0.61787811  1  -0.004982  0  0.0963  0.05983  0  0.983112  0
H  H64  1  0.43157903  0.04460560  0.70124953  1  0.046231  0  0.093954  0.090896  0  0.968055  0
H  H65  1  0.56483141  0.94633196  0.66726009  1  0.035807  0  0.089548  0.080374  0  0.99289  0
H  H66  1  0.74799087  0.05979081  0.72025251  1  -0.003005  0  0.079141  0.099752  0  1.03741  0
H  H67  1  0.63065147  0.98511907  0.76715966  1  0.012824  0  0.087579  0.123778  0  1.002517  0
H  H68  1  0.60894325  0.15144486  0.75610081  1  0.033095  0  0.081287  0.108507  0  1.01937  0
H  H69  1  0.66372870  0.88299670  0.32617090  1  0.040959  0  0.099628  0.063761  0  0.965068  0
H  H70  1  0.61468519  0.03017150  0.35971501  1  0.024583  0  0.093075  0.04822  0  0.998683  0
H  H71  1  0.41653575  0.86055548  0.30236220  1  0.067078  0  0.087886  0.086805  0  1.009366  0
H  H72  1  0.36292912  0.00527164  0.33646143  1  -0.005525  0  0.086261  0.076413  0  1.005819  0
H  H73  1  0.51661642  0.11990306  0.26549127  1  -0.005222  0  0.075666  0.090932  0  1.038459  0
H  H74  1  0.38755243  0.04095035  0.23109387  1  0.02369  0  0.08479  0.112622  0  1.012745  0
H  H75  1  0.56258973  0.97320153  0.23062149  1  0.029437  0  0.086915  0.118775  0  0.998435  0
C  C76  1  0.46778862  0.74708301  0.51303522  1  1.534426  0  0.220532  0.624723  0  4.143848  0
C  C77  1  0.53936003  0.26580137  0.48233909  1  1.548105  0  0.207282  0.604432  0  4.197375  0
C  C78  1  0.59793516  0.49142487  0.76601125  1  0.432812  0  0.080831  0.224683  0  4.135561  0
C  C79  1  0.32412258  0.61794528  0.24495783  1  0.421845  0  0.079396  0.2146  0  4.162049  0
C  C80  1  0.61277837  0.47648220  0.70716958  1  0.028521  0  -0.117293  -0.239667  0  4.030329  0
C  C81  1  0.35430448  0.61714434  0.30251006  1  0.066134  0  -0.117284  -0.239388  0  4.049498  0
C  C82  1  0.51183639  0.53100542  0.67048396  1  -0.031567  0  -0.030032  -0.116631  0  4.022608  0
C  C83  1  0.47019223  0.54488708  0.32403106  1  -0.025071  0  -0.030473  -0.12209  0  4.006355  0
C  C84  1  0.40047250  0.61328831  0.69168419  1  0.394669  0  0.073321  0.154327  0  4.024518  0
C  C85  1  0.55858923  0.46726379  0.28760684  1  0.424171  0  0.07812  0.162071  0  4.037267  0
C  C86  1  0.38888570  0.63535432  0.75112600  1  0.439216  0  0.089087  0.149113  0  4.069718  0
C  C87  1  0.52889805  0.46711682  0.22872467  1  0.453244  0  0.089149  0.147364  0  4.06197  0
C  C88  1  0.48281629  0.56943265  0.78752518  1  0.300268  0  0.063515  -0.015401  0  3.951213  0
C  C89  1  0.41499937  0.54351521  0.20835006  1  0.287905  0  0.067595  -0.007841  0  3.964009  0
C  C90  1  0.36843429  0.99712101  0.51666789  1  0.458509  0  0.089064  0.223183  0  3.756908  0
C  C91  1  0.64412540  0.01684446  0.48125720  1  0.397269  0  0.077677  0.195844  0  3.759476  0
C  C92  1  0.41820970  0.05727594  0.45836375  1  -0.09527  0  -0.10002  -0.215982  0  3.696052  0
C  C93  1  0.59416601  0.95559175  0.53855150  1  -0.035633  0  -0.083675  -0.185592  0  3.643256  0
C  C94  1  0.52995439  0.12921171  0.48846673  1  -0.040205  0  -0.027314  -0.153537  0  3.731263  0
C  C95  1  0.48160193  0.88413049  0.50756996  1  0.012795  0  -0.012892  -0.123918  0  3.689305  0
C  C96  1  0.48076571  0.06857387  0.54889712  1  0.610602  0  0.095793  0.192609  0  3.696587  0
C  C97  1  0.52956559  0.94271628  0.44879492  1  0.569949  0  0.08033  0.16792  0  3.728752  0
C  C98  1  0.52264571  0.49402904  0.60922656  1  1.552993  0  0.215455  0.608812  0  4.158545  0
C  C99  1  0.48788827  0.54591787  0.38690120  1  1.537433  0  0.216489  0.608553  0  4.155203  0
C  C100  1  0.95402302  0.59945491  0.52690712  1  0.838883  0  0.169581  0.203012  0  3.787026  0
C  C101  1  0.06074993  0.39566259  0.46868806  1  0.831582  0  0.169345  0.20607  0  3.789995  0
C  C102  1  0.05368541  0.60554755  0.47311207  1  0.601135  0  0.152714  0.198603  0  3.822795  0
C  C103  1  0.96403312  0.38994719  0.52248671  1  0.660989  0  0.177568  0.243519  0  3.766638  0
C  C104  1  0.04964632  0.48579614  0.55249012  1  0.641742  0  0.16697  0.22958  0  3.784876  0
C  C105  1  0.96602541  0.50864008  0.44353318  1  0.679522  0  0.170361  0.230132  0  3.818282  0
C  C106  1  0.35784234  0.45032843  0.11828111  1  1.309742  0  0.233688  0.445711  0  4.091443  0
C  C107  1  0.46980339  0.68677081  0.87739838  1  1.283896  0  0.235207  0.444079  0  4.088992  0
C  C108  1  0.44041116  0.66703918  0.12186242  1  1.291975  0  0.235644  0.440151  0  4.093297  0
C  C109  1  0.40712824  0.46328932  0.87345433  1  1.298876  0  0.235766  0.436444  0  4.087903  0
C  C110  1  0.42309971  0.67956668  0.05989710  1  -0.029604  0  -0.027184  -0.186571  0  4.015454  0
C  C111  1  0.37694882  0.46623517  0.93546479  1  -0.013595  0  -0.022962  -0.176366  0  4.009999  0
C  C112  1  0.39714999  0.57037723  0.02788884  1  0.059364  0  -0.01311  0.036186  0  4.059825  0
C  C113  1  0.40769658  0.57414153  0.96743209  1  -0.027576  0  -0.014429  0.030557  0  4.059621  0
C  C114  1  0.36012150  0.45876822  0.05642443  1  0.033306  0  -0.035492  -0.200372  0  4.015413  0
C  C115  1  0.44815695  0.68501345  0.93905410  1  0.008569  0  -0.032556  -0.196523  0  4.00241  0
C  C116  1  0.44211049  0.79334048  0.03125234  1  0.566446  0  0.09885  0.161594  0  3.978691  0
C  C117  1  0.32720754  0.36130388  0.96374502  1  0.598241  0  0.092852  0.152177  0  3.989871  0
C  C118  1  0.46147124  0.79671526  0.97032347  1  0.522552  0  0.115181  0.217031  0  4.078373  0
C  C119  1  0.32188007  0.35498363  0.02469858  1  0.401999  0  0.111704  0.216909  0  4.090059  0
C  C120  1  0.33558580  0.95170823  0.09627086  1  0.345027  0  -0.070864  0.013904  0  3.858463  0
C  C121  1  0.19039781  0.94348299  0.07251318  1  0.014936  0  -0.17069  -0.139949  0  3.994434  0
C  C122  1  0.07522134  0.99950767  0.11342692  1  -0.080827  0  -0.240483  -0.350633  0  3.963637  0
C  C123  1  0.16536217  0.26853216  0.90285037  1  0.374842  0  -0.061857  0.033395  0  3.855277  0
C  C124  1  0.03201004  0.25985524  0.93921015  1  -0.014274  0  -0.1705  -0.138407  0  3.997677  0
C  C125  1  0.90139592  0.27454367  0.90320072  1  -0.084866  0  -0.242191  -0.349881  0  3.961526  0
C  C126  1  0.96614811  0.78506477  0.57992839  1  0.34796  0  -0.063207  0.040355  0  3.846566  0
C  C127  1  0.92351550  0.80810161  0.64198425  1  0.005554  0  -0.167825  -0.134587  0  3.975625  0
C  C128  1  0.00125753  0.91506332  0.66629763  1  -0.068671  0  -0.248259  -0.36026  0  3.97278  0
C  C129  1  0.18515184  0.31659596  0.38650233  1  0.390677  0  -0.06696  0.039623  0  3.840766  0
C  C130  1  0.11661726  0.24944404  0.33929596  1  0.001485  0  -0.174968  -0.145799  0  4.007378  0
C  C131  1  0.17913249  0.28298854  0.28089794  1  -0.077967  0  -0.247431  -0.348328  0  3.970311  0
C  C132  1  0.55264095  0.14112918  0.63925713  1  0.440425  0  -0.06714  0.03656  0  3.894416  0
C  C133  1  0.54141121  0.04088082  0.68571906  1  -0.022418  0  -0.168909  -0.133917  0  3.982539  0
C  C134  1  0.63775729  0.06051449  0.73504849  1  -0.049559  0  -0.247484  -0.357927  0  3.978056  0
C  C135  1  0.57754161  0.93751865  0.34924816  1  0.410433  0  -0.067545  0.042401  0  3.905391  0
C  C136  1  0.44960420  0.95470990  0.31209375  1  -0.014374  0  -0.173787  -0.140379  0  3.969899  0
C  C137  1  0.48120494  0.02592387  0.25685943  1  -0.051017  0  -0.244371  -0.347511  0  3.98019  0
N  N138  1  0.39775429  0.55469874  0.14781685  1  -1.190914  0  -0.234499  -0.192205  0  3.623417  0
N  N139  1  0.45561826  0.57421504  0.84829038  1  -1.155084  0  -0.230488  -0.18143  0  3.600961  0
N  N140  1  0.14929342  0.49225770  0.49883543  1  -0.847228  0  -0.335872  -0.372224  0  3.062965  0
N  N141  1  0.86741704  0.50724666  0.49604982  1  -0.839215  0  -0.317161  -0.3284  0  3.039938  0
N  N142  1  0.10337189  0.71194808  0.44662902  1  -1.183858  0  -0.626176  -0.638026  0  3.258713  0
N  N143  1  0.91471307  0.28409391  0.54841517  1  -1.204955  0  -0.602988  -0.624361  0  3.27217  0
N  N144  1  0.10030021  0.46498071  0.60733320  1  -1.201748  0  -0.616729  -0.637448  0  3.21925  0
N  N145  1  0.90510317  0.50929338  0.38999220  1  -1.220139  0  -0.613125  -0.641884  0  3.282903  0
N  N146  1  0.48857226  0.90764728  0.94549533  1  -1.277912  0  -0.571111  -0.574131  0  3.376302  0
N  N147  1  0.27885584  0.24918158  0.04961665  1  -1.259629  0  -0.584418  -0.59355  0  3.446853  0
N  N148  1  0.69725877  0.43363933  0.80251548  1  -1.209668  0  -0.611143  -0.624914  0  3.309931  0
N  N149  1  0.20453971  0.68660633  0.22495465  1  -1.207059  0  -0.610116  -0.62221  0  3.304047  0
N  N150  1  0.30282689  0.68423665  0.65804317  1  -1.19913  0  -0.615554  -0.624852  0  3.314811  0
N  N151  1  0.67623519  0.39214398  0.30563169  1  -1.218891  0  -0.615217  -0.625568  0  3.327954  0
N  N152  1  0.27918252  0.71820282  0.77160033  1  -1.211855  0  -0.612929  -0.604887  0  3.286056  0
N  N153  1  0.61761568  0.39634673  0.19078387  1  -1.21881  0  -0.610821  -0.617072  0  3.324977  0
N  N154  1  0.23214667  0.98198023  0.53879977  1  -1.191078  0  -0.62065  -0.636218  0  3.298427  0
N  N155  1  0.78797494  0.03409167  0.46884415  1  -1.16455  0  -0.608558  -0.633776  0  3.264302  0
O  O156  1  0.34595529  0.70655318  0.52073352  1  -1.181297  0  -0.313837  -0.559335  0  2.297854  0
O  O157  1  0.65913719  0.31039386  0.48406752  1  -1.165596  0  -0.319414  -0.545561  0  2.345187  0
O  O158  1  0.58197005  0.67861938  0.50768830  1  -1.170079  0  -0.309703  -0.541318  0  2.397483  0
O  O159  1  0.42253887  0.33082443  0.47808955  1  -1.171708  0  -0.317493  -0.550777  0  2.388716  0
O  O160  1  0.40630089  0.48765982  0.58404764  1  -1.18116  0  -0.319075  -0.57719  0  2.406961  0
O  O161  1  0.60951502  0.51914597  0.40666620  1  -1.175517  0  -0.30525  -0.55743  0  2.34569  0
O  O162  1  0.64268553  0.46924909  0.58571981  1  -1.175023  0  -0.316259  -0.547706  0  2.280145  0
O  O163  1  0.37713430  0.57121090  0.41743328  1  -1.172714  0  -0.318227  -0.563503  0  2.39184  0
O  O164  1  0.32778328  0.35434352  0.14604834  1  -1.126852  0  -0.284465  -0.465373  0  2.12852  0
O  O165  1  0.49983177  0.78255053  0.84960552  1  -1.132228  0  -0.280538  -0.464952  0  2.12879  0
O  O166  1  0.49095228  0.74623474  0.15140835  1  -1.101771  0  -0.272592  -0.433332  0  2.142625  0
O  O167  1  0.39787025  0.36949931  0.84369936  1  -1.097446  0  -0.271913  -0.438249  0  2.136073  0
O  O168  1  0.44646870  0.90862696  0.05560938  1  -1.063427  0  -0.183025  -0.201873  0  2.540952  0
O  O169  1  0.28783227  0.25526250  0.93832587  1  -1.067646  0  -0.192694  -0.218273  0  2.5479  0
O  O170  1  0.87940045  0.69483338  0.55514915  1  -1.06821  0  -0.191016  -0.210974  0  2.50584  0
O  O171  1  0.11688181  0.29156792  0.44137552  1  -1.080838  0  -0.190683  -0.20902  0  2.498612  0
O  O172  1  0.44514890  0.13297545  0.59801850  1  -1.0779  0  -0.201936  -0.222966  0  2.513181  0
O  O173  1  0.55037799  0.86760069  0.40094872  1  -1.061947  0  -0.211277  -0.23599  0  2.479389  0
