# generated using pymatgen
data_NdH12C15N2O7
_symmetry_space_group_name_H-M   'P 1'
_cell_length_a   10.75101719
_cell_length_b   11.79764582
_cell_length_c   16.47379535
_cell_angle_alpha   109.25935810
_cell_angle_beta   89.99485243
_cell_angle_gamma   117.08930647
_symmetry_Int_Tables_number   1
_chemical_formula_structural   NdH12C15N2O7
_chemical_formula_sum   'Nd4 H48 C60 N8 O28'
_cell_volume   1727.91365402
_cell_formula_units_Z   4
loop_
 _symmetry_equiv_pos_site_id
 _symmetry_equiv_pos_as_xyz
  1  'x, y, z'
loop_
 _atom_site_type_symbol
 _atom_site_label
 _atom_site_symmetry_multiplicity
 _atom_site_fract_x
 _atom_site_fract_y
 _atom_site_fract_z
 _atom_site_occupancy
 _atom_site_pbe_bader_spin_density
 _atom_site_pbe_cm5_charge
 _atom_site_pbe_ddec_charge
 _atom_site_pbe_ddec_spin_density
 _atom_site_pbe_ddec_sum_bond_order
 _atom_site_pbe_magmom
Nd  Nd0  1  0.97444196  0.99600324  0.12774067  1  0  1.502344  2.145385  0  2.152315  0
Nd  Nd1  1  0.97847552  0.00395069  0.37220639  1  0  1.502628  2.145723  0  2.153134  0
Nd  Nd2  1  0.02555734  0.00399508  0.87225973  1  0  1.502325  2.145363  0  2.152348  0
Nd  Nd3  1  0.02152388  0.99604969  0.62779390  1  0  1.502621  2.145758  0  2.153078  0
H  H4  1  0.69830079  0.54362835  0.01399145  1  0  0.106755  0.107834  0  1.007109  0
H  H5  1  0.15503773  0.45640151  0.48599296  1  0  0.106842  0.107915  0  1.007254  0
H  H6  1  0.30169767  0.45637203  0.98600884  1  0  0.10675  0.107796  0  1.007121  0
H  H7  1  0.84496311  0.54359990  0.51400696  1  0  0.106838  0.107917  0  1.007249  0
H  H8  1  0.47530066  0.31740643  0.95401921  1  0  0.107395  0.112202  0  1.0023  0
H  H9  1  0.15847529  0.68280675  0.54598880  1  0  0.107304  0.112306  0  1.00235  0
H  H10  1  0.52470008  0.68259293  0.04598143  1  0  0.107414  0.112247  0  1.002263  0
H  H11  1  0.84152462  0.31719466  0.45401234  1  0  0.107326  0.112325  0  1.002312  0
H  H12  1  0.46357361  0.35479200  0.70419069  1  0  0.107708  0.115653  0  0.994432  0
H  H13  1  0.10858872  0.64518128  0.79571834  1  0  0.107382  0.115236  0  0.99538  0
H  H14  1  0.53642662  0.64520633  0.29580911  1  0  0.1077  0.115663  0  0.99444  0
H  H15  1  0.89141110  0.35481808  0.20428110  1  0  0.107379  0.115233  0  0.995343  0
H  H16  1  0.68970629  0.58102762  0.76350230  1  0  0.104122  0.108076  0  1.021549  0
H  H17  1  0.10832190  0.41879263  0.73639408  1  0  0.104294  0.108567  0  1.021857  0
H  H18  1  0.31029218  0.41897276  0.23649798  1  0  0.104109  0.108034  0  1.021592  0
H  H19  1  0.89167936  0.58120775  0.26360560  1  0  0.104287  0.108563  0  1.021831  0
H  H20  1  0.35415041  0.02758078  0.89776943  1  0  0.113479  0.121298  0  1.034706  0
H  H21  1  0.32678078  0.97266345  0.60239028  1  0  0.113601  0.121552  0  1.035153  0
H  H22  1  0.64585136  0.97242063  0.10223110  1  0  0.11347  0.121273  0  1.034726  0
H  H23  1  0.67321769  0.02733694  0.39760939  1  0  0.11361  0.12159  0  1.035137  0
H  H24  1  0.58760704  0.04075054  0.86723588  1  0  0.105546  0.110648  0  1.002174  0
H  H25  1  0.54680998  0.95880399  0.63258081  1  0  0.105473  0.110652  0  1.002048  0
H  H26  1  0.41239431  0.95925188  0.13276550  1  0  0.105572  0.110688  0  1.002197  0
H  H27  1  0.45318797  0.04119537  0.36741863  1  0  0.105492  0.110707  0  1.002046  0
H  H28  1  0.17235389  0.65889494  0.05682000  1  0  0.102674  0.076262  0  0.972296  0
H  H29  1  0.51317157  0.34074394  0.44317157  1  0  0.10232  0.075675  0  0.971881  0
H  H30  1  0.82764686  0.34110442  0.94318004  1  0  0.10266  0.076241  0  0.972282  0
H  H31  1  0.48682969  0.65925644  0.55682810  1  0  0.1023  0.075644  0  0.971924  0
H  H32  1  0.05591696  0.50966413  0.07835703  1  0  0.105865  0.084253  0  0.980032  0
H  H33  1  0.54603438  0.48999024  0.42161031  1  0  0.106004  0.084259  0  0.98035  0
H  H34  1  0.94408379  0.49033523  0.92164301  1  0  0.105882  0.084259  0  0.980022  0
H  H35  1  0.45396688  0.51001015  0.57838876  1  0  0.106003  0.084259  0  0.980386  0
H  H36  1  0.15918937  0.61411514  0.22988988  1  0  0.101756  0.075347  0  0.984677  0
H  H37  1  0.54485920  0.38548323  0.27008847  1  0  0.101701  0.075489  0  0.984397  0
H  H38  1  0.84081045  0.38588422  0.77011015  1  0  0.101762  0.075368  0  0.984664  0
H  H39  1  0.45514206  0.61451716  0.72991120  1  0  0.101706  0.075479  0  0.984421  0
H  H40  1  0.30881473  0.72251742  0.19466749  1  0  0.103648  0.080412  0  1.008093  0
H  H41  1  0.58597624  0.27695343  0.30526708  1  0  0.103901  0.081378  0  1.007877  0
H  H42  1  0.69118559  0.27748296  0.80533280  1  0  0.103658  0.080423  0  1.008114  0
H  H43  1  0.41402502  0.72304695  0.69473259  1  0  0.10387  0.081297  0  1.00781  0
H  H44  1  0.94680952  0.67233630  0.06720766  1  0  0.308088  0.285761  0  0.990405  0
H  H45  1  0.27430401  0.32748987  0.43281347  1  0  0.307711  0.285728  0  0.991152  0
H  H46  1  0.05319071  0.32766203  0.93279213  1  0  0.308075  0.285748  0  0.990419  0
H  H47  1  0.72569725  0.67251051  0.56718620  1  0  0.307701  0.285684  0  0.991191  0
H  H48  1  0.20999215  0.87466667  0.29850966  1  0  0.314493  0.292876  0  0.995448  0
H  H49  1  0.33509094  0.12505627  0.20146958  1  0  0.314391  0.29267  0  0.996398  0
H  H50  1  0.79000767  0.12533269  0.70149038  1  0  0.314488  0.292853  0  0.995465  0
H  H51  1  0.66491074  0.87494309  0.79852985  1  0  0.31439  0.292679  0  0.996402  0
C  C52  1  0.70688378  0.57617465  0.89238511  1  0  -0.014528  -0.040243  0  3.948469  0
C  C53  1  0.13075295  0.42380790  0.60756938  1  0  -0.014302  -0.039044  0  3.947884  0
C  C54  1  0.29311375  0.42382573  0.10761517  1  0  -0.014525  -0.040221  0  3.94843  0
C  C55  1  0.86924831  0.57619248  0.39243090  1  0  -0.014331  -0.039106  0  3.947842  0
C  C56  1  0.64869112  0.50043320  0.94557762  1  0  -0.084135  -0.101345  0  3.984071  0
C  C57  1  0.14856600  0.49964949  0.55440976  1  0  -0.084393  -0.10201  0  3.985417  0
C  C58  1  0.35130735  0.49956718  0.05442266  1  0  -0.084122  -0.101258  0  3.984064  0
C  C59  1  0.85143526  0.50035089  0.44559053  1  0  -0.084348  -0.101933  0  3.985345  0
C  C60  1  0.52422632  0.37504555  0.91252532  1  0  -0.081484  -0.096098  0  3.972905  0
C  C61  1  0.14959476  0.62512591  0.58748010  1  0  -0.081131  -0.095805  0  3.973787  0
C  C62  1  0.47577163  0.62495380  0.08747532  1  0  -0.08148  -0.096161  0  3.972939  0
C  C63  1  0.85040701  0.37487550  0.41251982  1  0  -0.081165  -0.095869  0  3.973771  0
C  C64  1  0.45623182  0.32406935  0.82592101  1  0  -0.011266  -0.031232  0  3.944893  0
C  C65  1  0.13240804  0.67604911  0.67406942  1  0  -0.011799  -0.032034  0  3.945837  0
C  C66  1  0.54376800  0.67593001  0.17407903  1  0  -0.011287  -0.031242  0  3.944917  0
C  C67  1  0.86759415  0.32395127  0.32593025  1  0  -0.011793  -0.032003  0  3.945762  0
C  C68  1  0.51764023  0.39710548  0.77156510  1  0  -0.084411  -0.103937  0  3.981686  0
C  C69  1  0.12055577  0.60291415  0.72838884  1  0  -0.083827  -0.102787  0  3.981889  0
C  C70  1  0.48235866  0.60289388  0.22843494  1  0  -0.084425  -0.103969  0  3.981644  0
C  C71  1  0.87944600  0.39708725  0.27161169  1  0  -0.083834  -0.102805  0  3.981915  0
C  C72  1  0.64209525  0.52199718  0.80445933  1  0  -0.084017  -0.092933  0  3.970585  0
C  C73  1  0.12000878  0.47794382  0.69548079  1  0  -0.084158  -0.094028  0  3.972151  0
C  C74  1  0.35790126  0.47800115  0.19554107  1  0  -0.083981  -0.092882  0  3.970532  0
C  C75  1  0.87999299  0.52205758  0.30451974  1  0  -0.084138  -0.093997  0  3.97215  0
C  C76  1  0.83018946  0.71902642  0.92970563  1  0  0.232015  0.635483  0  4.16597  0
C  C77  1  0.11099227  0.28085081  0.57021531  1  0  0.231758  0.635099  0  4.163822  0
C  C78  1  0.16980901  0.28097396  0.07029526  1  0  0.232047  0.635483  0  4.165891  0
C  C79  1  0.88900899  0.71914957  0.42978497  1  0  0.231743  0.635082  0  4.163732  0
C  C80  1  0.31384826  0.19707300  0.79264187  1  0  0.231342  0.641286  0  4.17283  0
C  C81  1  0.11707252  0.80310492  0.70739159  1  0  0.231713  0.640985  0  4.172627  0
C  C82  1  0.68615012  0.80292533  0.20735732  1  0  0.23136  0.641301  0  4.172795  0
C  C83  1  0.88292874  0.19689546  0.29260870  1  0  0.231752  0.640986  0  4.172522  0
C  C84  1  0.37001200  0.99307652  0.01726647  1  0  -0.01102  -0.034176  0  3.953197  0
C  C85  1  0.37708644  0.00721967  0.48288456  1  0  -0.011785  -0.035033  0  3.953836  0
C  C86  1  0.62998935  0.00692591  0.98273430  1  0  -0.010946  -0.034022  0  3.953058  0
C  C87  1  0.62291151  0.99277969  0.51711487  1  0  -0.011767  -0.035007  0  3.953835  0
C  C88  1  0.41826180  0.01515885  0.94190090  1  0  -0.075802  -0.084339  0  3.938656  0
C  C89  1  0.40320442  0.98495967  0.55818110  1  0  -0.075547  -0.084026  0  3.939335  0
C  C90  1  0.58173955  0.98484357  0.05810047  1  0  -0.075827  -0.084349  0  3.938624  0
C  C91  1  0.59679219  0.01504072  0.44181797  1  0  -0.075555  -0.08408  0  3.939413  0
C  C92  1  0.54787367  0.02231133  0.92507368  1  0  -0.08502  -0.100795  0  3.966797  0
C  C93  1  0.52550227  0.97745280  0.57483532  1  0  -0.085055  -0.100775  0  3.966566  0
C  C94  1  0.45212819  0.97769213  0.07492794  1  0  -0.085046  -0.100834  0  3.966836  0
C  C95  1  0.47449569  0.02254656  0.42516411  1  0  -0.085025  -0.100812  0  3.966666  0
C  C96  1  0.23303302  0.98882669  0.03765275  1  0  0.232718  0.634188  0  4.16074  0
C  C97  1  0.24431987  0.01141757  0.46252839  1  0  0.232268  0.633514  0  4.160604  0
C  C98  1  0.76696824  0.01117369  0.96234814  1  0  0.232657  0.634139  0  4.160837  0
C  C99  1  0.75567953  0.98858281  0.53747068  1  0  0.232251  0.633523  0  4.160648  0
C  C100  1  0.05110036  0.78349057  0.19264829  1  0  0.349708  0.674057  0  4.169937  0
C  C101  1  0.26744922  0.21637834  0.30734375  1  0  0.350135  0.674941  0  4.167739  0
C  C102  1  0.94889945  0.21650878  0.80735174  1  0  0.349675  0.674001  0  4.169974  0
C  C103  1  0.73255153  0.78362102  0.69265568  1  0  0.350173  0.674931  0  4.167846  0
C  C104  1  0.10631357  0.62186141  0.10321835  1  0  -0.052717  -0.02164  0  3.88431  0
C  C105  1  0.48421993  0.37780534  0.39677291  1  0  -0.052081  -0.019601  0  3.882221  0
C  C106  1  0.89368718  0.37813795  0.89678169  1  0  -0.052711  -0.021605  0  3.884249  0
C  C107  1  0.51578133  0.62219504  0.60322737  1  0  -0.052075  -0.019642  0  3.882284  0
C  C108  1  0.19543937  0.68681752  0.19589512  1  0  -0.050159  -0.017596  0  3.879622  0
C  C109  1  0.50838924  0.31279111  0.30409175  1  0  -0.050386  -0.019935  0  3.881465  0
C  C110  1  0.80455994  0.31318081  0.80410467  1  0  -0.050162  -0.017644  0  3.87964  0
C  C111  1  0.49161151  0.68720825  0.69590768  1  0  -0.050336  -0.019777  0  3.881347  0
N  N112  1  0.00095103  0.66983094  0.11747583  1  0  -0.434525  -0.43162  0  3.404022  0
N  N113  1  0.33094982  0.32998395  0.38253454  1  0  -0.434457  -0.432878  0  3.405568  0
N  N114  1  0.99904828  0.33016739  0.88252397  1  0  -0.434505  -0.431597  0  3.404031  0
N  N115  1  0.66905237  0.67001643  0.61746514  1  0  -0.434435  -0.432747  0  3.405471  0
N  N116  1  0.16632818  0.79981358  0.23735372  1  0  -0.421755  -0.399293  0  3.471352  0
N  N117  1  0.36631636  0.19990247  0.26264427  1  0  -0.42205  -0.398519  0  3.471776  0
N  N118  1  0.83367164  0.20018578  0.76264631  1  0  -0.421727  -0.399196  0  3.471372  0
N  N119  1  0.63368531  0.80009688  0.73735637  1  0  -0.422114  -0.398622  0  3.471876  0
O  O120  1  0.86302826  0.78644492  0.87995552  1  0  -0.391466  -0.652027  0  2.334303  0
O  O121  1  0.07618126  0.21337030  0.61992523  1  0  -0.39173  -0.652678  0  2.33521  0
O  O122  1  0.13696969  0.21355444  0.12004452  1  0  -0.391474  -0.652013  0  2.334208  0
O  O123  1  0.92381958  0.78663111  0.38007469  1  0  -0.391711  -0.652655  0  2.335144  0
O  O124  1  0.89085886  0.76503727  0.00919899  1  0  -0.377303  -0.675589  0  2.287189  0
O  O125  1  0.12570533  0.23481615  0.49072836  1  0  -0.376844  -0.674559  0  2.286125  0
O  O126  1  0.10913817  0.23496208  0.99080105  1  0  -0.377325  -0.675605  0  2.287139  0
O  O127  1  0.87429593  0.76518423  0.50927193  1  0  -0.376847  -0.674561  0  2.286119  0
O  O128  1  0.25788835  0.14037244  0.84656599  1  0  -0.401353  -0.683642  0  2.327214  0
O  O129  1  0.11773715  0.85982028  0.65349749  1  0  -0.401709  -0.683835  0  2.326509  0
O  O130  1  0.74211003  0.85962589  0.15343380  1  0  -0.40135  -0.683637  0  2.327229  0
O  O131  1  0.88226462  0.14018112  0.34650425  1  0  -0.401725  -0.683855  0  2.326495  0
O  O132  1  0.25787185  0.15696448  0.71381914  1  0  -0.388478  -0.652607  0  2.298359  0
O  O133  1  0.10124157  0.84324282  0.78623433  1  0  -0.388717  -0.652523  0  2.299067  0
O  O134  1  0.74212755  0.84303590  0.28618114  1  0  -0.388496  -0.652626  0  2.2983  0
O  O135  1  0.89875927  0.15675859  0.21376680  1  0  -0.388732  -0.652498  0  2.299039  0
O  O136  1  0.15482139  0.99583677  0.98389195  1  0  -0.40729  -0.703715  0  2.412537  0
O  O137  1  0.15909459  0.00427406  0.51629224  1  0  -0.406658  -0.702848  0  2.414615  0
O  O138  1  0.84517699  0.00416156  0.01610845  1  0  -0.407271  -0.70373  0  2.412623  0
O  O139  1  0.84090295  0.99572633  0.48370622  1  0  -0.406632  -0.702822  0  2.414616  0
O  O140  1  0.19930535  0.98077993  0.11079320  1  0  -0.369325  -0.645668  0  2.305228  0
O  O141  1  0.21858020  0.01934070  0.38935296  1  0  -0.369551  -0.645846  0  2.302485  0
O  O142  1  0.80069447  0.01921942  0.88920744  1  0  -0.36928  -0.64565  0  2.305255  0
O  O143  1  0.78141868  0.98065866  0.61064647  1  0  -0.369581  -0.645911  0  2.302533  0
O  O144  1  0.99498359  0.86077852  0.21608973  1  0  -0.403169  -0.732259  0  2.377246  0
O  O145  1  0.13406687  0.13922599  0.28389640  1  0  -0.403725  -0.733245  0  2.375186  0
O  O146  1  0.00501571  0.13921981  0.78391007  1  0  -0.4032  -0.7323  0  2.377208  0
O  O147  1  0.86593388  0.86077337  0.71610364  1  0  -0.403716  -0.733237  0  2.375235  0
