# generated using pymatgen
data_BiH13C10Br2O
_symmetry_space_group_name_H-M   'P 1'
_cell_length_a   8.11536930
_cell_length_b   9.10289767
_cell_length_c   17.06692840
_cell_angle_alpha   89.99991718
_cell_angle_beta   94.28608764
_cell_angle_gamma   89.99990205
_symmetry_Int_Tables_number   1
_chemical_formula_structural   BiH13C10Br2O
_chemical_formula_sum   'Bi4 H52 C40 Br8 O4'
_cell_volume   1257.26558056
_cell_formula_units_Z   4
loop_
 _symmetry_equiv_pos_site_id
 _symmetry_equiv_pos_as_xyz
  1  'x, y, z'
loop_
 _atom_site_type_symbol
 _atom_site_label
 _atom_site_symmetry_multiplicity
 _atom_site_fract_x
 _atom_site_fract_y
 _atom_site_fract_z
 _atom_site_occupancy
 _atom_site_pbe_bader_spin_density
 _atom_site_pbe_cm5_charge
 _atom_site_pbe_ddec_charge
 _atom_site_pbe_ddec_spin_density
 _atom_site_pbe_ddec_sum_bond_order
 _atom_site_pbe_magmom
Bi  Bi0  1  0.00181863  0.19133985  0.23642913  1  0  0.528549  0.877929  0  2.876845  0
Bi  Bi1  1  0.99818092  0.69134027  0.26357070  1  0  0.528555  0.877942  0  2.876825  0
Bi  Bi2  1  0.99818446  0.80865829  0.76357135  1  0  0.528536  0.877911  0  2.876857  0
Bi  Bi3  1  0.00181599  0.30865676  0.73642896  1  0  0.528551  0.877944  0  2.876788  0
H  H4  1  0.33720198  0.38444628  0.20564862  1  0  0.083915  0.092165  0  1.046431  0
H  H5  1  0.66279593  0.88444823  0.29435218  1  0  0.083946  0.092199  0  1.046441  0
H  H6  1  0.66279987  0.61555186  0.79435240  1  0  0.083913  0.092182  0  1.046424  0
H  H7  1  0.33720221  0.11555210  0.70564812  1  0  0.083919  0.092178  0  1.046408  0
H  H8  1  0.51587765  0.56984085  0.27661674  1  0  0.089729  0.089145  0  1.038572  0
H  H9  1  0.48411967  0.06984302  0.22338428  1  0  0.08973  0.08917  0  1.038504  0
H  H10  1  0.48411925  0.43016058  0.72338586  1  0  0.089747  0.089174  0  1.038504  0
H  H11  1  0.51588466  0.93015951  0.77661566  1  0  0.089695  0.089141  0  1.0385  0
H  H12  1  0.46267379  0.64483222  0.41205408  1  0  0.091148  0.093483  0  1.032544  0
H  H13  1  0.53732461  0.14483577  0.08794751  1  0  0.091176  0.093505  0  1.032586  0
H  H14  1  0.53731940  0.35516921  0.58794780  1  0  0.091167  0.093497  0  1.032641  0
H  H15  1  0.46268096  0.85516457  0.91205247  1  0  0.09119  0.093535  0  1.03257  0
H  H16  1  0.22852315  0.53006446  0.47809717  1  0  0.090879  0.096721  0  1.026029  0
H  H17  1  0.77147671  0.03006892  0.02190456  1  0  0.090881  0.096717  0  1.025986  0
H  H18  1  0.77147005  0.46993588  0.52190295  1  0  0.090898  0.096772  0  1.025945  0
H  H19  1  0.22853131  0.96992921  0.97809727  1  0  0.090895  0.096753  0  1.025955  0
H  H20  1  0.05083146  0.34640339  0.40835243  1  0  0.091537  0.090378  0  1.058028  0
H  H21  1  0.94916652  0.84640655  0.09164958  1  0  0.09155  0.090426  0  1.058042  0
H  H22  1  0.94916421  0.65359255  0.59164778  1  0  0.091552  0.090391  0  1.058058  0
H  H23  1  0.05083656  0.15358829  0.90835266  1  0  0.091563  0.090409  0  1.058069  0
H  H24  1  0.93202971  0.00611434  0.42677927  1  0  0.086384  0.059098  0  1.051587  0
H  H25  1  0.06796898  0.50611451  0.07322009  1  0  0.086399  0.059107  0  1.051586  0
H  H26  1  0.06796967  0.99388489  0.57322166  1  0  0.086371  0.059084  0  1.051647  0
H  H27  1  0.93203289  0.49388362  0.92677800  1  0  0.086386  0.059108  0  1.05164  0
H  H28  1  0.94161220  0.18034780  0.47611751  1  0  0.082265  0.050478  0  1.030797  0
H  H29  1  0.05838861  0.68034812  0.02388239  1  0  0.082272  0.050466  0  1.030811  0
H  H30  1  0.05838718  0.81965253  0.52388401  1  0  0.082263  0.050484  0  1.030773  0
H  H31  1  0.94161325  0.31965002  0.97611688  1  0  0.08228  0.050488  0  1.030744  0
H  H32  1  0.69651881  0.11310669  0.53062853  1  0  0.078363  0.083819  0  1.035907  0
H  H33  1  0.30348081  0.61310652  0.96937073  1  0  0.078358  0.083812  0  1.035902  0
H  H34  1  0.30347811  0.88689584  0.46937055  1  0  0.078375  0.083825  0  1.035898  0
H  H35  1  0.69652105  0.38689491  0.03062795  1  0  0.078366  0.083843  0  1.035912  0
H  H36  1  0.66011741  0.96531236  0.46423368  1  0  0.084251  0.090605  0  1.009737  0
H  H37  1  0.33988405  0.46531086  0.03576543  1  0  0.084251  0.090616  0  1.009743  0
H  H38  1  0.33988321  0.03468907  0.53576613  1  0  0.084255  0.090614  0  1.009743  0
H  H39  1  0.66012028  0.53469057  0.96423334  1  0  0.084277  0.090637  0  1.009719  0
H  H40  1  0.48878187  0.10827123  0.37882432  1  0  0.080253  0.088037  0  1.0199  0
H  H41  1  0.51121661  0.60827059  0.12117495  1  0  0.080243  0.087978  0  1.019946  0
H  H42  1  0.51121752  0.89172801  0.62117427  1  0  0.080253  0.088015  0  1.019905  0
H  H43  1  0.48878401  0.39173194  0.87882426  1  0  0.080257  0.088035  0  1.019926  0
H  H44  1  0.49673876  0.24955910  0.44989691  1  0  0.088943  0.094942  0  1.002052  0
H  H45  1  0.50325944  0.74955757  0.05010166  1  0  0.088918  0.094911  0  1.002104  0
H  H46  1  0.50325939  0.75044233  0.55010104  1  0  0.088945  0.094929  0  1.002032  0
H  H47  1  0.49674119  0.25044496  0.94989698  1  0  0.088936  0.094954  0  1.002141  0
H  H48  1  0.71894693  0.37403037  0.39189250  1  0  0.082971  0.051227  0  1.030567  0
H  H49  1  0.28104978  0.87402902  0.10810533  1  0  0.082967  0.051215  0  1.030564  0
H  H50  1  0.28104999  0.62596997  0.60810600  1  0  0.082975  0.051199  0  1.030558  0
H  H51  1  0.71894837  0.12597132  0.89189321  1  0  0.082964  0.051217  0  1.030593  0
H  H52  1  0.63259125  0.28496880  0.30537923  1  0  0.0899  0.063726  0  1.041985  0
H  H53  1  0.36740812  0.78496928  0.19461877  1  0  0.089915  0.063768  0  1.041952  0
H  H54  1  0.36741062  0.71502934  0.69461886  1  0  0.08992  0.063742  0  1.041953  0
H  H55  1  0.63259127  0.21503215  0.80537982  1  0  0.08989  0.063754  0  1.04196  0
C  C56  1  0.18179832  0.35132165  0.30196512  1  0  -0.123351  -0.238504  0  3.940313  0
C  C57  1  0.81820336  0.85132253  0.19803584  1  0  -0.123351  -0.238471  0  3.940299  0
C  C58  1  0.81820353  0.64867649  0.69803531  1  0  -0.123342  -0.238468  0  3.940169  0
C  C59  1  0.18179849  0.14867341  0.80196401  1  0  -0.12334  -0.23844  0  3.940248  0
C  C60  1  0.31313418  0.41569121  0.26548006  1  0  -0.10608  -0.086072  0  4.058776  0
C  C61  1  0.68686366  0.91569439  0.23452189  1  0  -0.106117  -0.08612  0  4.058846  0
C  C62  1  0.68686519  0.58430693  0.73452087  1  0  -0.106096  -0.08611  0  4.058808  0
C  C63  1  0.31313448  0.08430594  0.76547958  1  0  -0.10613  -0.086176  0  4.058969  0
C  C64  1  0.41292965  0.52141566  0.30508764  1  0  -0.095974  -0.077703  0  3.993892  0
C  C65  1  0.58707147  0.02141664  0.19491415  1  0  -0.096031  -0.077818  0  3.993987  0
C  C66  1  0.58707096  0.47858687  0.69491451  1  0  -0.095993  -0.07775  0  3.994136  0
C  C67  1  0.41293038  0.97858479  0.80508687  1  0  -0.095957  -0.077709  0  3.993889  0
C  C68  1  0.38319382  0.56321435  0.38158313  1  0  -0.096313  -0.08975  0  4.009019  0
C  C69  1  0.61680227  0.06322099  0.11841843  1  0  -0.09632  -0.089699  0  4.008929  0
C  C70  1  0.61679937  0.43678268  0.61841757  1  0  -0.096318  -0.089724  0  4.009018  0
C  C71  1  0.38319959  0.93678044  0.88158200  1  0  -0.096305  -0.089707  0  4.008902  0
C  C72  1  0.25327846  0.49890411  0.41841998  1  0  -0.100342  -0.087756  0  4.013324  0
C  C73  1  0.74672292  0.99890761  0.08158144  1  0  -0.100323  -0.087725  0  4.0131  0
C  C74  1  0.74671722  0.50109512  0.58158022  1  0  -0.100362  -0.087833  0  4.013122  0
C  C75  1  0.25328509  0.00108833  0.91842098  1  0  -0.100414  -0.087873  0  4.013065  0
C  C76  1  0.15284762  0.39349825  0.37882824  1  0  -0.107292  -0.094419  0  4.0752  0
C  C77  1  0.84715274  0.89350149  0.12117323  1  0  -0.107286  -0.094496  0  4.075174  0
C  C78  1  0.84714929  0.60649989  0.62117143  1  0  -0.107319  -0.094446  0  4.07508  0
C  C79  1  0.15284539  0.10649775  0.87882941  1  0  -0.107273  -0.094428  0  4.074908  0
C  C80  1  0.86403897  0.10738543  0.43715700  1  0  -0.078654  0.030329  0  3.826328  0
C  C81  1  0.13595952  0.60738443  0.06284228  1  0  -0.078712  0.030329  0  3.826407  0
C  C82  1  0.13595918  0.89261490  0.56284330  1  0  -0.078636  0.030363  0  3.82633  0
C  C83  1  0.86404234  0.39261371  0.93715640  1  0  -0.078679  0.030325  0  3.826336  0
C  C84  1  0.69415930  0.08178598  0.46853834  1  0  -0.172921  -0.173682  0  3.875038  0
C  C85  1  0.30584047  0.58178480  0.03146159  1  0  -0.172933  -0.173728  0  3.875093  0
C  C86  1  0.30583884  0.91821545  0.53146195  1  0  -0.172941  -0.17372  0  3.875098  0
C  C87  1  0.69416263  0.41821554  0.96853772  1  0  -0.172949  -0.173768  0  3.875151  0
C  C88  1  0.57317090  0.17748644  0.41598830  1  0  -0.17025  -0.168177  0  3.879742  0
C  C89  1  0.42682744  0.67748493  0.08401033  1  0  -0.170184  -0.168049  0  3.879785  0
C  C90  1  0.42682849  0.82251390  0.58400970  1  0  -0.170227  -0.168122  0  3.879697  0
C  C91  1  0.57317442  0.32251650  0.91598835  1  0  -0.170216  -0.168143  0  3.879892  0
C  C92  1  0.68433157  0.26656575  0.36566381  1  0  -0.081973  0.020102  0  3.865223  0
C  C93  1  0.31566659  0.76656537  0.13433475  1  0  -0.082006  0.02006  0  3.865231  0
C  C94  1  0.31566782  0.73343459  0.63433478  1  0  -0.08201  0.020131  0  3.865196  0
C  C95  1  0.68433280  0.23343496  0.86566442  1  0  -0.081964  0.020063  0  3.865306  0
Br  Br96  1  0.17231194  0.19370068  0.10469871  1  0  -0.169163  -0.379585  0  1.232077  0
Br  Br97  1  0.82768636  0.69370101  0.39530225  1  0  -0.169164  -0.379592  0  1.232043  0
Br  Br98  1  0.82768991  0.80629855  0.89530172  1  0  -0.169158  -0.379586  0  1.232075  0
Br  Br99  1  0.17231178  0.30629602  0.60469864  1  0  -0.169163  -0.379587  0  1.232047  0
Br  Br100  1  0.19389347  0.95424173  0.31121856  1  0  -0.120622  -0.339844  0  1.34228  0
Br  Br101  1  0.80610678  0.45424240  0.18878110  1  0  -0.120621  -0.339842  0  1.342276  0
Br  Br102  1  0.80611087  0.04576080  0.68877962  1  0  -0.120619  -0.339851  0  1.342306  0
Br  Br103  1  0.19388889  0.54576123  0.81121969  1  0  -0.120618  -0.33985  0  1.342296  0
O  O104  1  0.83174829  0.17776425  0.36111022  1  0  -0.226157  -0.236699  0  2.520402  0
O  O105  1  0.16825005  0.67776299  0.13888958  1  0  -0.226108  -0.236689  0  2.520441  0
O  O106  1  0.16825233  0.82223609  0.63889017  1  0  -0.226151  -0.236711  0  2.520446  0
O  O107  1  0.83175057  0.32223405  0.86110963  1  0  -0.226155  -0.236687  0  2.520414  0
