# generated using pymatgen
data_MgH8C6N2O7
_symmetry_space_group_name_H-M   'P 1'
_cell_length_a   7.30332966
_cell_length_b   8.15026476
_cell_length_c   9.81622955
_cell_angle_alpha   65.47082360
_cell_angle_beta   78.00976008
_cell_angle_gamma   59.95481028
_symmetry_Int_Tables_number   1
_chemical_formula_structural   MgH8C6N2O7
_chemical_formula_sum   'Mg2 H16 C12 N4 O14'
_cell_volume   460.14220423
_cell_formula_units_Z   2
loop_
 _symmetry_equiv_pos_site_id
 _symmetry_equiv_pos_as_xyz
  1  'x, y, z'
loop_
 _atom_site_type_symbol
 _atom_site_label
 _atom_site_symmetry_multiplicity
 _atom_site_fract_x
 _atom_site_fract_y
 _atom_site_fract_z
 _atom_site_occupancy
 _atom_site_hle17_bader_spin_density
 _atom_site_hle17_ddec_charge
 _atom_site_hle17_ddec_spin_density
 _atom_site_hle17_ddec_sum_bond_order
 _atom_site_hle17_magmom
 _atom_site_hse06_10hf_bader_spin_density
 _atom_site_hse06_10hf_ddec_charge
 _atom_site_hse06_10hf_ddec_spin_density
 _atom_site_hse06_10hf_ddec_sum_bond_order
 _atom_site_hse06_10hf_magmom
 _atom_site_hse06_bader_spin_density
 _atom_site_hse06_ddec_charge
 _atom_site_hse06_ddec_spin_density
 _atom_site_hse06_ddec_sum_bond_order
 _atom_site_hse06_magmom
 _atom_site_pbe_bader_spin_density
 _atom_site_pbe_cm5_charge
 _atom_site_pbe_ddec_charge
 _atom_site_pbe_ddec_spin_density
 _atom_site_pbe_ddec_sum_bond_order
 _atom_site_pbe_magmom
Mg  Mg0  1  0.96365462  0.93347350  0.21996526  1  0  1.472682  0  1.150818  0  0  1.360747  0  1.410024  0  0  1.384419  0  1.37421  0  0  0.80768  1.34409  0  1.434823  0
Mg  Mg1  1  0.46364056  0.15354029  0.78006137  1  0  1.472183  0  1.150744  0  0  1.360312  0  1.409744  0  0  1.383998  0  1.373933  0  0  0.807544  1.343456  0  1.434891  0
H  H2  1  0.99912277  0.34279016  0.20036646  1  0  0.093568  0  0.939092  0  0  0.098492  0  1.00671  0  0  0.103326  0  1.001735  0  0  0.123768  0.094775  0  1.010876  0
H  H3  1  0.49913580  0.54313900  0.79960798  1  0  0.094378  0  0.938625  0  0  0.09845  0  1.007254  0  0  0.103193  0  1.002323  0  0  0.123973  0.095068  0  1.010921  0
H  H4  1  0.04735009  0.45048430  0.39264328  1  0  0.116889  0  0.951781  0  0  0.119453  0  1.019713  0  0  0.123724  0  1.015825  0  0  0.127313  0.11629  0  1.022655  0
H  H5  1  0.54734640  0.84320603  0.60724457  1  0  0.1159  0  0.952949  0  0  0.118737  0  1.020754  0  0  0.122965  0  1.016926  0  0  0.12687  0.115319  0  1.024075  0
H  H6  1  0.58145965  0.96585766  0.29970758  1  0  0.388312  0  0.931686  0  0  0.341744  0  1.022751  0  0  0.35331  0  1.006341  0  0  0.286441  0.333554  0  1.034357  0
H  H7  1  0.08148796  0.26559962  0.70033420  1  0  0.38688  0  0.931399  0  0  0.340006  0  1.024657  0  0  0.351526  0  1.008315  0  0  0.285768  0.33184  0  1.036226  0
H  H8  1  0.55749145  0.18781075  0.26288177  1  0  0.4241  0  0.887223  0  0  0.387551  0  0.958828  0  0  0.400097  0  0.940817  0  0  0.288469  0.378738  0  0.971469  0
H  H9  1  0.05720423  0.45080069  0.73713238  1  0  0.425265  0  0.885351  0  0  0.388272  0  0.957824  0  0  0.400857  0  0.939757  0  0  0.288938  0.379434  0  0.970499  0
H  H10  1  0.00446667  0.22442180  0.93963175  1  0  0.447652  0  0.844966  0  0  0.412925  0  0.912657  0  0  0.424579  0  0.895557  0  0  0.298555  0.404605  0  0.924922  0
H  H11  1  0.50444781  0.16413579  0.06050495  1  0  0.447135  0  0.845908  0  0  0.412518  0  0.913339  0  0  0.424146  0  0.89628  0  0  0.298387  0.404213  0  0.925546  0
H  H12  1  0.77799479  0.31730152  0.01117030  1  0  0.437943  0  0.807064  0  0  0.421829  0  0.856619  0  0  0.429444  0  0.848127  0  0  0.333679  0.416463  0  0.862688  0
H  H13  1  0.27798722  0.32867757  0.98888217  1  0  0.437973  0  0.807818  0  0  0.422073  0  0.856988  0  0  0.429651  0  0.848505  0  0  0.333136  0.416353  0  0.863753  0
H  H14  1  0.84440796  0.72587728  0.13630323  1  0  0.432633  0  0.866778  0  0  0.399414  0  0.933822  0  0  0.409661  0  0.918894  0  0  0.296408  0.392167  0  0.944368  0
H  H15  1  0.34449315  0.86230326  0.86369286  1  0  0.431887  0  0.867579  0  0  0.39893  0  0.93421  0  0  0.409155  0  0.9193  0  0  0.296463  0.391793  0  0.944572  0
H  H16  1  0.03688122  0.75662819  0.03850473  1  0  0.427792  0  0.877706  0  0  0.392462  0  0.947574  0  0  0.404781  0  0.929503  0  0  0.292106  0.383727  0  0.960413  0
H  H17  1  0.53686358  0.79519544  0.96159837  1  0  0.426195  0  0.879935  0  0  0.391839  0  0.948455  0  0  0.404122  0  0.930402  0  0  0.291935  0.383075  0  0.961304  0
C  C18  1  0.00338231  0.25466519  0.31968632  1  0  0.111838  0  3.654986  0  0  0.07467  0  3.929734  0  0  0.077638  0  3.942427  0  0  0.063404  0.07255  0  3.921392  0
C  C19  1  0.50323609  0.57443531  0.68029478  1  0  0.110538  0  3.65383  0  0  0.0741  0  3.928695  0  0  0.077138  0  3.941427  0  0  0.062893  0.071443  0  3.920652  0
C  C20  1  0.02619292  0.31577744  0.42586114  1  0  0.107414  0  3.60708  0  0  0.072916  0  3.874388  0  0  0.077695  0  3.887005  0  0  0.065615  0.069689  0  3.865991  0
C  C21  1  0.52602619  0.74174464  0.57407303  1  0  0.108627  0  3.60632  0  0  0.073677  0  3.873568  0  0  0.078499  0  3.886221  0  0  0.065378  0.070573  0  3.865598  0
C  C22  1  0.99154631  0.04642297  0.61593676  1  0  0.069778  0  3.669075  0  0  0.063951  0  3.921716  0  0  0.065824  0  3.936406  0  0  0.137468  0.062268  0  3.912248  0
C  C23  1  0.49124943  0.66248189  0.38400678  1  0  0.069727  0  3.670905  0  0  0.06379  0  3.922518  0  0  0.065592  0  3.937332  0  0  0.137392  0.062285  0  3.912992  0
C  C24  1  0.97993019  0.97956504  0.50884460  1  0  0.037481  0  3.732193  0  0  0.035902  0  3.979903  0  0  0.033052  0  3.997837  0  0  0.121412  0.037181  0  3.968488  0
C  C25  1  0.47966408  0.48851810  0.49114113  1  0  0.038558  0  3.733358  0  0  0.036623  0  3.981321  0  0  0.033861  0  3.999236  0  0  0.120894  0.037723  0  3.97001  0
C  C26  1  0.97439627  0.78215518  0.54974531  1  0  0.637928  0  3.929567  0  0  0.578661  0  4.242755  0  0  0.611852  0  4.235083  0  0  0.215328  0.556373  0  4.247063  0
C  C27  1  0.47442366  0.33187544  0.45024495  1  0  0.635115  0  3.933379  0  0  0.575795  0  4.246609  0  0  0.608978  0  4.239052  0  0  0.214209  0.553483  0  4.250973  0
C  C28  1  0.96357360  0.94835903  0.78251201  1  0  0.686028  0  3.910429  0  0  0.620572  0  4.227204  0  0  0.656294  0  4.214575  0  0  0.231886  0.596222  0  4.235064  0
C  C29  1  0.46334847  0.73103741  0.21741694  1  0  0.684878  0  3.912964  0  0  0.620857  0  4.227105  0  0  0.65657  0  4.214509  0  0  0.232019  0.596473  0  4.234912  0
N  N30  1  0.98319341  0.08592923  0.36171117  1  0  -0.354255  0  3.249762  0  0  -0.304976  0  3.506315  0  0  -0.311712  0  3.521711  0  0  -0.319541  -0.300108  0  3.496003  0
N  N31  1  0.48303095  0.44772437  0.63825449  1  0  -0.352905  0  3.250436  0  0  -0.303333  0  3.506279  0  0  -0.310175  0  3.521692  0  0  -0.318234  -0.298626  0  3.496556  0
N  N32  1  0.01846855  0.21256647  0.57278272  1  0  -0.260992  0  3.119376  0  0  -0.209889  0  3.36922  0  0  -0.219651  0  3.382935  0  0  -0.278416  -0.202825  0  3.359995  0
N  N33  1  0.51821838  0.78543748  0.42718105  1  0  -0.262343  0  3.121436  0  0  -0.211042  0  3.370904  0  0  -0.220906  0  3.384699  0  0  -0.278536  -0.204305  0  3.361874  0
O  O34  1  0.62719668  0.06963109  0.22436008  1  0  -0.916237  0  1.943381  0  0  -0.843659  0  2.142204  0  0  -0.865137  0  2.107751  0  0  -0.59331  -0.828561  0  2.166227  0
O  O35  1  0.12706323  0.29410268  0.77570988  1  0  -0.915505  0  1.940331  0  0  -0.842377  0  2.140677  0  0  -0.863827  0  2.106252  0  0  -0.592802  -0.827158  0  2.164868  0
O  O36  1  0.91921597  0.20289133  0.03409797  1  0  -0.875259  0  1.815576  0  0  -0.823515  0  2.002625  0  0  -0.839503  0  1.972864  0  0  -0.593016  -0.812461  0  2.023645  0
O  O37  1  0.41918551  0.23709152  0.96601394  1  0  -0.874513  0  1.816479  0  0  -0.822933  0  2.002911  0  0  -0.838911  0  1.973247  0  0  -0.592232  -0.811917  0  2.024374  0
O  O38  1  0.97503241  0.73145426  0.14208785  1  0  -0.905554  0  1.845589  0  0  -0.848624  0  2.034197  0  0  -0.866697  0  2.000235  0  0  -0.624321  -0.835791  0  2.057938  0
O  O39  1  0.47503577  0.87373862  0.85799231  1  0  -0.903544  0  1.848265  0  0  -0.847627  0  2.035346  0  0  -0.86557  0  2.001545  0  0  -0.624394  -0.834746  0  2.059241  0
O  O40  1  0.97359288  0.68008987  0.68770078  1  0  -0.577259  0  1.979245  0  0  -0.522078  0  2.199679  0  0  -0.547066  0  2.191367  0  0  -0.295708  -0.504663  0  2.205103  0
O  O41  1  0.47409641  0.36757874  0.31226459  1  0  -0.575465  0  1.980984  0  0  -0.520412  0  2.201303  0  0  -0.545332  0  2.192952  0  0  -0.29485  -0.503159  0  2.206607  0
O  O42  1  0.97809781  0.73371498  0.44115733  1  0  -0.695401  0  2.007374  0  0  -0.643641  0  2.254144  0  0  -0.667345  0  2.244663  0  0  -0.346468  -0.627154  0  2.260159  0
O  O43  1  0.47789609  0.17496157  0.55883448  1  0  -0.693636  0  2.007788  0  0  -0.641831  0  2.254388  0  0  -0.665566  0  2.244973  0  0  -0.345335  -0.62519  0  2.260436  0
O  O44  1  0.77550001  0.00587347  0.82895335  1  0  -0.684981  0  2.028871  0  0  -0.62514  0  2.274287  0  0  -0.651977  0  2.263249  0  0  -0.342317  -0.605841  0  2.28116  0
O  O45  1  0.27531273  0.83507971  0.17084732  1  0  -0.684078  0  2.029137  0  0  -0.624781  0  2.274199  0  0  -0.651532  0  2.263007  0  0  -0.342069  -0.605613  0  2.281407  0
O  O46  1  0.12730595  0.82850101  0.86425666  1  0  -0.623156  0  1.986193  0  0  -0.560509  0  2.204612  0  0  -0.587332  0  2.192988  0  0  -0.296765  -0.541442  0  2.212138  0
O  O47  1  0.62715520  0.69275408  0.13579496  1  0  -0.622194  0  1.986402  0  0  -0.560899  0  2.204889  0  0  -0.587707  0  2.193261  0  0  -0.297015  -0.541662  0  2.212265  0
