# generated using pymatgen
data_CoPH19C22N4O3
_symmetry_space_group_name_H-M   'P 1'
_cell_length_a   9.76996549
_cell_length_b   10.34457015
_cell_length_c   11.04042111
_cell_angle_alpha   69.53760817
_cell_angle_beta   78.27706462
_cell_angle_gamma   81.60114528
_symmetry_Int_Tables_number   1
_chemical_formula_structural   CoPH19C22N4O3
_chemical_formula_sum   'Co2 P2 H38 C44 N8 O6'
_cell_volume   1020.17128517
_cell_formula_units_Z   2
loop_
 _symmetry_equiv_pos_site_id
 _symmetry_equiv_pos_as_xyz
  1  'x, y, z'
loop_
 _atom_site_type_symbol
 _atom_site_label
 _atom_site_symmetry_multiplicity
 _atom_site_fract_x
 _atom_site_fract_y
 _atom_site_fract_z
 _atom_site_occupancy
 _atom_site_hle17_ddec_charge
 _atom_site_hle17_ddec_spin_density
 _atom_site_hle17_ddec_sum_bond_order
 _atom_site_hle17_magmom
 _atom_site_hse06_10hf_ddec_charge
 _atom_site_hse06_10hf_ddec_spin_density
 _atom_site_hse06_10hf_ddec_sum_bond_order
 _atom_site_hse06_10hf_magmom
 _atom_site_hse06_ddec_charge
 _atom_site_hse06_ddec_spin_density
 _atom_site_hse06_ddec_sum_bond_order
 _atom_site_hse06_magmom
 _atom_site_pbe_cm5_charge
 _atom_site_pbe_ddec_charge
 _atom_site_pbe_ddec_spin_density
 _atom_site_pbe_ddec_sum_bond_order
 _atom_site_pbe_magmom
Co  Co0  1  0.59840370  0.89200569  0.37633571  1  1.010828  -2.822267  2.066302  -2.535  0.950394  -2.823033  2.529149  -2.586  1.038034  -2.866632  2.442304  -2.672  0.685816  0.88011  -2.781754  2.595128  -2.506
Co  Co1  1  0.40159264  0.10799229  0.62366988  1  1.010847  -2.822256  2.06646  -2.535  0.950418  -2.823008  2.529307  -2.586  1.03807  -2.86661  2.442451  -2.672  0.685801  0.880127  -2.781734  2.595312  -2.506
P  P2  1  0.68532740  0.91056520  0.63251288  1  1.375673  -0.005168  5.035891  -0.002  1.208457  -0.010484  5.555625  -0.007  1.263721  -0.007697  5.524839  -0.006  0.255842  1.167874  -0.013326  5.573996  -0.008
P  P3  1  0.31466795  0.08943188  0.36748863  1  1.375717  -0.005174  5.035931  -0.002  1.208492  -0.010482  5.555672  -0.007  1.263754  -0.007695  5.524889  -0.006  0.255808  1.167913  -0.013325  5.574044  -0.008
H  H4  1  0.69340721  0.80318070  0.75404426  1  -0.173172  -0.003749  0.909896  -0.005  -0.142315  -0.00274  0.998128  -0.003  -0.148599  -0.0018  0.995027  -0.002  0.070002  -0.137111  -0.003727  1.000015  -0.005
H  H5  1  0.30659027  0.19681526  0.24595723  1  -0.173212  -0.003749  0.909939  -0.005  -0.142322  -0.00274  0.998127  -0.003  -0.148607  -0.001801  0.995028  -0.002  0.070007  -0.13712  -0.003727  1.000021  -0.005
H  H6  1  0.37098103  0.70838729  0.04443699  1  0.080689  2.3e-05  1.006218  0.0  0.088553  2.8e-05  1.075936  0.0  0.089413  2e-05  1.078635  0.0  0.092071  0.088167  4.8e-05  1.073801  0.0
H  H7  1  0.62900053  0.29161592  0.95554694  1  0.080716  2.2e-05  1.006178  0.0  0.088573  2.8e-05  1.075901  0.0  0.089432  2e-05  1.0786  0.0  0.092077  0.088184  4.8e-05  1.073763  0.0
H  H8  1  0.53314060  0.28141747  0.18387087  1  0.097869  6.7e-05  0.956661  0.0  0.108316  5.5e-05  1.019575  0.0  0.111124  8.4e-05  1.018116  0.0  0.102599  0.106085  2.4e-05  1.021173  0.0
H  H9  1  0.46684908  0.71859146  0.81611618  1  0.097929  6.4e-05  0.956457  0.0  0.108335  5.5e-05  1.019426  0.0  0.111144  8.4e-05  1.017964  0.0  0.102651  0.106099  2.5e-05  1.021036  0.0
H  H10  1  0.28883747  0.55063883  0.27540725  1  0.086073  5.9e-05  0.919193  0.0  0.101845  1.7e-05  0.979708  0.0  0.102413  1.3e-05  0.98015  0.0  0.114944  0.101995  2.2e-05  0.978344  0.0
H  H11  1  0.71116665  0.44937447  0.72458496  1  0.086219  5.7e-05  0.919067  0.0  0.101945  1.7e-05  0.979606  0.0  0.102513  1.3e-05  0.98005  0.0  0.114962  0.102088  2.2e-05  0.978243  0.0
H  H12  1  0.37792421  0.38351385  0.33488295  1  0.109119  0.000108  0.953746  0.0  0.121174  0.000207  1.0172  0.0  0.123474  0.000249  1.015702  0.0  0.11576  0.119138  0.000132  1.018677  0.0
H  H13  1  0.62207268  0.61649791  0.66510013  1  0.109008  0.000107  0.954049  0.0  0.121064  0.000207  1.017472  0.0  0.123398  0.000249  1.015932  0.0  0.115753  0.119027  0.000132  1.018944  0.0
H  H14  1  0.39169243  0.75888143  0.27876435  1  0.098858  0.000102  0.961468  -0.001  0.106863  8.2e-05  1.029416  0.0  0.109056  0.000101  1.026473  0.0  0.138485  0.105094  7e-05  1.031807  0.0
H  H15  1  0.60831146  0.24111117  0.72123705  1  0.098784  0.000106  0.961507  -0.001  0.106818  8.2e-05  1.029444  0.0  0.109011  0.000101  1.026499  0.0  0.138454  0.105045  7e-05  1.031838  0.0
H  H16  1  0.85271686  0.64435373  0.43547441  1  0.1042  -5.5e-05  0.950616  0.0  0.11611  -0.000288  1.008717  0.0  0.119334  -0.000199  1.006318  0.0  0.107001  0.113545  -0.000387  1.010941  0.0
H  H17  1  0.14728616  0.35563482  0.56452660  1  0.10414  -5.2e-05  0.95055  0.0  0.116033  -0.000288  1.008688  0.0  0.119257  -0.0002  1.006289  0.0  0.106956  0.11347  -0.000387  1.010913  0.0
H  H18  1  0.96163939  0.39892247  0.49043307  1  0.080967  2.8e-05  0.982676  0.0  0.094827  5.3e-05  1.04057  0.0  0.097035  4.4e-05  1.039752  0.0  0.096537  0.093561  6.2e-05  1.040457  0.0
H  H19  1  0.03836455  0.60106910  0.50956864  1  0.080949  2.8e-05  0.982745  0.0  0.094795  5.2e-05  1.040658  0.0  0.097004  4.4e-05  1.03984  0.0  0.096462  0.093529  6.2e-05  1.040544  0.0
H  H20  1  0.84114414  0.21371439  0.47226238  1  0.110056  0.000141  0.956339  0.0  0.119932  6.7e-05  1.015989  0.0  0.123548  6e-05  1.01412  0.0  0.104337  0.117079  3.8e-05  1.01769  0.0
H  H21  1  0.15884299  0.78627753  0.52775850  1  0.11009  0.000147  0.956208  0.0  0.11999  6.7e-05  1.015841  0.0  0.123609  6e-05  1.013966  0.0  0.104367  0.117136  3.8e-05  1.017542  0.0
H  H22  1  0.61462322  0.26744013  0.38654403  1  0.115896  4.3e-05  0.958087  0.0  0.123553  -4.6e-05  1.024516  0.0  0.126657  5.1e-05  1.022896  0.0  0.108543  0.120817  -0.000271  1.026622  0.0
H  H23  1  0.38536294  0.73254977  0.61347765  1  0.115783  4.1e-05  0.958027  0.0  0.123411  -4.6e-05  1.024551  0.0  0.126513  5.1e-05  1.022936  0.0  0.108499  0.120674  -0.000271  1.026657  0.0
H  H24  1  0.23790196  0.37761019  0.97863173  1  0.092671  -9e-06  0.949687  0.0  0.103807  -1.8e-05  1.009836  0.0  0.106353  -1.1e-05  1.009598  0.0  0.097532  0.102054  -1.5e-05  1.010037  0.0
H  H25  1  0.76214181  0.62237839  0.02137747  1  0.092812  -5e-06  0.949604  0.0  0.103784  -1.8e-05  1.00992  0.0  0.106331  -1.1e-05  1.009686  0.0  0.097531  0.102031  -1.5e-05  1.010122  0.0
H  H26  1  0.80090028  0.37637880  0.15232048  1  0.082475  1.8e-05  0.988484  0.0  0.089984  1.7e-05  1.058893  0.0  0.091511  1.6e-05  1.060134  0.0  0.093057  0.088516  3.4e-05  1.059031  0.0
H  H27  1  0.19914850  0.62361596  0.84767685  1  0.082682  1.3e-05  0.988319  0.0  0.09024  1.8e-05  1.058638  0.0  0.091781  1.6e-05  1.059801  0.0  0.09319  0.088776  3.4e-05  1.058767  0.0
H  H28  1  0.14294791  0.16385865  0.11104696  1  0.076274  -2e-06  0.953489  0.0  0.089895  -7.8e-05  1.021628  0.0  0.090171  -4.7e-05  1.022153  0.0  0.106555  0.089736  -9.6e-05  1.021245  0.0
H  H29  1  0.85705611  0.83610508  0.88896160  1  0.076371  -4e-06  0.953314  0.0  0.089975  -7.8e-05  1.021491  0.0  0.090248  -4.6e-05  1.02202  0.0  0.106608  0.089777  -9.6e-05  1.021147  0.0
H  H30  1  0.05711422  0.19426255  0.25660610  1  0.105708  -1e-05  0.934591  0.0  0.120811  -3.3e-05  0.995535  0.0  0.122263  -1.7e-05  0.994672  0.0  0.120954  0.119372  -7.3e-05  0.996438  0.0
H  H31  1  0.94289953  0.80571932  0.74339690  1  0.105608  -1.2e-05  0.934685  0.0  0.120804  -3.2e-05  0.995572  0.0  0.122252  -1.7e-05  0.994703  0.0  0.120979  0.119366  -7.3e-05  0.996467  0.0
H  H32  1  0.87213310  0.03811282  0.37518521  1  0.131304  2e-05  0.969844  -0.001  0.137135  -6.8e-05  1.032185  0.0  0.141111  -5e-05  1.027585  0.0  0.142125  0.133894  -0.000106  1.035829  -0.001
H  H33  1  0.12785894  0.96188857  0.62481374  1  0.131301  2e-05  0.969887  -0.001  0.137137  -6.8e-05  1.032225  0.0  0.141106  -5e-05  1.027624  0.0  0.142144  0.133894  -0.000106  1.035871  -0.001
H  H34  1  0.60293717  0.93829279  0.08009049  1  0.107581  3.2e-05  0.952553  0.0  0.117667  -0.000177  1.01369  0.0  0.120033  -0.000103  1.013371  0.0  0.105603  0.116035  -0.00025  1.013945  0.0
H  H35  1  0.39704780  0.06172855  0.91990169  1  0.107634  3.2e-05  0.952411  0.0  0.117688  -0.000177  1.013607  0.0  0.120053  -0.000103  1.013287  0.0  0.105618  0.116056  -0.00025  1.013854  0.0
H  H36  1  0.67593148  0.03269375  0.83690971  1  0.101306  -5.2e-05  0.988478  0.0  0.112157  3e-05  1.049089  0.0  0.115905  0.000101  1.046935  0.0  0.100254  0.109117  -6.8e-05  1.051003  0.0
H  H37  1  0.32405567  0.96732544  0.16308276  1  0.101256  -4.8e-05  0.988558  0.0  0.112106  2.9e-05  1.049164  0.0  0.115852  0.000101  1.047013  0.0  0.100235  0.10904  -6.8e-05  1.051117  0.0
H  H38  1  0.87387638  0.18001453  0.73938449  1  0.092919  0.000137  0.94433  0.0  0.107774  4.1e-05  0.999164  0.0  0.110158  3.3e-05  0.998672  0.0  0.102282  0.105766  4e-05  1.000079  0.0
H  H39  1  0.12611716  0.82000118  0.26061336  1  0.09282  0.000138  0.944243  0.0  0.107638  4.1e-05  0.99914  0.0  0.11002  3.3e-05  0.99865  0.0  0.102226  0.105632  4e-05  1.000057  0.0
H  H40  1  0.00623682  0.24258378  0.88018232  1  0.110495  -0.000144  0.945472  0.0  0.122649  -9.5e-05  1.00139  0.0  0.125287  -5.9e-05  1.001055  0.0  0.107384  0.120759  -0.000139  1.00159  0.0
H  H41  1  0.99375516  0.75741851  0.11982269  1  0.110478  -0.000139  0.945495  0.0  0.122624  -9.6e-05  1.001426  0.0  0.125262  -5.9e-05  1.001091  0.0  0.107359  0.120736  -0.000139  1.001628  0.0
C  C42  1  0.42782604  0.61683104  0.02521122  1  -0.114713  2.7e-05  3.756394  0.0  -0.133745  8e-06  4.003505  0.0  -0.136137  3e-06  4.026255  0.0  -0.095133  -0.131744  -3e-06  3.988059  0.0
C  C43  1  0.57217013  0.38317244  0.97477729  1  -0.114888  2.4e-05  3.75612  0.0  -0.133944  8e-06  4.003301  0.0  -0.136333  2e-06  4.026045  0.0  -0.095192  -0.131942  -3e-06  3.987847  0.0
C  C44  1  0.44552254  0.49420855  0.12946618  1  0.065879  0.000188  3.750701  0.0  0.084094  -4e-06  3.990459  0.0  0.08317  -5e-06  4.014385  0.0  -0.014819  0.084587  -1.4e-05  3.974451  0.0
C  C45  1  0.55448293  0.50579762  0.87052076  1  0.065889  0.000201  3.750732  0.0  0.084142  -3e-06  3.990415  0.0  0.083215  -4e-06  4.01435  0.0  -0.014859  0.084637  -1.4e-05  3.974398  0.0
C  C46  1  0.51838362  0.37735723  0.10334170  1  -0.109749  1e-06  3.744979  0.0  -0.128018  -8.9e-05  3.993576  0.0  -0.13  -5.3e-05  4.013857  0.0  -0.090861  -0.126912  -0.000206  3.980641  0.0
C  C47  1  0.48161351  0.62264825  0.89664692  1  -0.109912  -0.0  3.745007  0.0  -0.128178  -8.9e-05  3.993623  0.0  -0.130159  -5.3e-05  4.01391  0.0  -0.090934  -0.127074  -0.000206  3.980684  0.0
C  C48  1  0.39053930  0.49022170  0.26866464  1  -0.048085  -0.000444  3.641774  -0.001  -0.113022  -0.000402  3.885742  -0.001  -0.108723  -0.000278  3.895302  0.0  -0.048535  -0.115566  -0.000572  3.878844  -0.001
C  C49  1  0.60945854  0.50979194  0.73132494  1  -0.048219  -0.000441  3.64196  -0.001  -0.113073  -0.000402  3.885768  -0.001  -0.108793  -0.000278  3.895318  0.0  -0.048581  -0.115618  -0.000572  3.878861  -0.001
C  C50  1  0.47958269  0.68524668  0.30826390  1  0.209196  0.013597  3.651633  0.008  0.148005  4.3e-05  3.927233  -0.001  0.167977  -0.000483  3.937508  -0.001  0.161922  0.133548  0.001597  3.920972  0.0
C  C51  1  0.52042401  0.31475400  0.69173721  1  0.209302  0.013595  3.651694  0.008  0.148091  4.1e-05  3.927287  -0.001  0.168063  -0.000481  3.937563  -0.001  0.162002  0.13364  0.001595  3.921016  0.0
C  C52  1  0.67607428  0.59183491  0.37703903  1  0.148533  0.003006  3.828717  0.002  0.149001  -0.000564  4.077474  -0.001  0.153487  -0.00017  4.101223  -0.001  0.085709  0.146033  -0.000855  4.060948  -0.001
C  C53  1  0.32393492  0.40815529  0.62296762  1  0.148515  0.003019  3.828976  0.002  0.14896  -0.000564  4.077669  -0.001  0.153447  -0.000171  4.101418  -0.001  0.085677  0.145992  -0.000854  4.061147  -0.001
C  C54  1  0.80403321  0.56250569  0.42286618  1  -0.14552  -0.002024  3.762673  -0.003  -0.1659  -0.000936  4.015815  -0.001  -0.168841  -0.000754  4.035816  -0.001  -0.093066  -0.163681  -0.001297  4.00199  -0.002
C  C55  1  0.19596876  0.43748287  0.57713682  1  -0.145365  -0.002037  3.762417  -0.003  -0.165739  -0.000936  4.015539  -0.001  -0.168681  -0.000754  4.035537  -0.001  -0.092944  -0.163521  -0.001297  4.001719  -0.002
C  C56  1  0.86217630  0.42594367  0.45407794  1  -0.087674  0.002875  3.802241  0.002  -0.102597  0.000777  4.05498  0.0  -0.104498  0.000791  4.077846  0.0  -0.101484  -0.101583  0.001045  4.038575  0.001
C  C57  1  0.13782047  0.57404403  0.54592806  1  -0.087665  0.002895  3.802158  0.002  -0.102576  0.000777  4.054874  0.0  -0.104476  0.000793  4.077742  0.0  -0.101409  -0.101562  0.001045  4.038473  0.001
C  C58  1  0.79506789  0.32051856  0.44151210  1  -0.073178  -0.001448  3.750208  -0.002  -0.090207  -0.000363  4.006879  -0.001  -0.092433  -0.00032  4.028264  -0.001  -0.094067  -0.08832  -0.000564  3.992837  -0.001
C  C59  1  0.20493082  0.67947190  0.55850447  1  -0.073321  -0.001462  3.750462  -0.002  -0.090389  -0.000363  4.007161  -0.001  -0.092619  -0.00032  4.028554  -0.001  -0.094114  -0.088504  -0.000565  3.993123  -0.001
C  C60  1  0.66834437  0.34908129  0.39373215  1  -0.139159  0.002033  3.736264  0.001  -0.160202  0.000166  3.996885  0.0  -0.162909  0.000376  4.016442  0.0  -0.091697  -0.158521  0.000163  3.984554  0.0
C  C61  1  0.33164173  0.65091089  0.60627887  1  -0.138805  0.002056  3.736324  0.001  -0.159871  0.000166  3.996911  0.0  -0.162578  0.000375  4.01648  0.0  -0.091614  -0.158188  0.000163  3.984575  0.0
C  C62  1  0.61103804  0.48638621  0.36080706  1  0.101901  -0.002972  3.749967  -0.005  0.091507  -0.001696  3.991546  -0.003  0.095372  -0.001289  4.013338  -0.002  0.094452  0.089295  -0.002054  3.976329  -0.003
C  C63  1  0.38895746  0.51360667  0.63919936  1  0.101648  -0.002977  3.75002  -0.005  0.091378  -0.001696  3.991443  -0.003  0.095238  -0.00129  4.013236  -0.002  0.094379  0.089168  -0.002054  3.976225  -0.003
C  C64  1  0.13317398  0.43085980  0.98861886  1  -0.117161  -1e-05  3.760556  0.0  -0.134796  -6.1e-05  4.005357  0.0  -0.137378  -4.2e-05  4.026907  0.0  -0.095505  -0.132849  -7.4e-05  3.990667  0.0
C  C65  1  0.86686357  0.56912820  0.01138256  1  -0.117259  -5.9e-05  3.76089  0.0  -0.134748  -6.3e-05  4.005645  0.0  -0.137329  -4.3e-05  4.02718  0.0  -0.09547  -0.132801  -7.4e-05  3.990961  0.0
C  C66  1  0.02172910  0.35999087  0.07531542  1  0.060266  -8e-05  3.767484  0.0  0.081763  -8.6e-05  4.004032  0.0  0.080761  -6e-05  4.027769  0.0  -0.016617  0.082583  -0.000141  3.987448  0.0
C  C67  1  0.97829558  0.64000497  0.92468221  1  0.060281  -3.4e-05  3.767523  0.0  0.081809  -8.3e-05  4.004138  0.0  0.080807  -5.7e-05  4.027867  0.0  -0.016545  0.082635  -0.000141  3.987547  0.0
C  C68  1  0.88860579  0.43034880  0.08554915  1  -0.106242  -1.2e-05  3.771916  0.0  -0.130183  -1.9e-05  4.02269  0.0  -0.132717  -1.1e-05  4.04632  0.0  -0.097034  -0.128712  -4.8e-05  4.007185  0.0
C  C69  1  0.11142490  0.56965404  0.91444433  1  -0.106542  -3.2e-05  3.771692  0.0  -0.130561  -2.1e-05  4.022614  0.0  -0.133071  -1.2e-05  4.046246  0.0  -0.097212  -0.129092  -4.8e-05  4.007109  0.0
C  C70  1  0.04569688  0.20964297  0.15522295  1  -0.043586  -0.000563  3.65738  -0.001  -0.112643  -0.000501  3.90566  -0.001  -0.108233  -0.000364  3.916212  0.0  -0.048045  -0.115492  -0.000636  3.898754  -0.001
C  C71  1  0.95431465  0.79034213  0.84477763  1  -0.043397  -0.000562  3.657293  -0.001  -0.112626  -0.000501  3.905924  -0.001  -0.108207  -0.000365  3.916464  0.0  -0.0481  -0.11545  -0.000636  3.899026  -0.001
C  C72  1  0.85321815  0.05352021  0.27634709  1  0.211829  0.013193  3.592265  0.008  0.152349  -0.000347  3.863548  -0.002  0.172373  -0.000826  3.872117  -0.002  0.168896  0.138062  0.000984  3.858561  -0.001
C  C73  1  0.14677288  0.94648021  0.72365143  1  0.211913  0.013178  3.592263  0.008  0.15242  -0.000349  3.863561  -0.002  0.172451  -0.000825  3.872126  -0.002  0.168792  0.138134  0.000983  3.858576  -0.001
C  C74  1  0.76595776  0.03590869  0.11577843  1  0.146792  0.003342  3.833762  0.002  0.147094  -0.000634  4.081791  -0.001  0.151293  -0.000223  4.106354  -0.001  0.084932  0.144031  -0.000986  4.065114  -0.002
C  C75  1  0.23402928  0.96411239  0.88422162  1  0.146562  0.003318  3.833957  0.002  0.146891  -0.000634  4.081947  -0.001  0.151092  -0.000222  4.106511  -0.001  0.084925  0.143828  -0.000986  4.065264  -0.002
C  C76  1  0.69016353  0.00363686  0.03692909  1  -0.141662  -0.002201  3.740177  -0.003  -0.158402  -0.001121  3.986495  -0.001  -0.161341  -0.000911  4.006267  -0.001  -0.091855  -0.156584  -0.001408  3.973395  -0.002
C  C77  1  0.30981924  0.99638652  0.96306827  1  -0.141526  -0.002177  3.740282  -0.003  -0.158235  -0.001121  3.986568  -0.001  -0.161174  -0.00091  4.00634  -0.001  -0.091801  -0.156411  -0.001408  3.973458  -0.002
C  C78  1  0.73142701  0.05721800  0.90160017  1  -0.100844  0.002779  3.796466  0.002  -0.114823  0.000609  4.05102  0.0  -0.116274  0.000695  4.070393  0.0  -0.104224  -0.114127  0.000612  4.038768  0.0
C  C79  1  0.26855993  0.94280636  0.09839072  1  -0.10084  0.002716  3.796729  0.002  -0.114812  0.000611  4.051248  0.0  -0.116264  0.000691  4.070624  0.0  -0.104231  -0.114107  0.000612  4.03902  0.0
C  C80  1  0.84429537  0.14201746  0.84582131  1  -0.077063  -0.001628  3.774008  -0.002  -0.097214  -0.000506  4.03746  -0.001  -0.098756  -0.000429  4.057643  -0.001  -0.098377  -0.096304  -0.00069  4.02424  -0.001
C  C81  1  0.15569918  0.85799918  0.15417879  1  -0.076985  -0.001603  3.773804  -0.002  -0.09711  -0.000506  4.037282  -0.001  -0.098652  -0.00043  4.057464  -0.001  -0.098374  -0.0962  -0.00069  4.024066  -0.001
C  C82  1  0.91959337  0.17660240  0.92324140  1  -0.135449  0.002019  3.747725  0.001  -0.15505  0.000402  4.003592  0.0  -0.156826  0.000548  4.02277  0.0  -0.090565  -0.153657  0.000389  3.990048  0.0
C  C83  1  0.08040171  0.82340083  0.07676096  1  -0.135346  0.001955  3.747498  0.001  -0.154936  0.000403  4.003334  0.0  -0.156708  0.00055  4.022514  0.0  -0.090484  -0.153547  0.000389  3.989796  0.0
C  C84  1  0.87874723  0.12139087  0.05892144  1  0.097572  -0.002642  3.772662  -0.004  0.088584  -0.001491  4.012667  -0.002  0.091944  -0.001135  4.0352  -0.002  0.094388  0.086312  -0.001914  3.997058  -0.003
C  C85  1  0.12124854  0.87862174  0.94107245  1  0.097567  -0.002627  3.772496  -0.004  0.088583  -0.00149  4.012457  -0.002  0.091934  -0.001135  4.035  -0.002  0.094332  0.086317  -0.001914  3.996846  -0.003
N  N86  1  0.48677639  0.55060238  0.31612503  1  -0.112738  -2.9e-05  3.513445  -0.001  -0.022358  -0.001064  3.732034  -0.002  -0.039113  -0.000855  3.755917  -0.001  -0.236245  -0.011498  -0.001356  3.715946  -0.002
N  N87  1  0.51322323  0.44939248  0.68387551  1  -0.1126  -2.9e-05  3.513561  -0.001  -0.022293  -0.001064  3.732126  -0.002  -0.039051  -0.000854  3.75602  -0.001  -0.23623  -0.011433  -0.001355  3.716031  -0.002
N  N88  1  0.59020067  0.71464068  0.34446667  1  -0.436007  -0.040297  3.285277  -0.066  -0.396729  -0.029926  3.604593  -0.04  -0.426701  -0.02393  3.612609  -0.032  -0.363701  -0.375034  -0.035192  3.599924  -0.048
N  N89  1  0.40980416  0.28535502  0.65553179  1  -0.436081  -0.040303  3.285308  -0.066  -0.396819  -0.029928  3.604641  -0.04  -0.426793  -0.023931  3.612655  -0.032  -0.363743  -0.375126  -0.035193  3.599971  -0.048
N  N90  1  0.93045135  0.13028456  0.16373262  1  -0.105488  -0.000425  3.524368  -0.002  -0.014327  -0.001261  3.74145  -0.002  -0.030678  -0.00094  3.764869  -0.002  -0.234946  -0.003611  -0.001411  3.72576  -0.003
N  N91  1  0.06953960  0.86971793  0.83626527  1  -0.105618  -0.00042  3.524569  -0.002  -0.014406  -0.001261  3.741703  -0.002  -0.030755  -0.00094  3.76512  -0.002  -0.234893  -0.003693  -0.001411  3.726004  -0.003
N  N92  1  0.75263213  0.99592359  0.25186920  1  -0.456975  -0.039319  3.30989  -0.06  -0.41756  -0.029969  3.638638  -0.035  -0.448425  -0.024  3.645309  -0.026  -0.37041  -0.394965  -0.035169  3.635099  -0.041
N  N93  1  0.24735650  0.00408407  0.74813203  1  -0.456978  -0.039318  3.3099  -0.06  -0.417556  -0.029972  3.638623  -0.035  -0.448426  -0.024003  3.645295  -0.026  -0.370345  -0.394962  -0.035172  3.635082  -0.041
O  O94  1  0.61675696  0.84083033  0.55728970  1  -0.849804  -0.053789  2.099514  -0.086  -0.78734  -0.044443  2.424365  -0.062  -0.831837  -0.033307  2.400779  -0.045  -0.395331  -0.751347  -0.055655  2.439013  -0.078
O  O95  1  0.38323208  0.15916693  0.44271741  1  -0.849854  -0.053793  2.099576  -0.086  -0.787421  -0.044447  2.424478  -0.062  -0.831916  -0.03331  2.400883  -0.045  -0.395295  -0.751416  -0.055658  2.439103  -0.078
O  O96  1  0.82977012  0.95692771  0.57071802  1  -0.804731  -0.006756  1.866437  -0.013  -0.738738  -0.00409  2.106479  -0.008  -0.767833  -0.002059  2.090372  -0.005  -0.390831  -0.715748  -0.006867  2.115918  -0.013
O  O97  1  0.17022418  0.04306950  0.42928002  1  -0.804717  -0.006755  1.866396  -0.013  -0.738721  -0.004091  2.106443  -0.008  -0.767817  -0.002059  2.090335  -0.005  -0.390823  -0.715717  -0.006869  2.115856  -0.013
O  O98  1  0.57994710  0.02400731  0.67054451  1  -0.833798  -0.057706  2.089062  -0.094  -0.767958  -0.045977  2.403434  -0.067  -0.814583  -0.034137  2.383361  -0.049  -0.394609  -0.729622  -0.057943  2.414549  -0.084
O  O99  1  0.42004521  0.97598669  0.32946394  1  -0.833823  -0.057706  2.089064  -0.094  -0.767981  -0.045978  2.403425  -0.067  -0.81459  -0.034137  2.38333  -0.049  -0.394627  -0.729646  -0.057943  2.414533  -0.084
