# generated using pymatgen
data_Cd3H28C44(NO7)2
_symmetry_space_group_name_H-M   'P 1'
_cell_length_a   9.57583271
_cell_length_b   10.03844287
_cell_length_c   14.05649533
_cell_angle_alpha   67.73998299
_cell_angle_beta   67.48300918
_cell_angle_gamma   63.33315370
_symmetry_Int_Tables_number   1
_chemical_formula_structural   Cd3H28C44(NO7)2
_chemical_formula_sum   'Cd3 H28 C44 N2 O14'
_cell_volume   1079.80905576
_cell_formula_units_Z   1
loop_
 _symmetry_equiv_pos_site_id
 _symmetry_equiv_pos_as_xyz
  1  'x, y, z'
loop_
 _atom_site_type_symbol
 _atom_site_label
 _atom_site_symmetry_multiplicity
 _atom_site_fract_x
 _atom_site_fract_y
 _atom_site_fract_z
 _atom_site_occupancy
 _atom_site_hle17_bader_spin_density
 _atom_site_hle17_ddec_charge
 _atom_site_hle17_ddec_spin_density
 _atom_site_hle17_ddec_sum_bond_order
 _atom_site_hle17_magmom
 _atom_site_hse06_10hf_bader_spin_density
 _atom_site_hse06_10hf_ddec_charge
 _atom_site_hse06_10hf_ddec_spin_density
 _atom_site_hse06_10hf_ddec_sum_bond_order
 _atom_site_hse06_10hf_magmom
 _atom_site_hse06_bader_spin_density
 _atom_site_hse06_ddec_charge
 _atom_site_hse06_ddec_spin_density
 _atom_site_hse06_ddec_sum_bond_order
 _atom_site_hse06_magmom
 _atom_site_pbe_bader_spin_density
 _atom_site_pbe_cm5_charge
 _atom_site_pbe_ddec_charge
 _atom_site_pbe_ddec_spin_density
 _atom_site_pbe_ddec_sum_bond_order
 _atom_site_pbe_magmom
Cd  Cd0  1  0.99999868  0.50000045  0.49999992  1  0  1.288687  0  1.601577  0  0  1.117842  0  2.054384  0  0  1.174671  0  1.993635  0  0  0.781302  1.077094  0  2.095922  0
Cd  Cd1  1  0.84615773  0.78075313  0.65029787  1  0  1.197496  0  1.60868  0  0  1.008597  0  2.055451  0  0  1.068901  0  1.997462  0  0  0.77747  0.962741  0  2.097502  0
Cd  Cd2  1  0.15384678  0.21923981  0.34970275  1  0  1.19749  0  1.608667  0  0  1.008585  0  2.055435  0  0  1.068892  0  1.997442  0  0  0.777475  0.96273  0  2.097486  0
H  H3  1  0.99900111  0.84577869  0.41634631  1  0  0.443554  0  0.860479  0  0  0.408113  0  0.929826  0  0  0.420758  0  0.911805  0  0  0.287485  0.399163  0  0.942561  0
H  H4  1  0.00100010  0.15422003  0.58365297  1  0  0.443517  0  0.860522  0  0  0.408081  0  0.929863  0  0  0.420727  0  0.911838  0  0  0.287472  0.399131  0  0.942598  0
H  H5  1  0.82975499  0.83732594  0.42450036  1  0  0.444095  0  0.791232  0  0  0.431629  0  0.832008  0  0  0.439667  0  0.824349  0  0  0.335184  0.425616  0  0.83805  0
H  H6  1  0.17024710  0.16267051  0.57549856  1  0  0.444093  0  0.791248  0  0  0.431631  0  0.832019  0  0  0.439669  0  0.824361  0  0  0.335187  0.425618  0  0.83806  0
H  H7  1  0.44278244  0.24730668  0.60404329  1  0  0.121499  0  0.931141  0  0  0.129065  0  0.992148  0  0  0.133948  0  0.987154  0  0  0.1122  0.125481  0  0.995773  0
H  H8  1  0.55721273  0.75269325  0.39595506  1  0  0.121415  0  0.931107  0  0  0.128974  0  0.992138  0  0  0.133836  0  0.98717  0  0  0.112141  0.125396  0  0.995755  0
H  H9  1  0.34788582  0.68786539  0.64397923  1  0  0.116787  0  0.931503  0  0  0.12478  0  0.994309  0  0  0.129471  0  0.989482  0  0  0.113025  0.12132  0  0.997816  0
H  H10  1  0.65212093  0.31212753  0.35602156  1  0  0.116885  0  0.93144  0  0  0.124835  0  0.994277  0  0  0.129586  0  0.989377  0  0  0.113067  0.121376  0  0.997783  0
H  H11  1  0.80429450  0.32185034  0.66599990  1  0  0.091296  0  0.977175  0  0  0.099294  0  1.047497  0  0  0.103387  0  1.042876  0  0  0.104621  0.096377  0  1.050858  0
H  H12  1  0.19570766  0.67813682  0.33400275  1  0  0.091311  0  0.977167  0  0  0.099306  0  1.047489  0  0  0.103397  0  1.042869  0  0  0.104584  0.09639  0  1.050849  0
H  H13  1  0.55190042  0.83953945  0.80365121  1  0  0.111682  0  0.991401  0  0  0.121605  0  1.054652  0  0  0.124952  0  1.052182  0  0  0.101322  0.119126  0  1.056577  0
H  H14  1  0.44809359  0.16047540  0.19634510  1  0  0.11167  0  0.991423  0  0  0.121582  0  1.054692  0  0  0.12493  0  1.052221  0  0  0.101307  0.119103  0  1.056616  0
H  H15  1  0.29718781  0.88799718  0.94581811  1  0  0.089302  0  0.942078  0  0  0.102831  0  0.994691  0  0  0.105107  0  0.994539  0  0  0.102449  0.101118  0  0.994948  0
H  H16  1  0.70280519  0.11201410  0.05418220  1  0  0.089256  0  0.94215  0  0  0.102806  0  0.994744  0  0  0.105079  0  0.994592  0  0  0.10245  0.101093  0  0.994999  0
H  H17  1  0.30328241  0.85314383  0.13019490  1  0  0.091347  0  0.94145  0  0  0.104505  0  0.996443  0  0  0.106739  0  0.996379  0  0  0.100744  0.102827  0  0.99664  0
H  H18  1  0.69671947  0.14685599  0.86980537  1  0  0.091331  0  0.941426  0  0  0.104485  0  0.996425  0  0  0.106719  0  0.996365  0  0  0.100743  0.102823  0  0.996604  0
H  H19  1  0.56110733  0.77644057  0.16998586  1  0  0.083403  0  0.992733  0  0  0.093976  0  1.057378  0  0  0.095084  0  1.058877  0  0  0.096264  0.093107  0  1.05647  0
H  H20  1  0.43889658  0.22355703  0.83001232  1  0  0.083384  0  0.992747  0  0  0.093957  0  1.057396  0  0  0.095064  0  1.058894  0  0  0.096254  0.093088  0  1.056488  0
H  H21  1  0.08921450  0.70019140  0.77375194  1  0  0.081752  0  0.95845  0  0  0.090701  0  1.025208  0  0  0.092881  0  1.022167  0  0  0.117203  0.088973  0  1.027523  0
H  H22  1  0.91078465  0.29981893  0.22624281  1  0  0.081628  0  0.958529  0  0  0.090566  0  1.025317  0  0  0.092742  0  1.022283  0  0  0.11716  0.088839  0  1.027632  0
H  H23  1  0.26340194  0.63277692  0.88821506  1  0  0.100604  0  0.938141  0  0  0.112856  0  0.995724  0  0  0.115519  0  0.99478  0  0  0.107571  0.110866  0  0.996512  0
H  H24  1  0.73660282  0.36723335  0.11178045  1  0  0.100579  0  0.938129  0  0  0.112822  0  0.995718  0  0  0.115482  0  0.994774  0  0  0.107551  0.110836  0  0.9965  0
H  H25  1  0.29471226  0.58543166  0.06773413  1  0  0.093617  0  0.939636  0  0  0.107796  0  0.992285  0  0  0.110323  0  0.992329  0  0  0.103929  0.10595  0  0.992405  0
H  H26  1  0.70528929  0.41457514  0.93226304  1  0  0.093622  0  0.939662  0  0  0.107817  0  0.9923  0  0  0.110345  0  0.992343  0  0  0.10393  0.105971  0  0.99242  0
H  H27  1  0.05161819  0.62685635  0.22053890  1  0  0.098814  0  0.964527  0  0  0.10783  0  1.027596  0  0  0.111043  0  1.02536  0  0  0.098376  0.105488  0  1.029203  0
H  H28  1  0.94838329  0.37314471  0.77945902  1  0  0.098805  0  0.964524  0  0  0.107843  0  1.027576  0  0  0.111055  0  1.025338  0  0  0.098361  0.105502  0  1.029184  0
H  H29  1  0.77988992  0.71443702  0.19757190  1  0  0.092957  0  0.976314  0  0  0.104714  0  1.036785  0  0  0.107127  0  1.036465  0  0  0.0999  0.102955  0  1.037147  0
H  H30  1  0.22011201  0.28556291  0.80242547  1  0  0.092956  0  0.976366  0  0  0.104706  0  1.036842  0  0  0.107119  0  1.036522  0  0  0.099893  0.102948  0  1.037202  0
C  C31  1  0.21149423  0.52953842  0.60786223  1  0  0.663038  0  3.906532  0  0  0.608227  0  4.203611  0  0  0.643899  0  4.198484  0  0  0.210924  0.583887  0  4.206288  0
C  C32  1  0.78850339  0.47046368  0.39213851  1  0  0.663089  0  3.906663  0  0  0.608265  0  4.203754  0  0  0.64394  0  4.198624  0  0  0.210948  0.583926  0  4.206429  0
C  C33  1  0.37545430  0.47179057  0.62615035  1  0  -0.085018  0  3.763287  0  0  -0.060048  0  4.006591  0  0  -0.071609  0  4.030934  0  0  -0.019156  -0.052749  0  3.99019  0
C  C34  1  0.62454694  0.52820821  0.37384749  1  0  -0.085091  0  3.763309  0  0  -0.060148  0  4.006624  0  0  -0.071719  0  4.03099  0  0  -0.019166  -0.052849  0  3.990226  0
C  C35  1  0.48071450  0.32211107  0.62011489  1  0  -0.046659  0  3.671051  0  0  -0.085914  0  3.922785  0  0  -0.080104  0  3.937195  0  0  -0.067404  -0.089007  0  3.912854  0
C  C36  1  0.51928266  0.67788654  0.37988426  1  0  -0.046489  0  3.67084  0  0  -0.085718  0  3.92255  0  0  -0.079892  0  3.936971  0  0  -0.06731  -0.088817  0  3.912614  0
C  C37  1  0.64261709  0.62297808  0.66570194  1  0  0.64344  0  3.912738  0  0  0.59508  0  4.197477  0  0  0.62923  0  4.192456  0  0  0.20081  0.571913  0  4.19976  0
C  C38  1  0.35738040  0.37700870  0.33431122  1  0  0.64337  0  3.912709  0  0  0.594907  0  4.197606  0  0  0.629056  0  4.192591  0  0  0.200726  0.571738  0  4.199886  0
C  C39  1  0.58214338  0.51542780  0.65673162  1  0  -0.073481  0  3.767688  0  0  -0.046688  0  4.004622  0  0  -0.057353  0  4.02859  0  0  -0.019963  -0.039924  0  3.988505  0
C  C40  1  0.41786042  0.48456396  0.34327019  1  0  -0.073541  0  3.767692  0  0  -0.046736  0  4.00465  0  0  -0.057405  0  4.028635  0  0  -0.019937  -0.039971  0  3.988533  0
C  C41  1  0.42654730  0.56888913  0.64397160  1  0  -0.042997  0  3.662865  0  0  -0.0837  0  3.916664  0  0  -0.078729  0  3.933277  0  0  -0.065815  -0.086278  0  3.905008  0
C  C42  1  0.57345676  0.43110496  0.35602885  1  0  -0.043002  0  3.662827  0  0  -0.083639  0  3.916584  0  0  -0.078716  0  3.933179  0  0  -0.06584  -0.086222  0  3.904935  0
C  C43  1  0.68470937  0.36401992  0.65363253  1  0  -0.061737  0  3.708338  0  0  -0.101553  0  3.958919  0  0  -0.097262  0  3.976664  0  0  -0.074517  -0.104145  0  3.947588  0
C  C44  1  0.31529264  0.63597075  0.34636786  1  0  -0.06181  0  3.70849  0  0  -0.101623  0  3.959074  0  0  -0.097328  0  3.976811  0  0  -0.07455  -0.104217  0  3.947739  0
C  C45  1  0.63598702  0.26753250  0.63371618  1  0  -0.068902  0  3.751204  0  0  -0.040574  0  3.986091  0  0  -0.050782  0  4.008326  0  0  -0.017152  -0.034383  0  3.971747  0
C  C46  1  0.36401371  0.73246169  0.36628222  1  0  -0.068916  0  3.751213  0  0  -0.040602  0  3.986117  0  0  -0.050808  0  4.008344  0  0  -0.017136  -0.034409  0  3.971774  0
C  C47  1  0.74726653  0.10672810  0.62707374  1  0  0.65438  0  3.901137  0  0  0.601924  0  4.193598  0  0  0.636957  0  4.187879  0  0  0.204932  0.578296  0  4.196296  0
C  C48  1  0.25273262  0.89326721  0.37292548  1  0  0.654414  0  3.900911  0  0  0.601951  0  4.193392  0  0  0.636985  0  4.187674  0  0  0.204955  0.578324  0  4.196087  0
C  C49  1  0.70348438  0.78133997  0.90555299  1  0  0.188847  0  3.791336  0  0  0.184698  0  4.033245  0  0  0.189819  0  4.058389  0  0  0.098189  0.181324  0  4.015976  0
C  C50  1  0.29651309  0.21866565  0.09444549  1  0  0.188851  0  3.791267  0  0  0.184711  0  4.033169  0  0  0.189831  0  4.058315  0  0  0.098203  0.181339  0  4.015896  0
C  C51  1  0.55425182  0.82627905  0.88381204  1  0  -0.155172  0  3.723489  0  0  -0.174351  0  3.96989  0  0  -0.179689  0  3.991808  0  0  -0.093405  -0.170577  0  3.954788  0
C  C52  1  0.44574522  0.17372775  0.11618554  1  0  -0.155131  0  3.723451  0  0  -0.174299  0  3.96985  0  0  -0.179636  0  3.991765  0  0  -0.093373  -0.170525  0  3.954745  0
C  C53  1  0.41201272  0.85231016  0.96359029  1  0  -0.048368  0  3.779379  0  0  -0.062917  0  4.030677  0  0  -0.063626  0  4.052701  0  0  -0.08679  -0.062301  0  4.01558  0
C  C54  1  0.58798544  0.14769659  0.03640845  1  0  -0.04841  0  3.779544  0  0  -0.062986  0  4.030856  0  0  -0.063692  0  4.052877  0  0  -0.086858  -0.062371  0  4.015764  0
C  C55  1  0.41547140  0.83291697  0.06730169  1  0  -0.06876  0  3.774846  0  0  -0.084142  0  4.030406  0  0  -0.087595  0  4.054068  0  0  -0.090223  -0.081778  0  4.014445  0
C  C56  1  0.58453089  0.16708164  0.93270019  1  0  -0.068672  0  3.774772  0  0  -0.084047  0  4.030339  0  0  -0.087502  0  4.054002  0  0  -0.090176  -0.081697  0  4.014376  0
C  C57  1  0.56087522  0.78956080  0.08964177  1  0  -0.097722  0  3.753057  0  0  -0.118698  0  4.002655  0  0  -0.121197  0  4.027385  0  0  -0.090038  -0.116973  0  3.986233  0
C  C58  1  0.43912424  0.21044250  0.91035751  1  0  -0.097717  0  3.752994  0  0  -0.118695  0  4.002602  0  0  -0.121193  0  4.027332  0  0  -0.090048  -0.11697  0  3.986186  0
C  C59  1  0.70812121  0.76380462  0.00995663  1  0  -0.021635  0  3.754193  0  0  -0.008764  0  3.983683  0  0  -0.012132  0  4.00786  0  0  -0.004639  -0.006774  0  3.967563  0
C  C60  1  0.29187844  0.23619528  0.99004203  1  0  -0.021656  0  3.754236  0  0  -0.00879  0  3.983735  0  0  -0.01216  0  4.007914  0  0  -0.004656  -0.006801  0  3.967616  0
C  C61  1  0.86274532  0.71992993  0.02935790  1  0  0.051313  0  3.750349  0  0  0.057273  0  3.980152  0  0  0.060449  0  4.002962  0  0  0.005202  0.055441  0  3.964509  0
C  C62  1  0.13725304  0.28007342  0.97064021  1  0  0.051345  0  3.750369  0  0  0.057293  0  3.980145  0  0  0.060471  0  4.002957  0  0  0.005226  0.05546  0  3.964506  0
C  C63  1  0.00262096  0.69686627  0.94219751  1  0  -0.006637  0  3.803613  0  0  0.012927  0  4.033808  0  0  0.007139  0  4.058341  0  0  -0.010822  0.016363  0  4.017538  0
C  C64  1  0.99737833  0.30314051  0.05780023  1  0  -0.00663  0  3.803575  0  0  0.012989  0  4.033695  0  0  0.007206  0  4.058216  0  0  -0.010805  0.016426  0  4.017427  0
C  C65  1  0.98320677  0.71767241  0.84133191  1  0  0.131734  0  3.68921  0  0  0.0905  0  3.942779  0  0  0.102823  0  3.956889  0  0  0.06724  0.082398  0  3.933027  0
C  C66  1  0.01679210  0.28233555  0.15866492  1  0  0.131952  0  3.689144  0  0  0.09071  0  3.942706  0  0  0.103034  0  3.956815  0  0  0.067327  0.082607  0  3.932956  0
C  C67  1  0.15804617  0.64982491  0.95632167  1  0  -0.09084  0  3.728746  0  0  -0.112319  0  3.977044  0  0  -0.112677  0  3.997973  0  0  -0.078705  -0.111716  0  3.962793  0
C  C68  1  0.84195652  0.35018191  0.04367451  1  0  -0.090807  0  3.728593  0  0  -0.112286  0  3.97689  0  0  -0.11264  0  3.997816  0  0  -0.078705  -0.111683  0  3.962638  0
C  C69  1  0.17516004  0.62431550  0.05574024  1  0  -0.065185  0  3.764701  0  0  -0.081506  0  4.020844  0  0  -0.084889  0  4.042843  0  0  -0.088245  -0.07936  0  4.005838  0
C  C70  1  0.82484150  0.37569127  0.94425766  1  0  -0.065289  0  3.764705  0  0  -0.081645  0  4.020886  0  0  -0.085031  0  4.042887  0  0  -0.088311  -0.079498  0  4.005881  0
C  C71  1  0.03707029  0.64890589  0.14209637  1  0  -0.044566  0  3.73608  0  0  -0.060521  0  3.988358  0  0  -0.060421  0  4.009135  0  0  -0.082928  -0.060208  0  3.974025  0
C  C72  1  0.96293100  0.35109860  0.85790145  1  0  -0.044506  0  3.736033  0  0  -0.060472  0  3.988303  0  0  -0.060371  0  4.009081  0  0  -0.082861  -0.060162  0  3.973972  0
C  C73  1  0.88386051  0.69683139  0.12917924  1  0  -0.117496  0  3.726722  0  0  -0.136131  0  3.973943  0  0  -0.141412  0  3.996156  0  0  -0.090033  -0.132651  0  3.958857  0
C  C74  1  0.11614212  0.30316972  0.87081696  1  0  -0.117548  0  3.726817  0  0  -0.136179  0  3.974036  0  0  -0.141463  0  3.996251  0  0  -0.090075  -0.132699  0  3.958953  0
N  N75  1  0.84351783  0.75584162  0.82340696  1  0  -0.386908  0  3.26258  0  0  -0.311899  0  3.532647  0  0  -0.334693  0  3.551701  0  0  -0.326153  -0.295998  0  3.519014  0
N  N76  1  0.15647965  0.24416400  0.17659152  1  0  -0.386935  0  3.262483  0  0  -0.311943  0  3.53256  0  0  -0.33474  0  3.551618  0  0  -0.326133  -0.296043  0  3.518927  0
O  O77  1  0.17851319  0.43492738  0.58693957  1  0  -0.666791  0  2.039561  0  0  -0.598364  0  2.300325  0  0  -0.629807  0  2.289175  0  0  -0.331582  -0.576288  0  2.307124  0
O  O78  1  0.82148489  0.56507363  0.41305992  1  0  -0.666829  0  2.03966  0  0  -0.598389  0  2.300417  0  0  -0.629836  0  2.289269  0  0  -0.331609  -0.576313  0  2.307215  0
O  O79  1  0.11997399  0.66619797  0.61372373  1  0  -0.637546  0  2.04365  0  0  -0.56794  0  2.29924  0  0  -0.59778  0  2.287796  0  0  -0.319909  -0.546699  0  2.306282  0
O  O80  1  0.88002907  0.33380756  0.38627623  1  0  -0.637568  0  2.04372  0  0  -0.56795  0  2.299314  0  0  -0.597787  0  2.287861  0  0  -0.319933  -0.54671  0  2.306361  0
O  O81  1  0.79974399  0.57448807  0.65251407  1  0  -0.732806  0  2.103964  0  0  -0.644945  0  2.371043  0  0  -0.680182  0  2.357772  0  0  -0.348604  -0.619405  0  2.378921  0
O  O82  1  0.20025650  0.42550944  0.34748712  1  0  -0.732753  0  2.103968  0  0  -0.644836  0  2.371047  0  0  -0.680074  0  2.35778  0  0  -0.348549  -0.619297  0  2.378923  0
O  O83  1  0.54941589  0.75127958  0.68261240  1  0  -0.576345  0  1.89281  0  0  -0.530227  0  2.098275  0  0  -0.552691  0  2.089017  0  0  -0.310753  -0.513313  0  2.104377  0
O  O84  1  0.45057556  0.24869510  0.31741881  1  0  -0.576337  0  1.89282  0  0  -0.530175  0  2.098331  0  0  -0.552641  0  2.089083  0  0  -0.310782  -0.513264  0  2.104439  0
O  O85  1  0.68552395  0.02378480  0.61812737  1  0  -0.629144  0  1.996517  0  0  -0.560963  0  2.241341  0  0  -0.591781  0  2.229501  0  0  -0.325695  -0.538881  0  2.249511  0
O  O86  1  0.31447261  0.97620802  0.38187739  1  0  -0.629107  0  1.996451  0  0  -0.560913  0  2.241267  0  0  -0.591734  0  2.229431  0  0  -0.325656  -0.538832  0  2.249438  0
O  O87  1  0.89188790  0.05797800  0.63316587  1  0  -0.639262  0  1.95536  0  0  -0.583127  0  2.172924  0  0  -0.608915  0  2.161125  0  0  -0.326946  -0.564704  0  2.180214  0
O  O88  1  0.10810956  0.94202203  0.36682974  1  0  -0.639288  0  1.95521  0  0  -0.58315  0  2.172779  0  0  -0.608935  0  2.160978  0  0  -0.326979  -0.564728  0  2.180069  0
O  O89  1  0.92201682  0.78421459  0.45538061  1  0  -0.871312  0  1.877616  0  0  -0.802543  0  2.086331  0  0  -0.827227  0  2.052393  0  0  -0.566191  -0.785154  0  2.110323  0
O  O90  1  0.07798324  0.21578407  0.54462039  1  0  -0.871285  0  1.877691  0  0  -0.802527  0  2.086397  0  0  -0.82721  0  2.052457  0  0  -0.566189  -0.785138  0  2.110389  0
