# generated using pymatgen
data_CdH14C20(SN8)2
_symmetry_space_group_name_H-M   'P 1'
_cell_length_a   7.94618054
_cell_length_b   8.96172930
_cell_length_c   9.75873820
_cell_angle_alpha   71.98506203
_cell_angle_beta   87.31757536
_cell_angle_gamma   64.68365675
_symmetry_Int_Tables_number   1
_chemical_formula_structural   CdH14C20(SN8)2
_chemical_formula_sum   'Cd1 H14 C20 S2 N16'
_cell_volume   594.43844828
_cell_formula_units_Z   1
loop_
 _symmetry_equiv_pos_site_id
 _symmetry_equiv_pos_as_xyz
  1  'x, y, z'
loop_
 _atom_site_type_symbol
 _atom_site_label
 _atom_site_symmetry_multiplicity
 _atom_site_fract_x
 _atom_site_fract_y
 _atom_site_fract_z
 _atom_site_occupancy
 _atom_site_hle17_bader_spin_density
 _atom_site_hle17_ddec_charge
 _atom_site_hle17_ddec_spin_density
 _atom_site_hle17_ddec_sum_bond_order
 _atom_site_hle17_magmom
 _atom_site_hse06_10hf_bader_spin_density
 _atom_site_hse06_10hf_ddec_charge
 _atom_site_hse06_10hf_ddec_spin_density
 _atom_site_hse06_10hf_ddec_sum_bond_order
 _atom_site_hse06_10hf_magmom
 _atom_site_hse06_bader_spin_density
 _atom_site_hse06_ddec_charge
 _atom_site_hse06_ddec_spin_density
 _atom_site_hse06_ddec_sum_bond_order
 _atom_site_hse06_magmom
 _atom_site_pbe_bader_spin_density
 _atom_site_pbe_cm5_charge
 _atom_site_pbe_ddec_charge
 _atom_site_pbe_ddec_spin_density
 _atom_site_pbe_ddec_sum_bond_order
 _atom_site_pbe_magmom
Cd  Cd0  1  0.00000054  0.99999880  0.49999759  1  0  1.05153  0  1.888579  0  0  0.837196  0  2.375197  0  0  0.887075  0  2.330162  0  0  0.817872  0.803133  0  2.404576  0
H  H1  1  0.28719338  0.25636806  0.65108547  1  0  0.096893  0  0.989424  0  0  0.100783  0  1.062091  0  0  0.103118  0  1.059939  0  0  0.124918  0.099076  0  1.063652  0
H  H2  1  0.71280530  0.74363535  0.34891118  1  0  0.096901  0  0.989413  0  0  0.100785  0  1.062099  0  0  0.103119  0  1.059948  0  0  0.124931  0.099085  0  1.063636  0
H  H3  1  0.77205482  0.77556920  0.73760890  1  0  0.106862  0  0.975011  0  0  0.109024  0  1.051669  0  0  0.11256  0  1.046578  0  0  0.131732  0.106413  0  1.055426  0
H  H4  1  0.22794514  0.22443422  0.26238974  1  0  0.106795  0  0.975089  0  0  0.109019  0  1.051681  0  0  0.112562  0  1.046575  0  0  0.131711  0.106408  0  1.055437  0
H  H5  1  0.19490643  0.14044170  0.87065515  1  0  0.1168  0  0.986355  0  0  0.122234  0  1.054891  0  0  0.125639  0  1.054236  0  0  0.10118  0.119749  0  1.055513  0
H  H6  1  0.80509544  0.85956301  0.12934406  1  0  0.116811  0  0.986369  0  0  0.122239  0  1.054902  0  0  0.125642  0  1.05425  0  0  0.101193  0.119754  0  1.055525  0
H  H7  1  0.13120203  0.98659659  0.11270873  1  0  0.105941  0  0.967124  0  0  0.109288  0  1.037424  0  0  0.112479  0  1.034971  0  0  0.108031  0.10694  0  1.039166  0
H  H8  1  0.86879792  0.01340682  0.88728889  1  0  0.105971  0  0.967133  0  0  0.109301  0  1.037448  0  0  0.112492  0  1.034995  0  0  0.108035  0.106952  0  1.03919  0
H  H9  1  0.35056294  0.67730367  0.24181324  1  0  0.12673  0  0.965966  0  0  0.136021  0  1.025725  0  0  0.138756  0  1.025805  0  0  0.110841  0.133883  0  1.026275  0
H  H10  1  0.64943449  0.32269975  0.75818448  1  0  0.126725  0  0.965903  0  0  0.136018  0  1.02567  0  0  0.138752  0  1.025751  0  0  0.110863  0.133887  0  1.026213  0
H  H11  1  0.59719585  0.40999702  0.35396027  1  0  0.118922  0  0.931483  0  0  0.122739  0  1.002622  0  0  0.126608  0  0.997181  0  0  0.145316  0.119929  0  1.006391  0
H  H12  1  0.40280218  0.59000511  0.64603882  1  0  0.118931  0  0.931474  0  0  0.122746  0  1.002613  0  0  0.126614  0  0.997173  0  0  0.145315  0.119938  0  1.006383  0
H  H13  1  0.83759771  0.44905848  0.95240988  1  0  0.095686  0  0.993592  0  0  0.093995  0  1.076936  0  0  0.097534  0  1.073113  0  0  0.120597  0.091981  0  1.078887  0
H  H14  1  0.16239972  0.55094494  0.04758887  1  0  0.095688  0  0.993591  0  0  0.093977  0  1.076964  0  0  0.097516  0  1.073141  0  0  0.120579  0.091955  0  1.078915  0
C  C15  1  0.42434671  0.15768560  0.64351835  1  0  0.159917  0  3.643187  0  0  0.103136  0  3.921833  0  0  0.114628  0  3.934381  0  0  0.15099  0.095524  0  3.913056  0
C  C16  1  0.57565198  0.84231782  0.35647932  1  0  0.16001  0  3.643137  0  0  0.103227  0  3.921775  0  0  0.114717  0  3.934323  0  0  0.151018  0.095619  0  3.913008  0
C  C17  1  0.67421639  0.91018030  0.68747220  1  0  0.192609  0  3.633456  0  0  0.1236  0  3.911183  0  0  0.138631  0  3.920658  0  0  0.163736  0.114229  0  3.904698  0
C  C18  1  0.32578296  0.08982442  0.31252507  1  0  0.192756  0  3.633442  0  0  0.123681  0  3.911194  0  0  0.13871  0  3.920673  0  0  0.163813  0.11431  0  3.90471  0
C  C19  1  0.44744344  0.91052440  0.86919724  1  0  0.366022  0  3.775624  0  0  0.342575  0  4.03475  0  0  0.357298  0  4.051248  0  0  0.232072  0.332842  0  4.02363  0
C  C20  1  0.55255717  0.08948033  0.13080203  1  0  0.365986  0  3.775813  0  0  0.342609  0  4.034832  0  0  0.357322  0  4.051343  0  0  0.232077  0.332876  0  4.023718  0
C  C21  1  0.28764414  0.00425592  0.92689493  1  0  -0.18425  0  3.657957  0  0  -0.204398  0  3.907065  0  0  -0.213899  0  3.927218  0  0  -0.084112  -0.197963  0  3.893444  0
C  C22  1  0.71235829  0.99574489  0.07310437  1  0  -0.184285  0  3.65803  0  0  -0.204443  0  3.907098  0  0  -0.213939  0  3.927255  0  0  -0.084163  -0.198009  0  3.893479  0
C  C23  1  0.25304803  0.91750521  0.06261348  1  0  0.037107  0  3.688085  0  0  0.020149  0  3.938838  0  0  0.025285  0  3.956545  0  0  -0.062646  0.017247  0  3.926771  0
C  C24  1  0.74695061  0.08249562  0.93738699  1  0  0.037041  0  3.688232  0  0  0.020084  0  3.938998  0  0  0.025219  0  3.956706  0  0  -0.06267  0.017183  0  3.926931  0
C  C25  1  0.37605197  0.74490058  0.13554901  1  0  -0.207442  0  3.704086  0  0  -0.230412  0  3.958581  0  0  -0.240422  0  3.980362  0  0  -0.089335  -0.2247  0  3.945049  0
C  C26  1  0.62394601  0.25509894  0.86444880  1  0  -0.207439  0  3.704049  0  0  -0.230413  0  3.958522  0  0  -0.240422  0  3.980303  0  0  -0.089344  -0.224707  0  3.944984  0
C  C27  1  0.53046935  0.66595892  0.06603212  1  0  0.353559  0  3.801667  0  0  0.328993  0  4.067444  0  0  0.343559  0  4.083258  0  0  0.225344  0.319448  0  4.056913  0
C  C28  1  0.46953120  0.33404319  0.93396585  1  0  0.353639  0  3.801661  0  0  0.329098  0  4.067403  0  0  0.343664  0  4.083216  0  0  0.225362  0.319557  0  4.056871  0
C  C29  1  0.68964522  0.38304220  0.27040745  1  0  0.187409  0  3.602094  0  0  0.120926  0  3.874952  0  0  0.1353  0  3.884944  0  0  0.165411  0.111766  0  3.867741  0
C  C30  1  0.31035342  0.61695862  0.72959200  1  0  0.187433  0  3.602153  0  0  0.120959  0  3.875004  0  0  0.135332  0  3.884998  0  0  0.165435  0.111798  0  3.867794  0
C  C31  1  0.81536195  0.40019618  0.06516306  1  0  0.163934  0  3.642258  0  0  0.10698  0  3.91952  0  0  0.118745  0  3.930082  0  0  0.150727  0.099165  0  3.911836  0
C  C32  1  0.18463548  0.59980725  0.93483568  1  0  0.163965  0  3.642216  0  0  0.107027  0  3.919481  0  0  0.118791  0  3.930042  0  0  0.150768  0.099221  0  3.911803  0
C  C33  1  0.04775864  0.68373923  0.34971748  1  0  0.280677  0  4.095012  0  0  0.265065  0  4.393  0  0  0.28702  0  4.406371  0  0  0.131674  0.250371  0  4.383463  0
C  C34  1  0.95224654  0.31623954  0.65030549  1  0  0.280258  0  4.095234  0  0  0.26463  0  4.39326  0  0  0.286585  0  4.406638  0  0  0.131516  0.249938  0  4.383717  0
S  S35  1  0.03495698  0.53375919  0.29695955  1  0  -0.371123  0  2.078448  0  0  -0.34984  0  2.38075  0  0  -0.36614  0  2.376879  0  0  -0.169775  -0.338716  0  2.382787  0
S  S36  1  0.96504444  0.46622215  0.70305361  1  0  -0.370966  0  2.078575  0  0  -0.349671  0  2.380876  0  0  -0.365971  0  2.377011  0  0  -0.169716  -0.338549  0  2.38292  0
N  N37  1  0.53750250  0.18143958  0.54534572  1  0  -0.232547  0  2.915292  0  0  -0.215195  0  3.201162  0  0  -0.223315  0  3.215791  0  0  -0.227542  -0.20939  0  3.191463  0
N  N38  1  0.46249618  0.81856383  0.45464990  1  0  -0.232597  0  2.915313  0  0  -0.21525  0  3.201192  0  0  -0.223366  0  3.215816  0  0  -0.227596  -0.209446  0  3.191499  0
N  N39  1  0.69613716  0.02331561  0.57393878  1  0  -0.262517  0  3.107929  0  0  -0.201707  0  3.4033  0  0  -0.217645  0  3.418757  0  0  -0.23752  -0.191352  0  3.392685  0
N  N40  1  0.30385900  0.97668781  0.42605797  1  0  -0.262533  0  3.107873  0  0  -0.201725  0  3.403247  0  0  -0.217664  0  3.418707  0  0  -0.237515  -0.191369  0  3.392636  0
N  N41  1  0.50441094  0.98833430  0.73663052  1  0  -0.15234  0  3.516255  0  0  -0.06279  0  3.732361  0  0  -0.081009  0  3.753772  0  0  -0.212153  -0.050595  0  3.717471  0
N  N42  1  0.49558901  0.01166911  0.26336709  1  0  -0.152411  0  3.516368  0  0  -0.062877  0  3.732476  0  0  -0.08109  0  3.753889  0  0  -0.21217  -0.050681  0  3.717591  0
N  N43  1  0.56576057  0.74487368  0.93589994  1  0  -0.431808  0  3.060202  0  0  -0.400659  0  3.329342  0  0  -0.415501  0  3.341678  0  0  -0.313469  -0.391263  0  3.321345  0
N  N44  1  0.43423878  0.25513103  0.06409733  1  0  -0.431821  0  3.060352  0  0  -0.400711  0  3.329465  0  0  -0.415554  0  3.341805  0  0  -0.313477  -0.391316  0  3.321468  0
N  N45  1  0.66719344  0.49166505  0.13117646  1  0  -0.155122  0  3.541392  0  0  -0.069122  0  3.763938  0  0  -0.086712  0  3.785062  0  0  -0.214806  -0.057355  0  3.74928  0
N  N46  1  0.33280585  0.50833707  0.86882258  1  0  -0.155161  0  3.541392  0  0  -0.069174  0  3.763934  0  0  -0.086764  0  3.785057  0  0  -0.214822  -0.057408  0  3.749275  0
N  N47  1  0.84081063  0.23629526  0.28659556  1  0  -0.251041  0  3.132513  0  0  -0.188233  0  3.425068  0  0  -0.204347  0  3.441185  0  0  -0.233986  -0.177582  0  3.413739  0
N  N48  1  0.15918866  0.76370685  0.71340144  1  0  -0.251058  0  3.132622  0  0  -0.188262  0  3.425187  0  0  -0.204373  0  3.441298  0  0  -0.233991  -0.177609  0  3.413857  0
N  N49  1  0.92035110  0.24619588  0.15687356  1  0  -0.226545  0  2.950164  0  0  -0.199464  0  3.226889  0  0  -0.208441  0  3.243071  0  0  -0.219363  -0.193374  0  3.215931  0
N  N50  1  0.07964885  0.75380753  0.84312406  1  0  -0.226578  0  2.950178  0  0  -0.199492  0  3.226895  0  0  -0.208468  0  3.243074  0  0  -0.219391  -0.193403  0  3.215936  0
N  N51  1  0.05140734  0.79802750  0.38458032  1  0  -0.56011  0  2.880633  0  0  -0.502289  0  3.163875  0  0  -0.523274  0  3.169216  0  0  -0.4068  -0.487855  0  3.159607  0
N  N52  1  0.94859974  0.20195254  0.61543606  1  0  -0.55981  0  2.880584  0  0  -0.501974  0  3.163804  0  0  -0.522961  0  3.169152  0  0  -0.406696  -0.487538  0  3.159528  0
