# generated using pymatgen
data_CdH15C20(NO2)3
_symmetry_space_group_name_H-M   'P 1'
_cell_length_a   9.06671827
_cell_length_b   10.05143400
_cell_length_c   10.61454386
_cell_angle_alpha   100.53438328
_cell_angle_beta   106.05563090
_cell_angle_gamma   92.77810516
_symmetry_Int_Tables_number   1
_chemical_formula_structural   CdH15C20(NO2)3
_chemical_formula_sum   'Cd2 H30 C40 N6 O12'
_cell_volume   908.90551001
_cell_formula_units_Z   2
loop_
 _symmetry_equiv_pos_site_id
 _symmetry_equiv_pos_as_xyz
  1  'x, y, z'
loop_
 _atom_site_type_symbol
 _atom_site_label
 _atom_site_symmetry_multiplicity
 _atom_site_fract_x
 _atom_site_fract_y
 _atom_site_fract_z
 _atom_site_occupancy
 _atom_site_pbe_bader_spin_density
 _atom_site_pbe_cm5_charge
 _atom_site_pbe_ddec_charge
 _atom_site_pbe_ddec_spin_density
 _atom_site_pbe_ddec_sum_bond_order
 _atom_site_pbe_magmom
Cd  Cd0  1  0.11941598  0.46090937  0.68237550  1  0  0.774675  0.879848  0  2.162551  0
Cd  Cd1  1  0.88058493  0.53909146  0.31762319  1  0  0.774687  0.879862  0  2.162538  0
H  H2  1  0.92445421  0.71647245  0.71101456  1  0  0.119838  0.09645  0  1.007551  0
H  H3  1  0.07554531  0.28352635  0.28898249  1  0  0.119844  0.096469  0  1.007546  0
H  H4  1  0.83591778  0.87337886  0.88448229  1  0  0.103171  0.105239  0  1.04321  0
H  H5  1  0.16407805  0.12661793  0.11551257  1  0  0.103174  0.105248  0  1.043195  0
H  H6  1  0.94613055  0.86035886  0.12544004  1  0  0.115016  0.117247  0  0.969809  0
H  H7  1  0.05386693  0.13964200  0.87455595  1  0  0.115013  0.117285  0  0.969755  0
H  H8  1  0.13452074  0.69476141  0.18554843  1  0  0.109629  0.128211  0  1.041771  0
H  H9  1  0.86547952  0.30524350  0.81444990  1  0  0.109638  0.128233  0  1.041771  0
H  H10  1  0.29689586  0.56661822  0.22146380  1  0  0.110043  0.121514  0  1.036115  0
H  H11  1  0.70310402  0.43338361  0.77853671  1  0  0.110037  0.121506  0  1.036116  0
H  H12  1  0.47936630  0.39072885  0.25464551  1  0  0.108261  0.109777  0  1.017911  0
H  H13  1  0.52063359  0.60927298  0.74535594  1  0  0.108276  0.109796  0  1.017929  0
H  H14  1  0.51385533  0.23538691  0.05038261  1  0  0.10605  0.113237  0  1.016163  0
H  H15  1  0.48614315  0.76461288  0.94961815  1  0  0.106042  0.113213  0  1.016172  0
H  H16  1  0.36315343  0.26934188  0.82349737  1  0  0.112004  0.083256  0  1.048495  0
H  H17  1  0.63684378  0.73065689  0.17650383  1  0  0.112009  0.083244  0  1.048483  0
H  H18  1  0.57962119  0.40143136  0.57722951  1  0  0.11032  0.118185  0  1.013148  0
H  H19  1  0.42037870  0.59857050  0.42276724  1  0  0.110324  0.118112  0  1.013232  0
H  H20  1  0.68320691  0.98444697  0.19891192  1  0  0.091379  0.125731  0  1.028411  0
H  H21  1  0.31679375  0.01555181  0.80108822  1  0  0.091384  0.125741  0  1.028405  0
H  H22  1  0.83502975  0.05295837  0.34605256  1  0  0.102139  0.155957  0  0.97827  0
H  H23  1  0.16497090  0.94704039  0.65394946  1  0  0.102138  0.155972  0  0.978333  0
H  H24  1  0.77357829  0.15203254  0.22343696  1  0  0.093223  0.140633  0  1.02107  0
H  H25  1  0.22642454  0.84796522  0.77656257  1  0  0.093229  0.140624  0  1.021089  0
H  H26  1  0.11954684  0.08914661  0.36815440  1  0  0.098073  0.145647  0  1.017748  0
H  H27  1  0.88045598  0.91085112  0.63184795  1  0  0.098068  0.145598  0  1.017787  0
H  H28  1  0.22297692  0.95918007  0.42770235  1  0  0.099697  0.152287  0  0.994832  0
H  H29  1  0.77702730  0.04081968  0.57230164  1  0  0.099696  0.152266  0  0.994823  0
H  H30  1  0.17795226  0.96228449  0.25539863  1  0  0.086395  0.109219  0  1.068246  0
H  H31  1  0.82204942  0.03771324  0.74460439  1  0  0.086405  0.109233  0  1.068193  0
C  C32  1  0.96753945  0.71617258  0.81755040  1  0  0.052933  0.106745  0  3.937581  0
C  C33  1  0.03246019  0.28382724  0.18244780  1  0  0.052914  0.106697  0  3.937614  0
C  C34  1  0.92082057  0.80352671  0.91370698  1  0  -0.083122  -0.125929  0  3.96708  0
C  C35  1  0.07917665  0.19647210  0.08629047  1  0  -0.083119  -0.125919  0  3.966998  0
C  C36  1  0.98239568  0.79583383  0.04749087  1  0  -0.067544  -0.024773  0  3.96246  0
C  C37  1  0.01760192  0.20416805  0.95250534  1  0  -0.067562  -0.024846  0  3.962453  0
C  C38  1  0.08803900  0.70278834  0.08127740  1  0  -0.080666  -0.156761  0  3.92329  0
C  C39  1  0.91196101  0.29721453  0.91872050  1  0  -0.08066  -0.156775  0  3.923434  0
C  C40  1  0.12855836  0.61745813  0.97878850  1  0  0.119643  0.16513  0  3.988748  0
C  C41  1  0.87144268  0.38254372  0.02121040  1  0  0.119625  0.165117  0  3.988695  0
C  C42  1  0.23663164  0.51260789  0.00542362  1  0  0.118463  0.16485  0  3.99711  0
C  C43  1  0.76336824  0.48739395  0.99457689  1  0  0.118431  0.164828  0  3.997137  0
C  C44  1  0.31503062  0.49966124  0.13545723  1  0  -0.075062  -0.142719  0  3.899052  0
C  C45  1  0.68496811  0.50034059  0.86454301  1  0  -0.075069  -0.142732  0  3.89899  0
C  C46  1  0.41624737  0.40006252  0.15364030  1  0  -0.063808  -0.015078  0  3.931842  0
C  C47  1  0.58375136  0.59993931  0.84636088  1  0  -0.0638  -0.015103  0  3.931823  0
C  C48  1  0.43638314  0.31489092  0.04160680  1  0  -0.081919  -0.119885  0  3.945538  0
C  C49  1  0.56361420  0.68510887  0.95839368  1  0  -0.08188  -0.1198  0  3.945492  0
C  C50  1  0.35354133  0.33303798  0.91513433  1  0  0.046036  0.094527  0  3.963577  0
C  C51  1  0.64645715  0.66696182  0.08486642  1  0  0.04602  0.094536  0  3.963571  0
C  C52  1  0.40384236  0.23647247  0.47790487  1  0  -0.015706  -0.082007  0  3.944117  0
C  C53  1  0.59615843  0.76352733  0.52209454  1  0  -0.01566  -0.081971  0  3.944066  0
C  C54  1  0.55040688  0.30495967  0.50588982  1  0  -0.07361  -0.093874  0  3.965836  0
C  C55  1  0.44959404  0.69504116  0.49410793  1  0  -0.073621  -0.093778  0  3.965926  0
C  C56  1  0.66114089  0.25388584  0.44673637  1  0  -0.014345  -0.089656  0  3.931279  0
C  C57  1  0.33885887  0.74611500  0.55326110  1  0  -0.014313  -0.089662  0  3.931234  0
C  C58  1  0.62107148  0.13568292  0.34432713  1  0  0.007779  0.120756  0  3.937988  0
C  C59  1  0.37892931  0.86431689  0.65567135  1  0  0.007764  0.120775  0  3.937886  0
C  C60  1  0.47147339  0.07192319  0.31723490  1  0  0.069165  -0.067365  0  3.895124  0
C  C61  1  0.52852842  0.92807560  0.68276364  1  0  0.069155  -0.067334  0  3.895121  0
C  C62  1  0.36233203  0.11233533  0.38401925  1  0  0.004865  0.115877  0  3.95056  0
C  C63  1  0.63766990  0.88766446  0.61598138  1  0  0.004839  0.115822  0  3.950565  0
C  C64  1  0.29824225  0.29714588  0.55498570  1  0  0.190764  0.561536  0  4.226484  0
C  C65  1  0.70175956  0.70285289  0.44501565  1  0  0.190749  0.5615  0  4.226422  0
C  C66  1  0.82174534  0.32684263  0.49882342  1  0  0.211464  0.605779  0  4.176153  0
C  C67  1  0.17825672  0.67315821  0.50117460  1  0  0.21143  0.605744  0  4.176211  0
C  C68  1  0.73314606  0.07762145  0.27340855  1  0  -0.241819  -0.417713  0  3.946652  0
C  C69  1  0.26685346  0.92237734  0.72659038  1  0  -0.24182  -0.417719  0  3.946649  0
C  C70  1  0.21206625  0.02673361  0.35584388  1  0  -0.244026  -0.420792  0  3.949327  0
C  C71  1  0.78793440  0.97326514  0.64415908  1  0  -0.244048  -0.42075  0  3.949326  0
N  N72  1  0.25670769  0.42901512  0.89774225  1  0  -0.327337  -0.291765  0  3.521887  0
N  N73  1  0.74329194  0.57098467  0.10225877  1  0  -0.327345  -0.29178  0  3.521973  0
N  N74  1  0.06810148  0.62587820  0.84958884  1  0  -0.323881  -0.269104  0  3.487275  0
N  N75  1  0.93189943  0.37412262  0.15041079  1  0  -0.323851  -0.269022  0  3.48721  0
N  N76  1  0.42383075  0.94942581  0.20844804  1  0  0.057025  0.529899  0  4.204792  0
N  N77  1  0.57616977  0.05057191  0.79155565  1  0  0.056993  0.529724  0  4.204904  0
O  O78  1  0.20858553  0.22219026  0.59087343  1  0  -0.32683  -0.544186  0  2.119576  0
O  O79  1  0.79141972  0.77780851  0.40912686  1  0  -0.326808  -0.544147  0  2.119473  0
O  O80  1  0.30878665  0.42823999  0.58259737  1  0  -0.334183  -0.555435  0  2.245603  0
O  O81  1  0.69121389  0.57175778  0.41740161  1  0  -0.334226  -0.555475  0  2.245582  0
O  O82  1  0.89940094  0.34416241  0.41955107  1  0  -0.328332  -0.579252  0  2.304148  0
O  O83  1  0.10060112  0.65583842  0.58044695  1  0  -0.328308  -0.57921  0  2.304226  0
O  O84  1  0.87197313  0.36710055  0.62632520  1  0  -0.320086  -0.540401  0  2.253008  0
O  O85  1  0.12802778  0.63290029  0.37367255  1  0  -0.320078  -0.540401  0  2.252959  0
O  O86  1  0.43098475  0.83668028  0.23945491  1  0  -0.095468  -0.298827  0  1.989413  0
O  O87  1  0.56902048  0.16331843  0.76055196  1  0  -0.095466  -0.29879  0  1.98949  0
O  O88  1  0.37806419  0.96755560  0.09176275  1  0  -0.1203  -0.332036  0  1.924643  0
O  O89  1  0.62193112  0.03243704  0.90824066  1  0  -0.120256  -0.331914  0  1.924668  0
