# generated using pymatgen
data_TbH10C21NO6
_symmetry_space_group_name_H-M   'P 1'
_cell_length_a   15.42746365
_cell_length_b   15.42745349
_cell_length_c   19.31733808
_cell_angle_alpha   90.00001674
_cell_angle_beta   89.99998922
_cell_angle_gamma   119.99991835
_symmetry_Int_Tables_number   1
_chemical_formula_structural   TbH10C21NO6
_chemical_formula_sum   'Tb6 H60 C126 N6 O36'
_cell_volume   3981.68635883
_cell_formula_units_Z   6
loop_
 _symmetry_equiv_pos_site_id
 _symmetry_equiv_pos_as_xyz
  1  'x, y, z'
loop_
 _atom_site_type_symbol
 _atom_site_label
 _atom_site_symmetry_multiplicity
 _atom_site_fract_x
 _atom_site_fract_y
 _atom_site_fract_z
 _atom_site_occupancy
 _atom_site_pbe_bader_charge
 _atom_site_pbe_bader_spin_density
 _atom_site_pbe_cm5_charge
 _atom_site_pbe_ddec_charge
 _atom_site_pbe_ddec_spin_density
 _atom_site_pbe_ddec_sum_bond_order
 _atom_site_pbe_magmom
Tb  Tb0  1  0.94624788  0.08052740  0.68670221  1  2.154262  0  1.536962  2.052828  0  2.244071  0
Tb  Tb1  1  0.86572021  0.94624949  0.52003339  1  2.153989  0  1.536948  2.052832  0  2.244018  0
Tb  Tb2  1  0.91947297  0.86571972  0.35336860  1  2.153065  0  1.536919  2.052782  0  2.244072  0
Tb  Tb3  1  0.05375240  0.91947274  0.18670233  1  2.154267  0  1.536974  2.05284  0  2.244083  0
Tb  Tb4  1  0.13427971  0.05375098  0.02003329  1  2.153986  0  1.536938  2.052821  0  2.244044  0
Tb  Tb5  1  0.08052730  0.13428048  0.85336862  1  2.153057  0  1.536938  2.052797  0  2.244127  0
H  H6  1  0.08387676  0.14502401  0.43071722  1  0.127595  0  0.113949  0.122866  0  1.018868  0
H  H7  1  0.93885235  0.08387685  0.26404822  1  0.113991  0  0.11398  0.122893  0  1.019017  0
H  H8  1  0.85497544  0.93885254  0.09738717  1  0.120799  0  0.113999  0.122901  0  1.018819  0
H  H9  1  0.91612350  0.85497622  0.93071729  1  0.127593  0  0.113935  0.122854  0  1.018876  0
H  H10  1  0.06114727  0.91612268  0.76404844  1  0.113988  0  0.113986  0.122914  0  1.018975  0
H  H11  1  0.14502484  0.06114757  0.59738769  1  0.120789  0  0.113997  0.122892  0  1.018827  0
H  H12  1  0.21753670  0.36167157  0.59483457  1  0.117713  0  0.108793  0.118091  0  0.99736  0
H  H13  1  0.85586464  0.21753794  0.42816506  1  0.127355  0  0.108767  0.11806  0  0.997302  0
H  H14  1  0.63832741  0.85586648  0.26150347  1  0.133452  0  0.108813  0.118097  0  0.997362  0
H  H15  1  0.78246358  0.63832855  0.09483451  1  0.117716  0  0.10879  0.118087  0  0.997367  0
H  H16  1  0.14413497  0.78246163  0.92816523  1  0.127346  0  0.108774  0.118077  0  0.997322  0
H  H17  1  0.36167287  0.14413369  0.76150346  1  0.133447  0  0.108808  0.118088  0  0.997365  0
H  H18  1  0.34815361  0.48472671  0.51458646  1  0.088339  0  0.104618  0.115028  0  1.014712  0
H  H19  1  0.86342705  0.34815503  0.34791696  1  0.074567  0  0.104623  0.11505  0  1.01468  0
H  H20  1  0.51527124  0.86342750  0.18125485  1  0.089354  0  0.104619  0.115056  0  1.014632  0
H  H21  1  0.65184631  0.51527376  0.01458639  1  0.088345  0  0.104605  0.115034  0  1.014711  0
H  H22  1  0.13657257  0.65184452  0.84791658  1  0.074567  0  0.104624  0.115053  0  1.014678  0
H  H23  1  0.48472904  0.13657264  0.68125482  1  0.089346  0  0.104622  0.115049  0  1.014655  0
H  H24  1  0.11784060  0.14464047  0.28562735  1  0.122789  0  0.113685  0.122009  0  1.022332  0
H  H25  1  0.97319935  0.11783912  0.11895888  1  0.121273  0  0.113683  0.121946  0  1.022303  0
H  H26  1  0.85535987  0.97319978  0.95229689  1  0.121009  0  0.113674  0.122006  0  1.022303  0
H  H27  1  0.88215968  0.85535970  0.78562743  1  0.122792  0  0.113668  0.121994  0  1.022306  0
H  H28  1  0.02680028  0.88216036  0.61895857  1  0.121282  0  0.113686  0.121966  0  1.022316  0
H  H29  1  0.14464039  0.02680045  0.45229678  1  0.121013  0  0.113677  0.122012  0  1.022293  0
H  H30  1  0.33766805  0.34961607  0.14138958  1  0.092579  0  0.109356  0.117665  0  0.991607  0
H  H31  1  0.98805090  0.33766649  0.97472122  1  0.08332  0  0.109368  0.117649  0  0.99165  0
H  H32  1  0.65038363  0.98805174  0.80805964  1  0.083821  0  0.1093  0.117537  0  0.991567  0
H  H33  1  0.66233223  0.65038406  0.64138964  1  0.092575  0  0.10936  0.117668  0  0.991626  0
H  H34  1  0.01194871  0.66233310  0.47472076  1  0.083316  0  0.109353  0.11765  0  0.991637  0
H  H35  1  0.34961599  0.01194779  0.30805950  1  0.083794  0  0.109307  0.117539  0  0.991583  0
H  H36  1  0.42323819  0.47739258  0.23486986  1  0.093032  0  0.105555  0.116055  0  1.004746  0
H  H37  1  0.94584495  0.42323789  0.06820089  1  0.082718  0  0.105521  0.116043  0  1.004766  0
H  H38  1  0.52260825  0.94584607  0.90153992  1  0.080961  0  0.105559  0.116018  0  1.0048  0
H  H39  1  0.57676209  0.52260758  0.73486990  1  0.093035  0  0.105534  0.11605  0  1.004765  0
H  H40  1  0.05415497  0.57676259  0.56820050  1  0.082836  0  0.105517  0.116039  0  1.004747  0
H  H41  1  0.47739239  0.05415377  0.40153977  1  0.080953  0  0.105555  0.116005  0  1.004823  0
H  H42  1  0.53362317  0.48189736  0.33960840  1  0.064585  0  0.110534  0.118286  0  0.990959  0
H  H43  1  0.05172535  0.53362278  0.17293848  1  0.06404  0  0.110543  0.118264  0  0.990945  0
H  H44  1  0.51810273  0.05172440  0.00627878  1  0.067701  0  0.110519  0.118241  0  0.991051  0
H  H45  1  0.46637710  0.51810284  0.83960846  1  0.064589  0  0.110524  0.118286  0  0.990966  0
H  H46  1  0.94827428  0.46637671  0.67293846  1  0.064029  0  0.110548  0.118285  0  0.990933  0
H  H47  1  0.48189756  0.94827569  0.50627894  1  0.067705  0  0.110523  0.118248  0  0.991045  0
H  H48  1  0.69008905  0.64034751  0.36949503  1  0.169498  0  0.117156  0.129137  0  1.021142  0
H  H49  1  0.04974287  0.69008947  0.20282564  1  0.14508  0  0.117168  0.129169  0  1.021122  0
H  H50  1  0.35965427  0.04974233  0.03616490  1  0.16589  0  0.117165  0.129156  0  1.021132  0
H  H51  1  0.30991186  0.35965334  0.86949508  1  0.169462  0  0.117165  0.129151  0  1.021125  0
H  H52  1  0.95025741  0.30991068  0.70282558  1  0.145073  0  0.117163  0.12916  0  1.021137  0
H  H53  1  0.64034602  0.95025776  0.53616503  1  0.165892  0  0.117164  0.129153  0  1.021126  0
H  H54  1  0.51480383  0.75935672  0.45676278  1  0.106667  0  0.110518  0.11538  0  0.989773  0
H  H55  1  0.75544828  0.51480461  0.29009225  1  0.105869  0  0.110487  0.115359  0  0.989862  0
H  H56  1  0.24064290  0.75544770  0.12343271  1  0.09743  0  0.110474  0.115315  0  0.989896  0
H  H57  1  0.48519643  0.24064351  0.95676277  1  0.106675  0  0.110507  0.115381  0  0.989817  0
H  H58  1  0.24455199  0.48519556  0.79009233  1  0.105868  0  0.110478  0.115354  0  0.989853  0
H  H59  1  0.75935636  0.24455215  0.62343266  1  0.097435  0  0.11047  0.115323  0  0.989876  0
H  H60  1  0.35726252  0.60217386  0.42394562  1  0.091757  0  0.111745  0.120572  0  0.984955  0
H  H61  1  0.75508827  0.35726184  0.25727508  1  0.094072  0  0.111737  0.120612  0  0.984828  0
H  H62  1  0.39782569  0.75508629  0.09061555  1  0.086823  0  0.111739  0.120546  0  0.984924  0
H  H63  1  0.64273774  0.39782636  0.92394562  1  0.091759  0  0.111755  0.120584  0  0.984931  0
H  H64  1  0.24491200  0.64273832  0.75727520  1  0.094074  0  0.111715  0.120566  0  0.984837  0
H  H65  1  0.60217394  0.24491317  0.59061552  1  0.08683  0  0.11174  0.120533  0  0.984941  0
C  C66  1  0.14005384  0.21949825  0.44798565  1  -0.054646  0  -0.069137  -0.101421  0  3.906059  0
C  C67  1  0.92055578  0.14005393  0.28131718  1  -0.060141  0  -0.069176  -0.101454  0  3.906202  0
C  C68  1  0.78050207  0.92055642  0.11465508  1  -0.063507  0  -0.069284  -0.101466  0  3.906131  0
C  C69  1  0.85994642  0.78050198  0.94798571  1  -0.054651  0  -0.069138  -0.101391  0  3.906061  0
C  C70  1  0.07944449  0.85994624  0.78131685  1  -0.060133  0  -0.069181  -0.101473  0  3.90619  0
C  C71  1  0.21949822  0.07944371  0.61465507  1  -0.063635  0  -0.069281  -0.101435  0  3.906109  0
C  C72  1  0.14343156  0.24806355  0.51729127  1  -0.017508  0  -0.026097  -0.064666  0  3.995195  0
C  C73  1  0.89536777  0.14343283  0.35062176  1  0.007307  0  -0.026111  -0.064742  0  3.995252  0
C  C74  1  0.75193568  0.89536938  0.18396069  1  -0.012398  0  -0.025996  -0.064578  0  3.995124  0
C  C75  1  0.85656873  0.75193654  0.01729123  1  -0.017508  0  -0.026125  -0.064755  0  3.9952  0
C  C76  1  0.10463250  0.85656737  0.85062195  1  0.007335  0  -0.026115  -0.064735  0  3.995188  0
C  C77  1  0.24806423  0.10463114  0.68396069  1  -0.012532  0  -0.026012  -0.064632  0  3.995116  0
C  C78  1  0.21796096  0.34363327  0.54040833  1  0.000862  0  -0.082502  -0.074586  0  3.984743  0
C  C79  1  0.87432736  0.21796099  0.37373934  1  -0.032062  0  -0.082454  -0.07451  0  3.984656  0
C  C80  1  0.65636614  0.87432885  0.20707776  1  -0.029057  0  -0.082509  -0.074537  0  3.98475  0
C  C81  1  0.78203896  0.65636720  0.04040828  1  0.000601  0  -0.082514  -0.074569  0  3.984726  0
C  C82  1  0.12567264  0.78203819  0.87373900  1  -0.032057  0  -0.082446  -0.074525  0  3.984672  0
C  C83  1  0.34363479  0.12567195  0.70707774  1  -0.029077  0  -0.082506  -0.074522  0  3.984727  0
C  C84  1  0.28991251  0.41215834  0.49597623  1  -0.035504  0  -0.103207  -0.190532  0  4.047985  0
C  C85  1  0.87775385  0.28991304  0.32930673  1  -0.023442  0  -0.103254  -0.190589  0  4.047878  0
C  C86  1  0.58783951  0.87775349  0.16264514  1  -0.033781  0  -0.103244  -0.190677  0  4.047991  0
C  C87  1  0.71008775  0.58784191  0.99597627  1  -0.035247  0  -0.103205  -0.190576  0  4.047985  0
C  C88  1  0.12224642  0.71008716  0.82930688  1  -0.023454  0  -0.103254  -0.190599  0  4.047904  0
C  C89  1  0.41216077  0.12224664  0.66264563  1  -0.033772  0  -0.10323  -0.190635  0  4.047952  0
C  C90  1  0.28457575  0.38410919  0.42663437  1  0.344111  0  0.102887  0.140547  0  4.005211  0
C  C91  1  0.90046644  0.28457591  0.25996539  1  0.345646  0  0.102842  0.140492  0  4.005232  0
C  C92  1  0.61588989  0.90046577  0.09330432  1  0.344281  0  0.102974  0.140761  0  4.005376  0
C  C93  1  0.71542452  0.61589103  0.92663442  1  0.34411  0  0.102933  0.140637  0  4.005174  0
C  C94  1  0.09953383  0.71542426  0.75996503  1  0.345646  0  0.102877  0.140573  0  4.005209  0
C  C95  1  0.38410974  0.09953369  0.59330430  1  0.344295  0  0.102971  0.140728  0  4.005321  0
C  C96  1  0.21047815  0.28842788  0.40165940  1  -0.039384  0  -0.013973  -0.018014  0  4.018572  0
C  C97  1  0.92204978  0.21047840  0.23499144  1  0.0017  0  -0.013937  -0.017995  0  4.018494  0
C  C98  1  0.71157148  0.92205022  0.06832934  1  0.000936  0  -0.013967  -0.018186  0  4.018754  0
C  C99  1  0.78952212  0.71157233  0.90165945  1  -0.039385  0  -0.013967  -0.018027  0  4.018548  0
C  C100  1  0.07794984  0.78952111  0.73499111  1  0.001683  0  -0.013953  -0.018028  0  4.018557  0
C  C101  1  0.28842880  0.07794988  0.56832933  1  0.00093  0  -0.013971  -0.018201  0  4.018752  0
C  C102  1  0.23069429  0.28652968  0.32836979  1  -0.01568  0  -0.014573  -0.019295  0  4.020895  0
C  C103  1  0.94416572  0.23069472  0.16170081  1  -0.029926  0  -0.014627  -0.019339  0  4.020924  0
C  C104  1  0.71346985  0.94416499  0.99503933  1  -0.016992  0  -0.01459  -0.019254  0  4.020874  0
C  C105  1  0.76930533  0.71346986  0.82836985  1  -0.015696  0  -0.014561  -0.019245  0  4.020929  0
C  C106  1  0.05583456  0.76930542  0.66170099  1  -0.029935  0  -0.014616  -0.019333  0  4.020951  0
C  C107  1  0.28653041  0.05583526  0.49503921  1  -0.016988  0  -0.014569  -0.019235  0  4.020852  0
C  C108  1  0.18396415  0.21683117  0.27539199  1  0.044809  0  -0.070146  -0.097598  0  3.910097  0
C  C109  1  0.96713425  0.18396334  0.10872249  1  0.039175  0  -0.070153  -0.097516  0  3.910161  0
C  C110  1  0.78316889  0.96713174  0.94206101  1  0.023195  0  -0.070076  -0.097483  0  3.910099  0
C  C111  1  0.81603547  0.78316836  0.77539206  1  0.044819  0  -0.07014  -0.097606  0  3.910084  0
C  C112  1  0.03286539  0.81603613  0.60872268  1  0.039243  0  -0.070158  -0.097568  0  3.910086  0
C  C113  1  0.21683137  0.03286849  0.44206089  1  0.023191  0  -0.07008  -0.0975  0  3.910104  0
C  C114  1  0.22389817  0.24093352  0.20837862  1  -0.071522  0  -0.025648  -0.065465  0  3.990012  0
C  C115  1  0.98296509  0.22389794  0.04170963  1  -0.077204  0  -0.025578  -0.065351  0  3.990045  0
C  C116  1  0.75906489  0.98296091  0.87504764  1  -0.074701  0  -0.025766  -0.06579  0  3.990276  0
C  C117  1  0.77610146  0.75906598  0.70837869  1  -0.071483  0  -0.025639  -0.065477  0  3.990011  0
C  C118  1  0.01703520  0.77610215  0.54171034  1  -0.077271  0  -0.025639  -0.065412  0  3.989968  0
C  C119  1  0.24093538  0.01703930  0.37504752  1  -0.074688  0  -0.025761  -0.065781  0  3.990252  0
C  C120  1  0.30978848  0.33444779  0.19435081  1  0.005719  0  -0.081027  -0.073487  0  3.982065  0
C  C121  1  0.97534153  0.30978840  0.02768235  1  0.027057  0  -0.081114  -0.07357  0  3.982141  0
C  C122  1  0.66555195  0.97533877  0.86101983  1  0.036621  0  -0.08093  -0.073227  0  3.981937  0
C  C123  1  0.69021180  0.66555235  0.69435035  1  0.005722  0  -0.081036  -0.073482  0  3.98205  0
C  C124  1  0.02465876  0.69021169  0.52768251  1  0.027075  0  -0.081076  -0.073543  0  3.98209  0
C  C125  1  0.33444869  0.02466106  0.36101970  1  0.03664  0  -0.080984  -0.07328  0  3.98207  0
C  C126  1  0.35744058  0.40518578  0.24599716  1  -0.032152  0  -0.103235  -0.193367  0  4.046364  0
C  C127  1  0.95225646  0.35744138  0.07932767  1  -0.050502  0  -0.10316  -0.193314  0  4.046345  0
C  C128  1  0.59481533  0.95225581  0.91266670  1  -0.068644  0  -0.103259  -0.193339  0  4.046272  0
C  C129  1  0.64255933  0.59481476  0.74599721  1  -0.032235  0  -0.103207  -0.193366  0  4.046296  0
C  C130  1  0.04774382  0.64255873  0.57932782  1  -0.05064  0  -0.103154  -0.193307  0  4.046321  0
C  C131  1  0.40518493  0.04774441  0.41266656  1  -0.068644  0  -0.103217  -0.193303  0  4.046422  0
C  C132  1  0.31724660  0.38030627  0.31271547  1  0.306493  0  0.102174  0.138576  0  4.011539  0
C  C133  1  0.93694233  0.31724805  0.14604649  1  0.335636  0  0.102169  0.138525  0  4.011512  0
C  C134  1  0.61969425  0.93694034  0.97938449  1  0.348735  0  0.102133  0.13855  0  4.011447  0
C  C135  1  0.68275432  0.61969456  0.81271500  1  0.306515  0  0.102146  0.138541  0  4.011557  0
C  C136  1  0.06305796  0.68275208  0.64604613  1  0.335635  0  0.102196  0.138588  0  4.011531  0
C  C137  1  0.38030574  0.06305888  0.47938487  1  0.348742  0  0.102072  0.138515  0  4.011534  0
C  C138  1  0.43669463  0.53218713  0.38160954  1  0.314753  0  0.100696  0.185444  0  4.019582  0
C  C139  1  0.90450823  0.43669454  0.21493902  1  0.331941  0  0.100681  0.185327  0  4.019621  0
C  C140  1  0.46781215  0.90450580  0.04827846  1  0.329533  0  0.100688  0.185377  0  4.019565  0
C  C141  1  0.56330499  0.46781243  0.88160958  1  0.314754  0  0.100652  0.185407  0  4.019638  0
C  C142  1  0.09549140  0.56330497  0.71493914  1  0.331956  0  0.100692  0.185322  0  4.019594  0
C  C143  1  0.53218749  0.09549365  0.54827841  1  0.329514  0  0.100685  0.18541  0  4.019503  0
C  C144  1  0.52999870  0.54358451  0.36424431  1  -0.021202  0  -0.086905  -0.174664  0  3.978772  0
C  C145  1  0.98641371  0.52999852  0.19757379  1  -0.032321  0  -0.086885  -0.174568  0  3.978749  0
C  C146  1  0.45641588  0.98641398  0.03091376  1  -0.025878  0  -0.086939  -0.174593  0  3.978662  0
C  C147  1  0.47000092  0.45641505  0.86424435  1  -0.021207  0  -0.086912  -0.174708  0  3.9788  0
C  C148  1  0.01358555  0.47000135  0.69757339  1  -0.032324  0  -0.086923  -0.174603  0  3.978779  0
C  C149  1  0.54358403  0.01358649  0.53091369  1  -0.026119  0  -0.086946  -0.174639  0  3.9787  0
C  C150  1  0.61719130  0.63147173  0.38166234  1  0.004192  0  -0.065157  -0.052217  0  3.916708  0
C  C151  1  0.98572006  0.61719114  0.21499235  1  -0.034117  0  -0.065159  -0.052211  0  3.916918  0
C  C152  1  0.36852888  0.98572013  0.04833232  1  0.02151  0  -0.065112  -0.052203  0  3.916766  0
C  C153  1  0.38280897  0.36852848  0.88166238  1  0.004216  0  -0.065163  -0.05221  0  3.916721  0
C  C154  1  0.01427957  0.38280836  0.71499245  1  -0.03411  0  -0.065133  -0.052191  0  3.916929  0
C  C155  1  0.63147038  0.01427969  0.54833223  1  0.021754  0  -0.065103  -0.052158  0  3.916746  0
C  C156  1  0.61156742  0.70804051  0.41675363  1  -0.051821  0  -0.010095  -0.03359  0  3.946537  0
C  C157  1  0.90352841  0.61156810  0.25008311  1  0.008721  0  -0.01006  -0.033585  0  3.946551  0
C  C158  1  0.29196009  0.90352804  0.08342307  1  -0.062279  0  -0.010119  -0.033656  0  3.946594  0
C  C159  1  0.38843247  0.29196009  0.91675364  1  -0.05182  0  -0.010106  -0.033593  0  3.946497  0
C  C160  1  0.09647121  0.38843142  0.75008320  1  0.008701  0  -0.010045  -0.033586  0  3.946552  0
C  C161  1  0.70804020  0.09647207  0.58342351  1  -0.062277  0  -0.010134  -0.033719  0  3.946671  0
C  C162  1  0.51786302  0.69832430  0.43065565  1  -0.010644  0  -0.074431  -0.071808  0  3.973262  0
C  C163  1  0.81953906  0.51786281  0.26398565  1  -0.011845  0  -0.074424  -0.071814  0  3.973399  0
C  C164  1  0.30167616  0.81953924  0.09732508  1  -0.012942  0  -0.074396  -0.071744  0  3.973369  0
C  C165  1  0.48213686  0.30167630  0.93065566  1  -0.010652  0  -0.074425  -0.071835  0  3.973319  0
C  C166  1  0.18046056  0.48213671  0.76398574  1  -0.011839  0  -0.074421  -0.071807  0  3.973359  0
C  C167  1  0.69832412  0.18046088  0.59732502  1  -0.012951  0  -0.074391  -0.071746  0  3.973346  0
C  C168  1  0.43053397  0.61105060  0.41275204  1  -0.072597  0  -0.090412  -0.181082  0  4.005861  0
C  C169  1  0.81948340  0.43053537  0.24608151  1  -0.069487  0  -0.090366  -0.181055  0  4.005826  0
C  C170  1  0.38894845  0.81948140  0.07942095  1  -0.068133  0  -0.090365  -0.180982  0  4.005837  0
C  C171  1  0.56946564  0.38894897  0.91275206  1  -0.072589  0  -0.090398  -0.181049  0  4.005956  0
C  C172  1  0.18051623  0.56946415  0.74608163  1  -0.069473  0  -0.090403  -0.181053  0  4.005804  0
C  C173  1  0.61105119  0.18051806  0.57942091  1  -0.068117  0  -0.090379  -0.180986  0  4.005781  0
C  C174  1  0.07160855  0.18284278  0.57042178  1  1.53018  0  0.215283  0.623059  0  4.168038  0
C  C175  1  0.88876550  0.07160877  0.40375381  1  1.524429  0  0.215347  0.623158  0  4.168008  0
C  C176  1  0.81715512  0.88876479  0.23709120  1  1.524483  0  0.215219  0.62297  0  4.168148  0
C  C177  1  0.92839238  0.81715797  0.07042174  1  1.530189  0  0.215321  0.623089  0  4.168013  0
C  C178  1  0.11123411  0.92839080  0.90375402  1  1.524436  0  0.215355  0.623184  0  4.167972  0
C  C179  1  0.18284413  0.11123510  0.73709120  1  1.524956  0  0.215242  0.622987  0  4.168182  0
C  C180  1  0.17861070  0.16977809  0.15026295  1  1.522261  0  0.222428  0.632025  0  4.16539  0
C  C181  1  0.00883237  0.17861135  0.98359258  1  1.51589  0  0.222315  0.631892  0  4.165469  0
C  C182  1  0.83022028  0.00883025  0.81693134  1  1.515834  0  0.222553  0.632275  0  4.165184  0
C  C183  1  0.82138921  0.83022242  0.65026251  1  1.522265  0  0.222449  0.632068  0  4.165426  0
C  C184  1  0.99116724  0.82138825  0.48359253  1  1.51604  0  0.222345  0.631916  0  4.165372  0
C  C185  1  0.16977934  0.99116929  0.31693145  1  1.515621  0  0.222519  0.632228  0  4.165199  0
C  C186  1  0.70318278  0.79684091  0.44325159  1  1.540337  0  0.220729  0.631434  0  4.145599  0
C  C187  1  0.90634310  0.70318369  0.27658367  1  1.549195  0  0.220679  0.631363  0  4.145687  0
C  C188  1  0.20315942  0.90634324  0.10992103  1  1.553284  0  0.220771  0.631517  0  4.145495  0
C  C189  1  0.29681646  0.20315905  0.94325160  1  1.540355  0  0.220725  0.631479  0  4.145556  0
C  C190  1  0.09365680  0.29681686  0.77658373  1  1.549179  0  0.220674  0.631357  0  4.145671  0
C  C191  1  0.79684049  0.09365725  0.60992094  1  1.553274  0  0.220751  0.631471  0  4.145663  0
N  N192  1  0.34825369  0.43846868  0.37243333  1  -1.240611  0  -0.23212  -0.08149  0  3.692444  0
N  N193  1  0.90978600  0.34825470  0.20576383  1  -1.249696  0  -0.232115  -0.08141  0  3.692569  0
N  N194  1  0.56153124  0.90978404  0.03910276  1  -1.249816  0  -0.232137  -0.081564  0  3.692665  0
N  N195  1  0.65174658  0.56153153  0.87243337  1  -1.240577  0  -0.232106  -0.081506  0  3.692458  0
N  N196  1  0.09021390  0.65174583  0.70576398  1  -1.249682  0  -0.232103  -0.081431  0  3.692578  0
N  N197  1  0.43846905  0.09021605  0.53910272  1  -1.249829  0  -0.232088  -0.081496  0  3.692706  0
O  O198  1  0.07375759  0.21983692  0.62946667  1  -1.171784  0  -0.381686  -0.609088  0  2.261708  0
O  O199  1  0.85392024  0.07376045  0.46279922  1  -1.168657  0  -0.381732  -0.609162  0  2.261687  0
O  O200  1  0.78016065  0.85391992  0.29613608  1  -1.169429  0  -0.381689  -0.609114  0  2.261878  0
O  O201  1  0.92624270  0.78016320  0.12946662  1  -1.171781  0  -0.38167  -0.609062  0  2.2617  0
O  O202  1  0.14608002  0.92623979  0.96279942  1  -1.168664  0  -0.381739  -0.609173  0  2.261672  0
O  O203  1  0.21983925  0.14608064  0.79613609  1  -1.169427  0  -0.381718  -0.609118  0  2.261832  0
O  O204  1  0.00841716  0.08866689  0.55919041  1  -1.23369  0  -0.444679  -0.770797  0  2.383231  0
O  O205  1  0.91974919  0.00841754  0.39252296  1  -1.232816  0  -0.444654  -0.770734  0  2.383178  0
O  O206  1  0.91133068  0.91974769  0.22585932  1  -1.230965  0  -0.444614  -0.770661  0  2.383097  0
O  O207  1  0.99158313  0.91133321  0.05919038  1  -1.233715  0  -0.444686  -0.770787  0  2.38324  0
O  O208  1  0.08025005  0.99158240  0.89252319  1  -1.232826  0  -0.444657  -0.770751  0  2.383169  0
O  O209  1  0.08866960  0.08025247  0.72585985  1  -1.231155  0  -0.444591  -0.770639  0  2.383178  0
O  O210  1  0.10124939  0.08192768  0.16035802  1  -1.226556  0  -0.436503  -0.75793  0  2.371962  0
O  O211  1  0.01932181  0.10124896  0.99368402  1  -1.219798  0  -0.436445  -0.757946  0  2.372112  0
O  O212  1  0.91807120  0.01932070  0.82702589  1  -1.219339  0  -0.436535  -0.758009  0  2.371977  0
O  O213  1  0.89875024  0.91807181  0.66035810  1  -1.226553  0  -0.43653  -0.757959  0  2.372029  0
O  O214  1  0.98067780  0.89875064  0.49368451  1  -1.219909  0  -0.436455  -0.757925  0  2.37203  0
O  O215  1  0.08192944  0.98067912  0.32702601  1  -1.219135  0  -0.436513  -0.757971  0  2.372019  0
O  O216  1  0.21608409  0.19580437  0.09008178  1  -1.175355  0  -0.386939  -0.616793  0  2.214624  0
O  O217  1  0.02027801  0.21608882  0.92341297  1  -1.176713  0  -0.38688  -0.616673  0  2.214415  0
O  O218  1  0.80419385  0.02027752  0.75675121  1  -1.175466  0  -0.387011  -0.616894  0  2.214578  0
O  O219  1  0.78391620  0.80419574  0.59008185  1  -1.175363  0  -0.38694  -0.616797  0  2.214611  0
O  O220  1  0.97972226  0.78391141  0.42341291  1  -1.176753  0  -0.386893  -0.616698  0  2.214418  0
O  O221  1  0.19580642  0.97972265  0.25675131  1  -1.175466  0  -0.387013  -0.616889  0  2.21453  0
O  O222  1  0.78974586  0.80334677  0.43540785  1  -1.206432  0  -0.447595  -0.749278  0  2.381864  0
O  O223  1  0.98640142  0.78974626  0.26874046  1  -1.217655  0  -0.447618  -0.749303  0  2.381902  0
O  O224  1  0.19665196  0.98639875  0.10207472  1  -1.208655  0  -0.447598  -0.74928  0  2.381806  0
O  O225  1  0.21025375  0.19665280  0.93540787  1  -1.206459  0  -0.447585  -0.749275  0  2.38189  0
O  O226  1  0.01359886  0.21025391  0.76874052  1  -1.217647  0  -0.447618  -0.749312  0  2.381912  0
O  O227  1  0.80334731  0.01360110  0.60207461  1  -1.208637  0  -0.447593  -0.749254  0  2.381804  0
O  O228  1  0.69690011  0.86402147  0.47682869  1  -1.165652  0  -0.360984  -0.601843  0  2.206906  0
O  O229  1  0.83288059  0.69690022  0.31016077  1  -1.165129  0  -0.360932  -0.601778  0  2.206949  0
O  O230  1  0.13598153  0.83288116  0.14349967  1  -1.177983  0  -0.361012  -0.601891  0  2.206917  0
O  O231  1  0.30310015  0.13597877  0.97682920  1  -1.165637  0  -0.360981  -0.601866  0  2.206875  0
O  O232  1  0.16711903  0.30309932  0.81016082  1  -1.165125  0  -0.360926  -0.601765  0  2.206943  0
O  O233  1  0.86401876  0.16711897  0.64349959  1  -1.17799  0  -0.36099  -0.601842  0  2.206921  0
