# generated using pymatgen
data_CuAs2H10C5INO2
_symmetry_space_group_name_H-M   'P 1'
_cell_length_a   7.84388640
_cell_length_b   8.75476589
_cell_length_c   9.01200688
_cell_angle_alpha   63.82163051
_cell_angle_beta   84.48631668
_cell_angle_gamma   68.55475662
_symmetry_Int_Tables_number   1
_chemical_formula_structural   CuAs2H10C5INO2
_chemical_formula_sum   'Cu2 As4 H20 C10 I2 N2 O4'
_cell_volume   515.35806785
_cell_formula_units_Z   2
loop_
 _symmetry_equiv_pos_site_id
 _symmetry_equiv_pos_as_xyz
  1  'x, y, z'
loop_
 _atom_site_type_symbol
 _atom_site_label
 _atom_site_symmetry_multiplicity
 _atom_site_fract_x
 _atom_site_fract_y
 _atom_site_fract_z
 _atom_site_occupancy
 _atom_site_pbe_bader_spin_density
 _atom_site_pbe_cm5_charge
 _atom_site_pbe_ddec_charge
 _atom_site_pbe_ddec_spin_density
 _atom_site_pbe_ddec_sum_bond_order
 _atom_site_pbe_magmom
Cu  Cu0  1  0.44704174  0.17436193  0.83756186  1  0  0.284355  0.038637  0  2.844313  0
Cu  Cu1  1  0.55295648  0.82564067  0.16243761  1  0  0.284366  0.038621  0  2.844468  0
As  As2  1  0.65937442  0.23805161  0.64114568  1  0  0.294766  0.786917  0  3.885548  0
As  As3  1  0.34063053  0.76195365  0.35885318  1  0  0.294823  0.78696  0  3.885444  0
As  As4  1  0.41131587  0.41740504  0.29127830  1  0  0.363759  0.769615  0  3.239253  0
As  As5  1  0.58868029  0.58259615  0.70871640  1  0  0.363859  0.769779  0  3.238979  0
H  H6  1  0.97225961  0.04108625  0.79072267  1  0  0.081326  0.155199  0  1.048853  0
H  H7  1  0.02773494  0.95891225  0.20927444  1  0  0.08128  0.155119  0  1.048916  0
H  H8  1  0.98740685  0.12934126  0.57019730  1  0  0.094317  0.174671  0  1.009725  0
H  H9  1  0.01259252  0.87065449  0.42980172  1  0  0.094313  0.174652  0  1.009746  0
H  H10  1  0.91176576  0.94007390  0.67954024  1  0  0.094496  0.170863  0  1.023166  0
H  H11  1  0.08823797  0.05992042  0.32045683  1  0  0.094533  0.170915  0  1.023171  0
H  H12  1  0.14319513  0.30869509  0.37637932  1  0  0.085261  0.157574  0  1.045844  0
H  H13  1  0.85679604  0.69130212  0.62362196  1  0  0.085266  0.157617  0  1.045877  0
H  H14  1  0.34766342  0.12648457  0.38045100  1  0  0.080542  0.158565  0  1.046989  0
H  H15  1  0.65233097  0.87351800  0.61954324  1  0  0.080555  0.158617  0  1.046941  0
H  H16  1  0.31523797  0.18921645  0.54865567  1  0  0.071891  0.140942  0  1.09627  0
H  H17  1  0.68476239  0.81078737  0.45133200  1  0  0.071895  0.140936  0  1.096207  0
H  H18  1  0.21978451  0.49166745  0.66213341  1  0  0.288773  0.282974  0  0.985701  0
H  H19  1  0.78020825  0.50832163  0.33787571  1  0  0.28868  0.282902  0  0.985774  0
H  H20  1  0.11392314  0.34507527  0.71194794  1  0  0.300549  0.297955  0  0.915208  0
H  H21  1  0.88607761  0.65491656  0.28806822  1  0  0.30052  0.297878  0  0.915369  0
H  H22  1  0.21847672  0.64348447  0.83496657  1  0  0.090101  0.105316  0  1.069777  0
H  H23  1  0.78152062  0.35651691  0.16504571  1  0  0.09008  0.105341  0  1.069539  0
H  H24  1  0.94590506  0.26046773  0.95537219  1  0  0.091352  0.101386  0  1.038284  0
H  H25  1  0.05408718  0.73953363  0.04463497  1  0  0.091375  0.101484  0  1.038477  0
C  C26  1  0.91127529  0.06790047  0.67327558  1  0  -0.28776  -0.57897  0  3.750425  0
C  C27  1  0.08872489  0.93209662  0.32672168  1  0  -0.287757  -0.578926  0  3.750524  0
C  C28  1  0.29034693  0.23982381  0.41469158  1  0  -0.304332  -0.610873  0  3.763609  0
C  C29  1  0.70965180  0.76017737  0.58530402  1  0  -0.304342  -0.610974  0  3.763522  0
C  C30  1  0.09356501  0.44581915  0.87984175  1  0  0.066646  0.247806  0  4.021541  0
C  C31  1  0.90643645  0.55416712  0.12016678  1  0  0.066576  0.247749  0  4.021527  0
C  C32  1  0.12324795  0.57966271  0.90748662  1  0  -0.106066  -0.180775  0  3.998256  0
C  C33  1  0.87676296  0.42034383  0.09250787  1  0  -0.105924  -0.180709  0  3.998903  0
C  C34  1  0.96993930  0.36640171  0.97385125  1  0  -0.105282  -0.182631  0  4.012271  0
C  C35  1  0.03006039  0.63361465  0.02615763  1  0  -0.105188  -0.182623  0  4.011868  0
I  I36  1  0.38520345  0.87906386  0.89921094  1  0  -0.172565  -0.356454  0  2.138734  0
I  I37  1  0.61481281  0.12092764  0.10078743  1  0  -0.172569  -0.356453  0  2.13877  0
N  N38  1  0.19001033  0.38863464  0.75946674  1  0  -0.625405  -0.526775  0  3.486105  0
N  N39  1  0.80999019  0.61138304  0.24053818  1  0  -0.625283  -0.52662  0  3.485871  0
O  O40  1  0.63097897  0.29942272  0.42083802  1  0  -0.342011  -0.568741  0  2.178481  0
O  O41  1  0.36901687  0.70058660  0.57914873  1  0  -0.342053  -0.568753  0  2.178507  0
O  O42  1  0.72229106  0.43221953  0.60906067  1  0  -0.34484  -0.583353  0  2.14148  0
O  O43  1  0.27770294  0.56777341  0.39092671  1  0  -0.344876  -0.58336  0  2.141272  0
