# generated using pymatgen
data_CdH14C16(N3O)4
_symmetry_space_group_name_H-M   'P 1'
_cell_length_a   4.93151441
_cell_length_b   12.15269463
_cell_length_c   16.61475450
_cell_angle_alpha   89.99974535
_cell_angle_beta   97.42294624
_cell_angle_gamma   89.99972407
_symmetry_Int_Tables_number   1
_chemical_formula_structural   CdH14C16(N3O)4
_chemical_formula_sum   'Cd2 H28 C32 N24 O8'
_cell_volume   987.39717319
_cell_formula_units_Z   2
loop_
 _symmetry_equiv_pos_site_id
 _symmetry_equiv_pos_as_xyz
  1  'x, y, z'
loop_
 _atom_site_type_symbol
 _atom_site_label
 _atom_site_symmetry_multiplicity
 _atom_site_fract_x
 _atom_site_fract_y
 _atom_site_fract_z
 _atom_site_occupancy
 _atom_site_hle17_bader_spin_density
 _atom_site_hle17_ddec_charge
 _atom_site_hle17_ddec_spin_density
 _atom_site_hle17_ddec_sum_bond_order
 _atom_site_hle17_magmom
 _atom_site_hse06_10hf_bader_spin_density
 _atom_site_hse06_10hf_ddec_charge
 _atom_site_hse06_10hf_ddec_spin_density
 _atom_site_hse06_10hf_ddec_sum_bond_order
 _atom_site_hse06_10hf_magmom
 _atom_site_hse06_bader_spin_density
 _atom_site_hse06_ddec_charge
 _atom_site_hse06_ddec_spin_density
 _atom_site_hse06_ddec_sum_bond_order
 _atom_site_hse06_magmom
 _atom_site_pbe_bader_spin_density
 _atom_site_pbe_cm5_charge
 _atom_site_pbe_ddec_charge
 _atom_site_pbe_ddec_spin_density
 _atom_site_pbe_ddec_sum_bond_order
 _atom_site_pbe_magmom
Cd  Cd0  1  0.00000170  0.99999906  0.99999926  1  0  1.176165  0  1.664867  0  0  0.983459  0  2.119212  0  0  1.039857  0  2.065432  0  0  0.786968  0.943005  0  2.156032  0
Cd  Cd1  1  0.49999788  0.49999904  0.50000005  1  0  1.176104  0  1.664906  0  0  0.983383  0  2.119267  0  0  1.039787  0  2.065486  0  0  0.786973  0.94293  0  2.15609  0
H  H2  1  0.32098554  0.74709686  0.43816304  1  0  0.102462  0  0.932852  0  0  0.106434  0  1.000219  0  0  0.109217  0  0.998383  0  0  0.125189  0.104453  0  1.00159  0
H  H3  1  0.17901307  0.24709792  0.06183684  1  0  0.102479  0  0.932775  0  0  0.106458  0  1.00016  0  0  0.109242  0  0.998321  0  0  0.125183  0.104469  0  1.001535  0
H  H4  1  0.67900609  0.25290451  0.56183991  1  0  0.10242  0  0.932972  0  0  0.106368  0  1.000356  0  0  0.109149  0  0.99852  0  0  0.125177  0.104386  0  1.001727  0
H  H5  1  0.82098883  0.75290098  0.93816230  1  0  0.102496  0  0.932863  0  0  0.106475  0  1.000238  0  0  0.109256  0  0.998402  0  0  0.125208  0.104487  0  1.001611  0
H  H6  1  0.98993821  0.13479206  0.31337029  1  0  0.089718  0  0.935622  0  0  0.096633  0  0.998662  0  0  0.099169  0  0.997653  0  0  0.119317  0.094765  0  0.999539  0
H  H7  1  0.51007230  0.63478820  0.18663511  1  0  0.089783  0  0.935744  0  0  0.096694  0  0.99877  0  0  0.09923  0  0.99776  0  0  0.11931  0.094822  0  0.999653  0
H  H8  1  0.01006164  0.86520520  0.68662877  1  0  0.089731  0  0.93554  0  0  0.096636  0  0.998603  0  0  0.099173  0  0.997594  0  0  0.119318  0.094749  0  0.999499  0
H  H9  1  0.48994184  0.36520906  0.81336752  1  0  0.08977  0  0.935661  0  0  0.096669  0  0.998703  0  0  0.099206  0  0.997693  0  0  0.119332  0.094787  0  0.999596  0
H  H10  1  0.47109591  0.89872324  0.14317012  1  0  0.111287  0  0.974725  0  0  0.11541  0  1.041366  0  0  0.119424  0  1.038024  0  0  0.121293  0.112403  0  1.043901  0
H  H11  1  0.02890269  0.39872363  0.35682987  1  0  0.111276  0  0.974767  0  0  0.115412  0  1.0414  0  0  0.119422  0  1.038063  0  0  0.121292  0.112439  0  1.043895  0
H  H12  1  0.52890802  0.10127566  0.85683030  1  0  0.11132  0  0.974674  0  0  0.115442  0  1.04131  0  0  0.119451  0  1.037974  0  0  0.12131  0.112436  0  1.043845  0
H  H13  1  0.97109717  0.60127939  0.64316858  1  0  0.111286  0  0.974691  0  0  0.115419  0  1.041333  0  0  0.119428  0  1.037997  0  0  0.121304  0.112447  0  1.043825  0
H  H14  1  0.85528940  0.12576502  0.16224391  1  0  0.086354  0  0.979857  0  0  0.087753  0  1.053068  0  0  0.090137  0  1.052573  0  0  0.115262  0.085997  0  1.053581  0
H  H15  1  0.64470896  0.62576327  0.33776104  1  0  0.086378  0  0.97984  0  0  0.087741  0  1.053119  0  0  0.090123  0  1.052625  0  0  0.115219  0.08598  0  1.053636  0
H  H16  1  0.14471045  0.87423141  0.83775515  1  0  0.086355  0  0.979866  0  0  0.087743  0  1.053088  0  0  0.090128  0  1.052588  0  0  0.115244  0.085986  0  1.0536  0
H  H17  1  0.35529290  0.37423728  0.66224171  1  0  0.086371  0  0.979863  0  0  0.08776  0  1.053098  0  0  0.090144  0  1.052601  0  0  0.115251  0.086002  0  1.053613  0
H  H18  1  0.28036209  0.93309416  0.49814095  1  0  0.124374  0  0.945534  0  0  0.139753  0  1.017105  0  0  0.141908  0  1.015737  0  0  0.097317  0.138216  0  1.018068  0
H  H19  1  0.21963604  0.43309468  0.00185891  1  0  0.124363  0  0.945521  0  0  0.139737  0  1.017105  0  0  0.141894  0  1.01573  0  0  0.097314  0.138202  0  1.018068  0
H  H20  1  0.71963980  0.06690640  0.50185879  1  0  0.124389  0  0.945512  0  0  0.139744  0  1.017124  0  0  0.14191  0  1.015726  0  0  0.097318  0.138208  0  1.018085  0
H  H21  1  0.78035971  0.56690588  0.99814179  1  0  0.124389  0  0.945531  0  0  0.139759  0  1.017126  0  0  0.141919  0  1.015743  0  0  0.097322  0.138222  0  1.01809  0
H  H22  1  0.31015137  0.82895485  0.57381080  1  0  0.126547  0  0.931736  0  0  0.146958  0  0.991564  0  0  0.149131  0  0.990247  0  0  0.0978  0.145339  0  0.992589  0
H  H23  1  0.18984644  0.32895615  0.92618900  1  0  0.126534  0  0.931659  0  0  0.146929  0  0.991508  0  0  0.149101  0  0.990192  0  0  0.097803  0.145311  0  0.992535  0
H  H24  1  0.68984847  0.17104570  0.42618946  1  0  0.126568  0  0.931713  0  0  0.146982  0  0.991532  0  0  0.149153  0  0.990216  0  0  0.097826  0.14536  0  0.992559  0
H  H25  1  0.81015749  0.67104358  0.07381142  1  0  0.12653  0  0.931675  0  0  0.146928  0  0.991522  0  0  0.1491  0  0.990206  0  0  0.097801  0.145309  0  0.992548  0
H  H26  1  0.98458203  0.89067723  0.54128187  1  0  0.115697  0  0.946905  0  0  0.134664  0  1.01072  0  0  0.136177  0  1.010445  0  0  0.095041  0.133559  0  1.010932  0
H  H27  1  0.51541512  0.39067702  0.95871877  1  0  0.115636  0  0.946997  0  0  0.134642  0  1.010759  0  0  0.136157  0  1.010482  0  0  0.095026  0.13354  0  1.010972  0
H  H28  1  0.01541778  0.10932826  0.45872140  1  0  0.115682  0  0.946936  0  0  0.134652  0  1.010737  0  0  0.136164  0  1.010465  0  0  0.095063  0.133547  0  1.010951  0
H  H29  1  0.48458268  0.60932270  0.04128081  1  0  0.115659  0  0.946956  0  0  0.134644  0  1.01074  0  0  0.136159  0  1.010465  0  0  0.095029  0.133541  0  1.010953  0
C  C30  1  0.99149826  0.67101169  0.49140159  1  0  0.663686  0  3.855061  0  0  0.612029  0  4.154982  0  0  0.64561  0  4.148759  0  0  0.217084  0.589143  0  4.158348  0
C  C31  1  0.50852405  0.17101505  0.00860114  1  0  0.663806  0  3.854891  0  0  0.612251  0  4.154686  0  0  0.645834  0  4.148462  0  0  0.217148  0.58936  0  4.158066  0
C  C32  1  0.00850156  0.32898804  0.50860108  1  0  0.663798  0  3.855008  0  0  0.612238  0  4.15474  0  0  0.645817  0  4.148514  0  0  0.217163  0.589356  0  4.15811  0
C  C33  1  0.49147580  0.82898386  0.99139732  1  0  0.663879  0  3.854757  0  0  0.61233  0  4.154525  0  0  0.64591  0  4.148301  0  0  0.217182  0.58944  0  4.157903  0
C  C34  1  0.43198445  0.95374116  0.26601610  1  0  0.115432  0  3.792074  0  0  0.122468  0  4.03837  0  0  0.123067  0  4.058992  0  0  0.129069  0.121734  0  4.024664  0
C  C35  1  0.06801954  0.45373892  0.23398272  1  0  0.115348  0  3.792257  0  0  0.122389  0  4.038548  0  0  0.122988  0  4.059172  0  0  0.129067  0.121654  0  4.024854  0
C  C36  1  0.56801336  0.04625857  0.73398288  1  0  0.115413  0  3.792111  0  0  0.122453  0  4.03836  0  0  0.123049  0  4.058981  0  0  0.129072  0.121716  0  4.024656  0
C  C37  1  0.93198441  0.54626163  0.76601530  1  0  0.115285  0  3.792134  0  0  0.122333  0  4.038436  0  0  0.122934  0  4.059058  0  0  0.129052  0.1216  0  4.024743  0
C  C38  1  0.12601697  0.77278430  0.45743202  1  0  -0.023485  0  3.605013  0  0  -0.038891  0  3.849833  0  0  -0.040602  0  3.860632  0  0  0.02282  -0.037731  0  3.842503  0
C  C39  1  0.37398334  0.27278263  0.04256724  1  0  -0.023545  0  3.605138  0  0  -0.039026  0  3.85002  0  0  -0.040742  0  3.860826  0  0  0.022835  -0.037846  0  3.84269  0
C  C40  1  0.87396856  0.22722118  0.54256828  1  0  -0.023448  0  3.605243  0  0  -0.038799  0  3.849915  0  0  -0.040505  0  3.860716  0  0  0.02281  -0.03764  0  3.842583  0
C  C41  1  0.62601651  0.72721874  0.95743182  1  0  -0.023539  0  3.605118  0  0  -0.03902  0  3.850004  0  0  -0.040731  0  3.860807  0  0  0.022791  -0.037843  0  3.842674  0
C  C42  1  0.09818077  0.08033681  0.27614181  1  0  0.076462  0  3.704664  0  0  0.052661  0  3.97217  0  0  0.053165  0  3.989064  0  0  0.054716  0.052209  0  3.960847  0
C  C43  1  0.40183441  0.58033524  0.22385986  1  0  0.07617  0  3.704841  0  0  0.052394  0  3.972331  0  0  0.0529  0  3.989223  0  0  0.054561  0.051938  0  3.961018  0
C  C44  1  0.90182522  0.91966210  0.72385688  1  0  0.076417  0  3.704523  0  0  0.052612  0  3.972047  0  0  0.053116  0  3.98894  0  0  0.054657  0.052176  0  3.960729  0
C  C45  1  0.59817976  0.41966119  0.77613916  1  0  0.0763  0  3.704721  0  0  0.052554  0  3.972186  0  0  0.053059  0  3.989079  0  0  0.054607  0.052111  0  3.960873  0
C  C46  1  0.65799014  0.88518649  0.30309602  1  0  0.203188  0  3.80614  0  0  0.182182  0  4.087082  0  0  0.187935  0  4.105148  0  0  0.218671  0.178307  0  4.075022  0
C  C47  1  0.84201086  0.38518970  0.19690578  1  0  0.203162  0  3.806273  0  0  0.182184  0  4.08717  0  0  0.187935  0  4.105242  0  0  0.218661  0.178309  0  4.075111  0
C  C48  1  0.34200562  0.11481077  0.69690288  1  0  0.203117  0  3.806203  0  0  0.182177  0  4.087067  0  0  0.18794  0  4.10512  0  0  0.218651  0.178304  0  4.075006  0
C  C49  1  0.15799308  0.61481250  0.80309403  1  0  0.203152  0  3.80628  0  0  0.182183  0  4.08716  0  0  0.18793  0  4.105238  0  0  0.218664  0.178307  0  4.075103  0
C  C50  1  0.35894518  0.94965927  0.18151906  1  0  0.067681  0  3.617901  0  0  0.029607  0  3.865802  0  0  0.033169  0  3.88163  0  0  0.059627  0.027322  0  3.8552  0
C  C51  1  0.14104656  0.44965555  0.31848410  1  0  0.067669  0  3.617694  0  0  0.029522  0  3.865666  0  0  0.033088  0  3.881496  0  0  0.05955  0.027209  0  3.855057  0
C  C52  1  0.64105672  0.05033882  0.81847947  1  0  0.067667  0  3.617948  0  0  0.02961  0  3.865814  0  0  0.033176  0  3.881645  0  0  0.059612  0.027326  0  3.855212  0
C  C53  1  0.85894919  0.55034418  0.68151540  1  0  0.067751  0  3.617732  0  0  0.029615  0  3.865687  0  0  0.033184  0  3.881516  0  0  0.059602  0.027306  0  3.855071  0
C  C54  1  0.02169137  0.07617592  0.19230632  1  0  0.07978  0  3.680831  0  0  0.042779  0  3.948895  0  0  0.046651  0  3.967012  0  0  0.047304  0.039782  0  3.937411  0
C  C55  1  0.47830951  0.57617288  0.30769962  1  0  0.079856  0  3.681009  0  0  0.042828  0  3.949126  0  0  0.046703  0  3.967241  0  0  0.047482  0.039861  0  3.937583  0
C  C56  1  0.97830848  0.92382217  0.80769274  1  0  0.079759  0  3.680931  0  0  0.042787  0  3.948971  0  0  0.04666  0  3.967087  0  0  0.047342  0.03979  0  3.93748  0
C  C57  1  0.52169644  0.42382521  0.69230328  1  0  0.07978  0  3.681091  0  0  0.042744  0  3.949174  0  0  0.046617  0  3.967292  0  0  0.047398  0.039765  0  3.937654  0
C  C58  1  0.17688363  0.86253535  0.52168858  1  0  -0.314872  0  3.662387  0  0  -0.402091  0  3.909029  0  0  -0.403672  0  3.916613  0  0  -0.237243  -0.400705  0  3.903766  0
C  C59  1  0.32311371  0.36253525  0.97831169  1  0  -0.314769  0  3.662373  0  0  -0.401985  0  3.908991  0  0  -0.403565  0  3.916577  0  0  -0.23723  -0.40061  0  3.903734  0
C  C60  1  0.82311006  0.13746850  0.47831325  1  0  -0.314914  0  3.662432  0  0  -0.402138  0  3.90906  0  0  -0.403713  0  3.916641  0  0  -0.2373  -0.400754  0  3.903801  0
C  C61  1  0.67688613  0.63746531  0.02168797  1  0  -0.314819  0  3.662346  0  0  -0.402032  0  3.908983  0  0  -0.40361  0  3.916567  0  0  -0.237243  -0.400656  0  3.903726  0
N  N62  1  0.15354492  0.01098463  0.14496263  1  0  -0.278699  0  3.209573  0  0  -0.208874  0  3.480132  0  0  -0.224294  0  3.497038  0  0  -0.303342  -0.1981  0  3.468382  0
N  N63  1  0.34646097  0.51098403  0.35504010  1  0  -0.278613  0  3.209565  0  0  -0.208713  0  3.480105  0  0  -0.224134  0  3.497013  0  0  -0.303321  -0.197943  0  3.468367  0
N  N64  1  0.84645901  0.98901345  0.85503719  1  0  -0.2787  0  3.209588  0  0  -0.208887  0  3.480119  0  0  -0.224308  0  3.497025  0  0  -0.303373  -0.198113  0  3.468369  0
N  N65  1  0.65354093  0.48901488  0.64495964  1  0  -0.278609  0  3.209519  0  0  -0.208729  0  3.480067  0  0  -0.224149  0  3.496973  0  0  -0.303325  -0.197955  0  3.468325  0
N  N66  1  0.30207761  0.01955327  0.31377147  1  0  -0.259975  0  3.004082  0  0  -0.238099  0  3.266103  0  0  -0.243564  0  3.280702  0  0  -0.289825  -0.234135  0  3.256254  0
N  N67  1  0.19792408  0.51954904  0.18623107  1  0  -0.259813  0  3.004251  0  0  -0.237922  0  3.266244  0  0  -0.243388  0  3.280846  0  0  -0.289733  -0.233961  0  3.2564  0
N  N68  1  0.69792225  0.98044564  0.68622698  1  0  -0.259925  0  3.003895  0  0  -0.238067  0  3.265929  0  0  -0.243532  0  3.28053  0  0  -0.289755  -0.234101  0  3.256073  0
N  N69  1  0.80209007  0.48045069  0.81377096  1  0  -0.259877  0  3.003879  0  0  -0.238022  0  3.265873  0  0  -0.243487  0  3.280472  0  0  -0.289775  -0.234059  0  3.256024  0
N  N70  1  0.95900785  0.81210997  0.38404693  1  0  0.20782  0  3.51409  0  0  0.253352  0  3.795047  0  0  0.249976  0  3.815597  0  0  0.001657  0.255331  0  3.781415  0
N  N71  1  0.54099007  0.31210933  0.11595198  1  0  0.207709  0  3.514099  0  0  0.253256  0  3.795074  0  0  0.249881  0  3.815626  0  0  0.001596  0.255226  0  3.781451  0
N  N72  1  0.04098584  0.18789222  0.61595429  1  0  0.207638  0  3.514076  0  0  0.253171  0  3.795029  0  0  0.249793  0  3.815583  0  0  0.001648  0.255151  0  3.781399  0
N  N73  1  0.45901182  0.68789040  0.88404716  1  0  0.207628  0  3.514126  0  0  0.253169  0  3.795108  0  0  0.249793  0  3.815659  0  0  0.001575  0.255141  0  3.781482  0
N  N74  1  0.75438001  0.88296936  0.38252838  1  0  -0.237746  0  2.792133  0  0  -0.227013  0  3.060784  0  0  -0.231973  0  3.073392  0  0  -0.170216  -0.223647  0  3.052468  0
N  N75  1  0.74561695  0.38297077  0.11747087  1  0  -0.23766  0  2.791971  0  0  -0.226939  0  3.060623  0  0  -0.231899  0  3.073233  0  0  -0.170194  -0.223572  0  3.05231  0
N  N76  1  0.24561166  0.11703119  0.61747036  1  0  -0.237588  0  2.791985  0  0  -0.226918  0  3.06066  0  0  -0.231881  0  3.073267  0  0  -0.170205  -0.223553  0  3.052344  0
N  N77  1  0.25438290  0.61703060  0.88252879  1  0  -0.237597  0  2.792043  0  0  -0.226883  0  3.060696  0  0  -0.231841  0  3.073306  0  0  -0.170179  -0.223517  0  3.052383  0
N  N78  1  0.80087775  0.81650706  0.25896996  1  0  -0.254588  0  2.942899  0  0  -0.239666  0  3.2345  0  0  -0.246313  0  3.245608  0  0  -0.194441  -0.235071  0  3.22689  0
N  N79  1  0.69912011  0.31650864  0.24103014  1  0  -0.254607  0  2.942944  0  0  -0.239688  0  3.23454  0  0  -0.246334  0  3.24565  0  0  -0.194407  -0.235093  0  3.226929  0
N  N80  1  0.19912617  0.18349267  0.74103167  1  0  -0.254503  0  2.942797  0  0  -0.239587  0  3.234368  0  0  -0.246238  0  3.245476  0  0  -0.194355  -0.234992  0  3.226755  0
N  N81  1  0.30087974  0.68349273  0.75896892  1  0  -0.254609  0  2.942913  0  0  -0.239694  0  3.23451  0  0  -0.24634  0  3.245621  0  0  -0.194419  -0.235098  0  3.226897  0
N  N82  1  0.99084102  0.77033753  0.31100182  1  0  -0.111382  0  2.860842  0  0  -0.112182  0  3.15714  0  0  -0.109424  0  3.167672  0  0  -0.076392  -0.113678  0  3.149991  0
N  N83  1  0.50915745  0.27033815  0.18899905  1  0  -0.111304  0  2.860764  0  0  -0.112105  0  3.157062  0  0  -0.109347  0  3.167595  0  0  -0.076367  -0.113596  0  3.14991  0
N  N84  1  0.00915675  0.22966384  0.68900076  1  0  -0.111374  0  2.860878  0  0  -0.112182  0  3.15718  0  0  -0.109424  0  3.167716  0  0  -0.076435  -0.113676  0  3.15003  0
N  N85  1  0.49084853  0.72966158  0.81100025  1  0  -0.111284  0  2.860735  0  0  -0.112083  0  3.157034  0  0  -0.109324  0  3.167564  0  0  -0.076348  -0.113574  0  3.149881  0
O  O86  1  0.14916184  0.60705125  0.53545764  1  0  -0.646424  0  2.067729  0  0  -0.584878  0  2.331918  0  0  -0.613206  0  2.319905  0  0  -0.328656  -0.56465  0  2.339264  0
O  O87  1  0.35083084  0.10704954  0.96453726  1  0  -0.646541  0  2.067133  0  0  -0.585061  0  2.331334  0  0  -0.6134  0  2.319322  0  0  -0.328718  -0.564799  0  2.338628  0
O  O88  1  0.85083598  0.39295012  0.46453893  1  0  -0.646495  0  2.067532  0  0  -0.585015  0  2.331727  0  0  -0.61335  0  2.319717  0  0  -0.328681  -0.564765  0  2.339023  0
O  O89  1  0.64916901  0.89295019  0.03546179  1  0  -0.646559  0  2.067083  0  0  -0.585061  0  2.331253  0  0  -0.6134  0  2.319243  0  0  -0.328701  -0.564801  0  2.338546  0
O  O90  1  0.73405509  0.66112118  0.47581607  1  0  -0.631395  0  2.028159  0  0  -0.562691  0  2.276107  0  0  -0.591593  0  2.266266  0  0  -0.315567  -0.542343  0  2.282095  0
O  O91  1  0.76593262  0.16112147  0.02418233  1  0  -0.631388  0  2.028517  0  0  -0.562721  0  2.276459  0  0  -0.591608  0  2.266595  0  0  -0.315556  -0.542379  0  2.282455  0
O  O92  1  0.26593247  0.33887773  0.52418492  1  0  -0.631393  0  2.028214  0  0  -0.562741  0  2.276124  0  0  -0.59165  0  2.266309  0  0  -0.315594  -0.542397  0  2.282113  0
O  O93  1  0.23406723  0.83887826  0.97581733  1  0  -0.631435  0  2.028513  0  0  -0.562757  0  2.276413  0  0  -0.591651  0  2.26657  0  0  -0.315588  -0.542415  0  2.282408  0
