# generated using pymatgen
data_Zn2H13C24N3O10
_symmetry_space_group_name_H-M   'P 1'
_cell_length_a   9.61526562
_cell_length_b   11.02584035
_cell_length_c   29.03586732
_cell_angle_alpha   90.16229918
_cell_angle_beta   90.14961993
_cell_angle_gamma   89.97700626
_symmetry_Int_Tables_number   1
_chemical_formula_structural   Zn2H13C24N3O10
_chemical_formula_sum   'Zn4 H26 C48 N6 O20'
_cell_volume   3078.25456356
_cell_formula_units_Z   2
loop_
 _symmetry_equiv_pos_site_id
 _symmetry_equiv_pos_as_xyz
  1  'x, y, z'
loop_
 _atom_site_type_symbol
 _atom_site_label
 _atom_site_symmetry_multiplicity
 _atom_site_fract_x
 _atom_site_fract_y
 _atom_site_fract_z
 _atom_site_occupancy
 _atom_site_pbe_bader_charge
 _atom_site_pbe_bader_spin_density
 _atom_site_pbe_cm5_charge
 _atom_site_pbe_ddec_charge
 _atom_site_pbe_ddec_spin_density
 _atom_site_pbe_ddec_sum_bond_order
 _atom_site_pbe_magmom
Zn  Zn0  1  0.64222442  0.49823818  0.49897442  1  1.251641  0  0.664457  0.805455  0  2.446906  0
Zn  Zn1  1  0.35720775  0.49802858  0.49839071  1  1.275857  0  0.666833  0.808553  0  2.447202  0
Zn  Zn2  1  0.35807324  0.50079029  0.11813567  1  1.252802  0  0.664481  0.805244  0  2.449077  0
Zn  Zn3  1  0.64310685  0.50032237  0.11870667  1  1.279786  0  0.66705  0.809652  0  2.447394  0
H  H4  1  0.86643772  0.36364081  0.44870255  1  0.143927  0  0.141636  0.122455  0  0.957251  0
H  H5  1  0.13263730  0.63264183  0.54943748  1  0.182364  0  0.137818  0.12453  0  0.983274  0
H  H6  1  0.13359401  0.36399267  0.44891178  1  0.144817  0  0.141681  0.123073  0  0.958861  0
H  H7  1  0.86634126  0.63241415  0.54898147  1  0.12255  0  0.142853  0.124595  0  0.955628  0
H  H8  1  0.27377757  0.11119081  0.49901869  1  0.083648  0  0.102147  0.104643  0  1.00428  0
H  H9  1  0.72127641  0.88506312  0.50017916  1  0.101098  0  0.101629  0.104592  0  1.004406  0
H  H10  1  0.27510565  0.88327679  0.50128257  1  0.089965  0  0.102864  0.106431  0  1.002288  0
H  H11  1  0.71996779  0.11299631  0.49953674  1  0.070867  0  0.101856  0.104819  0  1.006147  0
H  H12  1  0.27916187  0.49662627  0.97058951  1  0.128911  0  0.114876  0.122795  0  0.986002  0
H  H13  1  0.27574042  0.49578501  0.88452196  1  0.093083  0  0.112703  0.116785  0  0.979094  0
H  H14  1  0.72497886  0.50452687  0.88445631  1  0.10192  0  0.120093  0.134641  0  0.971417  0
H  H15  1  0.27520682  0.50457508  0.73276678  1  0.101705  0  0.119701  0.134667  0  0.970323  0
H  H16  1  0.72089929  0.49520524  0.64659283  1  0.104015  0  0.114901  0.122224  0  0.986503  0
H  H17  1  0.72441275  0.49499261  0.73264522  1  0.08869  0  0.112766  0.116995  0  0.97935  0
H  H18  1  0.72383651  0.50192941  0.35170543  1  0.092351  0  0.101591  0.104114  0  1.005229  0
H  H19  1  0.27650765  0.50258707  0.26536977  1  0.084712  0  0.101384  0.104137  0  1.006241  0
H  H20  1  0.72257596  0.50475482  0.26505506  1  0.090244  0  0.101539  0.104065  0  1.006665  0
H  H21  1  0.27776406  0.50338135  0.35202301  1  0.097496  0  0.101435  0.104271  0  1.005997  0
H  H22  1  0.13407803  0.36624152  0.16809149  1  0.152937  0  0.141423  0.122299  0  0.957708  0
H  H23  1  0.86743610  0.63427912  0.06762512  1  0.190828  0  0.137875  0.124774  0  0.982694  0
H  H24  1  0.86693389  0.36640300  0.16787725  1  0.159744  0  0.141465  0.122384  0  0.958145  0
H  H25  1  0.13372383  0.63413039  0.06805355  1  0.160354  0  0.142848  0.124447  0  0.954898  0
H  H26  1  0.72651441  0.11336872  0.11792988  1  0.126023  0  0.102445  0.105583  0  1.004439  0
H  H27  1  0.27899882  0.88755720  0.11702134  1  0.068216  0  0.102186  0.105353  0  1.005719  0
H  H28  1  0.72515986  0.88541633  0.11584553  1  0.099203  0  0.102981  0.106517  0  1.002862  0
H  H29  1  0.28033377  0.11553122  0.11746945  1  0.085534  0  0.101702  0.104681  0  1.005494  0
C  C30  1  0.49909789  0.73522934  0.50135637  1  1.498903  0  0.216642  0.595154  0  4.158985  0
C  C31  1  0.50277325  0.49857354  0.58945476  1  1.631874  0  0.215832  0.593937  0  4.185355  0
C  C32  1  0.49592632  0.26099478  0.49802949  1  1.568782  0  0.215825  0.594571  0  4.159344  0
C  C33  1  0.50137108  0.50049464  0.40838273  1  1.484207  0  0.215422  0.595205  0  4.162135  0
C  C34  1  0.50112609  0.73756705  0.11594767  1  1.552387  0  0.216508  0.594341  0  4.160553  0
C  C35  1  0.49738036  0.50020825  0.02770434  1  1.561805  0  0.215814  0.595697  0  4.184691  0
C  C36  1  0.50438206  0.26337058  0.11888233  1  1.528883  0  0.216746  0.595468  0  4.159593  0
C  C37  1  0.49887091  0.50265504  0.20869180  1  1.546993  0  0.215792  0.595849  0  4.162202  0
C  C38  1  0.92753695  0.42324144  0.47090494  1  0.604151  0  0.079019  0.05957  0  3.869821  0
C  C39  1  0.07226560  0.57367587  0.52680490  1  0.594742  0  0.08166  0.067776  0  3.849982  0
C  C40  1  0.07222507  0.42364496  0.47092401  1  0.429991  0  0.079255  0.060193  0  3.867635  0
C  C41  1  0.92738790  0.57318160  0.52673890  1  0.466427  0  0.084072  0.068974  0  3.852568  0
C  C42  1  0.49680564  0.12518125  0.49890193  1  -0.083908  0  -0.014461  -0.025229  0  3.958745  0
C  C43  1  0.49825684  0.87105400  0.50087105  1  0.06584  0  -0.014344  -0.025354  0  3.958038  0
C  C44  1  0.37115672  0.06066634  0.49938791  1  -0.052078  0  -0.084036  -0.093637  0  3.978527  0
C  C45  1  0.62389086  0.93556607  0.50020081  1  -0.028353  0  -0.084277  -0.093961  0  3.98159  0
C  C46  1  0.37187789  0.93455013  0.50065360  1  -0.026706  0  -0.083689  -0.093062  0  3.976513  0
C  C47  1  0.62318054  0.06169991  0.49955024  1  -0.028813  0  -0.085523  -0.096025  0  3.985506  0
C  C48  1  0.50066358  0.50308506  0.97603255  1  0.120152  0  -0.003436  -0.066353  0  3.916296  0
C  C49  1  0.37566272  0.49926253  0.95103150  1  -0.075363  0  -0.069928  -0.067641  0  3.965602  0
C  C50  1  0.37399882  0.49822352  0.90325004  1  0.061348  0  -0.074385  -0.122197  0  3.929271  0
C  C51  1  0.49989343  0.49974794  0.87833424  1  0.052808  0  0.009421  0.160638  0  4.109239  0
C  C52  1  0.62650219  0.50311865  0.90289133  1  0.049079  0  -0.072219  -0.177837  0  3.900724  0
C  C53  1  0.62445619  0.50589416  0.95064334  1  0.121649  0  0.088206  0.071666  0  3.933651  0
C  C54  1  0.50003526  0.49873026  0.82962299  1  -0.110927  0  -0.036253  -0.100974  0  4.100086  0
C  C55  1  0.50012884  0.49872898  0.78757315  1  -0.285916  0  -0.0361  -0.096058  0  4.098629  0
C  C56  1  0.50025407  0.49948441  0.73886468  1  0.151189  0  0.009995  0.1582  0  4.110834  0
C  C57  1  0.37364352  0.50290141  0.71431255  1  0.010285  0  -0.072553  -0.178657  0  3.901424  0
C  C58  1  0.37565745  0.50523393  0.66655901  1  0.194529  0  0.088517  0.072965  0  3.932937  0
C  C59  1  0.49943575  0.50199266  0.64115455  1  0.020686  0  -0.003302  -0.067189  0  3.916971  0
C  C60  1  0.62443058  0.49817583  0.66615188  1  -0.069005  0  -0.070138  -0.06631  0  3.965456  0
C  C61  1  0.62613081  0.49751610  0.71393235  1  0.057184  0  -0.074585  -0.122352  0  3.928109  0
C  C62  1  0.50084315  0.50163546  0.35679541  1  0.008637  0  -0.014514  -0.024224  0  3.95924  0
C  C63  1  0.49948754  0.50275223  0.26027656  1  0.062026  0  -0.014822  -0.024421  0  3.958722  0
C  C64  1  0.62651151  0.50200835  0.33240644  1  0.016455  0  -0.085756  -0.096282  0  3.983497  0
C  C65  1  0.37382754  0.50236483  0.28466965  1  -0.106156  0  -0.085675  -0.096037  0  3.985256  0
C  C66  1  0.62583649  0.50327394  0.28450262  1  -0.1182  0  -0.085558  -0.094854  0  3.982974  0
C  C67  1  0.37450071  0.50251138  0.33257314  1  0.010618  0  -0.085618  -0.095562  0  3.984091  0
C  C68  1  0.07288259  0.42560006  0.14593654  1  0.601492  0  0.079134  0.058963  0  3.870205  0
C  C69  1  0.92789799  0.57553025  0.09019633  1  0.425112  0  0.081796  0.068469  0  3.846497  0
C  C70  1  0.92819095  0.42592029  0.14591853  1  0.448124  0  0.079564  0.061642  0  3.865858  0
C  C71  1  0.07276989  0.57508127  0.09024970  1  0.601109  0  0.083217  0.067741  0  3.850908  0
C  C72  1  0.50349443  0.12754950  0.11809949  1  -0.038569  0  -0.01414  -0.023523  0  3.958045  0
C  C73  1  0.50199859  0.87339062  0.11637819  1  -0.114144  0  -0.014119  -0.023563  0  3.957747  0
C  C74  1  0.62913266  0.06292281  0.11764525  1  -0.093535  0  -0.084489  -0.095306  0  3.981294  0
C  C75  1  0.37636993  0.93800654  0.11699704  1  -0.034428  0  -0.085041  -0.09559  0  3.983231  0
C  C76  1  0.62839110  0.93678498  0.11649556  1  0.091714  0  -0.083775  -0.09352  0  3.9801  0
C  C77  1  0.37711201  0.06415123  0.11752578  1  0.005832  0  -0.085583  -0.096367  0  3.984422  0
N  N78  1  0.85676988  0.49810010  0.49884652  1  -1.21225  0  -0.29159  -0.141273  0  3.501283  0
N  N79  1  0.14284745  0.49889337  0.49885615  1  -1.202428  0  -0.291501  -0.140079  0  3.493372  0
N  N80  1  0.14352268  0.50033057  0.11809285  1  -1.230233  0  -0.291245  -0.14038  0  3.502812  0
N  N81  1  0.85743706  0.50097846  0.11809118  1  -1.234862  0  -0.291683  -0.1406  0  3.494262  0
N  N82  1  0.76248515  0.51664732  0.97325159  1  0.406611  0  0.061626  0.530048  0  4.227745  0
N  N83  1  0.23758409  0.51591050  0.64397425  1  0.422849  0  0.061327  0.52917  0  4.231163  0
O  O84  1  0.61657138  0.68266391  0.49703845  1  -1.160966  0  -0.318797  -0.549765  0  2.326605  0
O  O85  1  0.38236586  0.68165664  0.50583718  1  -1.165498  0  -0.318588  -0.549782  0  2.325699  0
O  O86  1  0.38734962  0.48118117  0.56905195  1  -1.155234  0  -0.311239  -0.537112  0  2.339837  0
O  O87  1  0.62079894  0.51170839  0.57051994  1  -1.156341  0  -0.312894  -0.54039  0  2.30316  0
O  O88  1  0.37874429  0.31332918  0.49268188  1  -1.159991  0  -0.318459  -0.550054  0  2.32573  0
O  O89  1  0.61265149  0.31472578  0.50288319  1  -1.153131  0  -0.319921  -0.551474  0  2.32451  0
O  O90  1  0.61863161  0.48837349  0.42849484  1  -1.166887  0  -0.320901  -0.554348  0  2.319942  0
O  O91  1  0.38426061  0.51177699  0.42849605  1  -1.163326  0  -0.321026  -0.552787  0  2.319462  0
O  O92  1  0.38364360  0.68519138  0.12030151  1  -1.162577  0  -0.319633  -0.550619  0  2.327067  0
O  O93  1  0.61784690  0.68384051  0.11144122  1  -1.166303  0  -0.317786  -0.54892  0  2.326828  0
O  O94  1  0.61279779  0.48281220  0.04807637  1  -1.148711  0  -0.310661  -0.537784  0  2.34122  0
O  O95  1  0.37942269  0.51381797  0.04666788  1  -1.169757  0  -0.313349  -0.541944  0  2.3058  0
O  O96  1  0.62156953  0.31567620  0.12425124  1  -1.163078  0  -0.319238  -0.551039  0  2.325962  0
O  O97  1  0.38770058  0.31713104  0.11396079  1  -1.165903  0  -0.320519  -0.552469  0  2.325126  0
O  O98  1  0.38156575  0.49083687  0.18855821  1  -1.170174  0  -0.32105  -0.554635  0  2.320529  0
O  O99  1  0.61590905  0.51435425  0.18860385  1  -1.163958  0  -0.321095  -0.553259  0  2.321006  0
O  O100  1  0.79658453  0.61912397  0.98669386  1  -0.440928  0  -0.133906  -0.338193  0  1.891652  0
O  O101  1  0.83648753  0.42513192  0.97430349  1  -0.434347  0  -0.13364  -0.327182  0  1.85367  0
O  O102  1  0.20327915  0.61838054  0.63078007  1  -0.452272  0  -0.133748  -0.337652  0  1.891857  0
O  O103  1  0.16380704  0.42431166  0.64268852  1  -0.4345  0  -0.133822  -0.327188  0  1.855032  0
