# generated using pymatgen
data_Zn4H10C28S2Br4O13
_symmetry_space_group_name_H-M   'P 1'
_cell_length_a   18.55017802
_cell_length_b   19.71846810
_cell_length_c   32.74998488
_cell_angle_alpha   85.97152010
_cell_angle_beta   73.62956748
_cell_angle_gamma   62.07782340
_symmetry_Int_Tables_number   1
_chemical_formula_structural   Zn4H10C28S2Br4O13
_chemical_formula_sum   'Zn16 H40 C112 S8 Br16 O52'
_cell_volume   10128.67800295
_cell_formula_units_Z   4
loop_
 _symmetry_equiv_pos_site_id
 _symmetry_equiv_pos_as_xyz
  1  'x, y, z'
loop_
 _atom_site_type_symbol
 _atom_site_label
 _atom_site_symmetry_multiplicity
 _atom_site_fract_x
 _atom_site_fract_y
 _atom_site_fract_z
 _atom_site_occupancy
 _atom_site_pbe_bader_charge
 _atom_site_pbe_bader_spin_density
 _atom_site_pbe_cm5_charge
 _atom_site_pbe_ddec_charge
 _atom_site_pbe_ddec_spin_density
 _atom_site_pbe_ddec_sum_bond_order
 _atom_site_pbe_magmom
Zn  Zn0  1  0.87293441  0.55457809  0.51846563  1  1.301909  0  0.671509  0.963076  0  2.343257  0
Zn  Zn1  1  0.03857444  0.48392223  0.43872520  1  1.320028  0  0.675275  0.967009  0  2.419883  0
Zn  Zn2  1  0.04368069  0.39863922  0.52374932  1  1.31884  0  0.673201  0.96964  0  2.35963  0
Zn  Zn3  1  0.04474395  0.56225343  0.51788911  1  1.32166  0  0.67311  0.969521  0  2.356003  0
Zn  Zn4  1  0.62563100  0.19244389  0.73315209  1  1.318075  0  0.67279  0.963937  0  2.364182  0
Zn  Zn5  1  0.46436315  0.34977309  0.72509223  1  1.319434  0  0.67127  0.957314  0  2.392157  0
Zn  Zn6  1  0.45597520  0.26602208  0.81257987  1  1.317587  0  0.67344  0.971064  0  2.346849  0
Zn  Zn7  1  0.45578696  0.19148492  0.72823419  1  1.319055  0  0.672466  0.965624  0  2.374765  0
Zn  Zn8  1  0.46324196  0.76194033  0.31267846  1  1.324003  0  0.669869  0.951832  0  2.39946  0
Zn  Zn9  1  0.45363417  0.69109706  0.23166965  1  1.320237  0  0.673668  0.963964  0  2.401998  0
Zn  Zn10  1  0.62570614  0.69388834  0.22912962  1  1.315619  0  0.673212  0.968489  0  2.343975  0
Zn  Zn11  1  0.45585975  0.85216882  0.22701223  1  1.321168  0  0.674166  0.971205  0  2.353888  0
Zn  Zn12  1  0.03609669  0.90011408  0.02505427  1  1.317987  0  0.672554  0.959379  0  2.384766  0
Zn  Zn13  1  0.05172101  0.05584470  0.01813837  1  1.315082  0  0.671165  0.954914  0  2.388855  0
Zn  Zn14  1  0.87607315  0.05954137  0.02000626  1  1.317727  0  0.673328  0.965476  0  2.367717  0
Zn  Zn15  1  0.03831228  0.98383155  0.93717567  1  1.316582  0  0.672764  0.965832  0  2.353539  0
H  H16  1  0.81087320  0.24317634  0.65417505  1  0.134074  0  0.106332  0.125345  0  1.00515  0
H  H17  1  0.54538860  0.48569995  0.61999677  1  0.045772  0  0.099682  0.111024  0  0.977726  0
H  H18  1  0.55107584  0.52593064  0.66530202  1  0.074061  0  0.097994  0.108998  0  0.982926  0
H  H19  1  0.65225882  0.56901058  0.61692238  1  0.059681  0  0.098446  0.110907  0  0.982662  0
H  H20  1  0.64638028  0.52892666  0.57166539  1  0.052256  0  0.098879  0.109942  0  0.981554  0
H  H21  1  0.29357682  0.60255917  0.29595353  1  0.120769  0  0.106783  0.12603  0  1.004632  0
H  H22  1  0.34958304  0.67319379  0.43497216  1  0.056419  0  0.097829  0.107695  0  0.982263  0
H  H23  1  0.25956277  0.76157441  0.43198607  1  0.034126  0  0.097482  0.10832  0  0.985535  0
H  H24  1  0.16202713  0.71212514  0.47753761  1  0.074674  0  0.100343  0.113656  0  0.975885  0
H  H25  1  0.25190147  0.62378869  0.48052887  1  0.066487  0  0.096325  0.107997  0  0.989574  0
H  H26  1  0.80988822  0.60180515  0.29496141  1  0.121249  0  0.106574  0.126018  0  1.003088  0
H  H27  1  0.54867998  0.76176253  0.43020460  1  0.045825  0  0.097443  0.10795  0  0.984995  0
H  H28  1  0.54308686  0.67371893  0.43297358  1  0.035548  0  0.097707  0.10721  0  0.982768  0
H  H29  1  0.64322875  0.62383660  0.47918872  1  0.052983  0  0.097888  0.108294  0  0.982778  0
H  H30  1  0.64900179  0.71175203  0.47641858  1  0.057857  0  0.097994  0.109766  0  0.984236  0
H  H31  1  0.30841027  0.45633408  0.64645172  1  0.116251  0  0.105754  0.124904  0  1.00592  0
H  H32  1  0.32818968  0.17993028  0.62948757  1  0.057837  0  0.099551  0.110699  0  0.977629  0
H  H33  1  0.23764478  0.22059987  0.67490354  1  0.060068  0  0.097541  0.108805  0  0.986362  0
H  H34  1  0.14206265  0.27407805  0.62628327  1  0.055973  0  0.097685  0.110608  0  0.986499  0
H  H35  1  0.23277492  0.23352214  0.58101339  1  0.063596  0  0.100283  0.113834  0  0.976315  0
H  H36  1  0.69070553  0.14713958  0.95592036  1  0.126142  0  0.107396  0.127994  0  1.000296  0
H  H37  1  0.95400292  0.07767769  0.81644299  1  0.054604  0  0.100865  0.112035  0  0.977343  0
H  H38  1  0.94890763  0.98941537  0.81895654  1  0.028738  0  0.100482  0.112138  0  0.976632  0
H  H39  1  0.84661708  0.04029393  0.77384742  1  0.058869  0  0.098464  0.110304  0  0.983366  0
H  H40  1  0.85177113  0.12847202  0.77143604  1  0.05965  0  0.100534  0.113276  0  0.976435  0
H  H41  1  0.19275634  0.05181609  0.84400561  1  0.113425  0  0.106602  0.126121  0  1.002704  0
H  H42  1  0.17067122  0.21500808  0.97485235  1  0.080056  0  0.097985  0.108037  0  0.984423  0
H  H43  1  0.26180002  0.12707252  0.97706560  1  0.067816  0  0.098192  0.107598  0  0.981954  0
H  H44  1  0.35656539  0.17425929  0.92638273  1  0.07721  0  0.097951  0.11025  0  0.985932  0
H  H45  1  0.26547093  0.26210362  0.92423667  1  0.090311  0  0.100393  0.114437  0  0.975537  0
H  H46  1  0.19303535  0.79433960  0.10323966  1  0.113798  0  0.106414  0.12612  0  1.004579  0
H  H47  1  0.26147120  0.03167937  0.07488072  1  0.069767  0  0.098542  0.10882  0  0.980859  0
H  H48  1  0.17038317  0.07186782  0.12010614  1  0.069804  0  0.098115  0.108801  0  0.984481  0
H  H49  1  0.26532252  0.01938216  0.16889975  1  0.083648  0  0.100877  0.114382  0  0.975184  0
H  H50  1  0.35640293  0.97929819  0.12376425  1  0.040496  0  0.097288  0.1093  0  0.987469  0
H  H51  1  0.68895404  0.00751380  0.09649109  1  0.128181  0  0.107427  0.126988  0  1.001291  0
H  H52  1  0.94916047  0.72457246  0.08486193  1  0.100144  0  0.097863  0.108195  0  0.985279  0
H  H53  1  0.95395420  0.76453010  0.13055782  1  0.058875  0  0.100811  0.112305  0  0.976175  0
H  H54  1  0.85275798  0.72102593  0.17814025  1  0.070302  0  0.101526  0.114212  0  0.975171  0
H  H55  1  0.84818959  0.68065627  0.13256706  1  0.055382  0  0.100697  0.112948  0  0.976807  0
C  C56  1  0.86276339  0.56754939  0.43044216  1  1.5549  0  0.225044  0.615706  0  4.171177  0
C  C57  1  0.12473910  0.31530414  0.43871935  1  1.604265  0  0.215374  0.618853  0  4.213565  0
C  C58  1  0.86567104  0.42750607  0.56828861  1  1.584361  0  0.227359  0.622025  0  4.162582  0
C  C59  1  0.13882151  0.43513337  0.56816677  1  1.57895  0  0.226621  0.618123  0  4.164054  0
C  C60  1  0.87168900  0.68414882  0.56050808  1  1.599944  0  0.21606  0.621832  0  4.207647  0
C  C61  1  0.13733076  0.56910785  0.43081743  1  1.561875  0  0.226671  0.617265  0  4.169539  0
C  C62  1  0.63932496  0.31840918  0.68153527  1  1.559341  0  0.230724  0.612919  0  4.168479  0
C  C63  1  0.37685428  0.43529611  0.80981583  1  1.564977  0  0.216148  0.621341  0  4.208117  0
C  C64  1  0.63329377  0.18268495  0.82129787  1  1.555976  0  0.22693  0.620406  0  4.160784  0
C  C65  1  0.36148257  0.18039757  0.81674102  1  1.55987  0  0.226718  0.620613  0  4.164204  0
C  C66  1  0.62732849  0.06574495  0.68855729  1  1.622063  0  0.21637  0.621563  0  4.207552  0
C  C67  1  0.36332722  0.31858601  0.68035833  1  1.557985  0  0.228734  0.607636  0  4.171343  0
C  C68  1  0.36298278  0.68059364  0.32000014  1  1.564839  0  0.228539  0.608136  0  4.17719  0
C  C69  1  0.62317387  0.56566699  0.18878399  1  1.552243  0  0.216346  0.622442  0  4.20668  0
C  C70  1  0.63835049  0.68067754  0.31844698  1  1.575567  0  0.230013  0.61146  0  4.172326  0
C  C71  1  0.63382836  0.82161680  0.18056688  1  1.583767  0  0.227751  0.621273  0  4.161436  0
C  C72  1  0.37565407  0.93175227  0.31319963  1  1.589625  0  0.215014  0.619456  0  4.215009  0
C  C73  1  0.36137083  0.81740949  0.18141530  1  1.580403  0  0.226262  0.617299  0  4.169453  0
C  C74  1  0.13869708  0.93123351  0.06866805  1  1.550778  0  0.228952  0.610985  0  4.171454  0
C  C75  1  0.88300343  0.18384619  0.06115331  1  1.58436  0  0.215312  0.619648  0  4.211939  0
C  C76  1  0.86081413  0.93271580  0.06963553  1  1.569698  0  0.2305  0.611676  0  4.167365  0
C  C77  1  0.86232374  0.06885124  0.93134837  1  1.555961  0  0.230647  0.613335  0  4.164378  0
C  C78  1  0.12160219  0.81462030  0.94014033  1  1.592812  0  0.215673  0.620322  0  4.210212  0
C  C79  1  0.13942848  0.06711921  0.93011306  1  1.562977  0  0.229816  0.610727  0  4.170278  0
C  C80  1  0.73393715  0.80435522  0.60111387  1  -0.036253  0  -0.023385  0.061796  0  3.994715  0
C  C81  1  0.76476824  0.94464722  0.64889926  1  -0.045652  0  -0.023016  0.062198  0  3.9965  0
C  C82  1  0.82141184  0.75861549  0.58581474  1  -0.087793  0  -0.027892  -0.168354  0  3.933855  0
C  C83  1  0.67728992  0.99073349  0.66390302  1  -0.103178  0  -0.028739  -0.16902  0  3.935173  0
C  C84  1  0.78549469  0.87676933  0.62597166  1  -0.127023  0  -0.030138  -0.06228  0  4.100815  0
C  C85  1  0.71312752  0.87223201  0.62408226  1  -0.126701  0  -0.028619  -0.058668  0  4.096235  0
C  C86  1  0.20241959  0.22530653  0.36941498  1  -0.078545  0  -0.021422  0.063444  0  3.991864  0
C  C87  1  0.29801785  0.02142250  0.38280202  1  0.040755  0  -0.022901  0.062217  0  3.996072  0
C  C88  1  0.17397531  0.24107462  0.41344960  1  -0.090119  0  -0.028532  -0.1671  0  3.937547  0
C  C89  1  0.32646407  0.00570917  0.33877969  1  -0.13471  0  -0.029104  -0.169914  0  3.941532  0
C  C90  1  0.25280173  0.10144221  0.39407184  1  -0.144242  0  -0.029116  -0.060398  0  4.101101  0
C  C91  1  0.24765728  0.14523097  0.35827606  1  -0.146505  0  -0.02887  -0.059654  0  4.099808  0
C  C92  1  0.69662355  0.34616185  0.65298993  1  -0.040555  0  -0.010737  -0.059155  0  3.978013  0
C  C93  1  0.81170012  0.39664148  0.59734244  1  0.073731  0  -0.015001  -0.125294  0  3.922748  0
C  C94  1  0.66706273  0.41795615  0.63619680  1  -0.01936  0  -0.003096  0.061506  0  3.886022  0
C  C95  1  0.84118842  0.32363923  0.61486395  1  -0.111701  0  -0.005852  0.10224  0  3.910489  0
C  C96  1  0.72307654  0.44157362  0.60946313  1  -0.051689  0  -0.000284  0.075357  0  3.874511  0
C  C97  1  0.78536513  0.29963692  0.64162087  1  0.071592  0  -0.09166  -0.159471  0  3.968376  0
C  C98  1  0.58866378  0.49201974  0.63458928  1  -0.02919  0  -0.150285  -0.19949  0  3.883365  0
C  C99  1  0.65189410  0.51904590  0.60432078  1  -0.017834  0  -0.150518  -0.198725  0  3.87724  0
C  C100  1  0.30579644  0.65254902  0.34822635  1  -0.010183  0  -0.009596  -0.057649  0  3.980351  0
C  C101  1  0.19387198  0.59645039  0.40108545  1  -0.000418  0  -0.014506  -0.124271  0  3.927942  0
C  C102  1  0.27970243  0.66410322  0.39254652  1  -0.036831  0  -0.004673  0.058153  0  3.889358  0
C  C103  1  0.22075324  0.58508888  0.35577581  1  -0.044792  0  -0.005031  0.103379  0  3.908847  0
C  C104  1  0.22566520  0.63690188  0.41763464  1  0.017588  0  -0.000455  0.075844  0  3.87961  0
C  C105  1  0.27474666  0.61235328  0.33049897  1  0.007621  0  -0.089814  -0.15468  0  3.963196  0
C  C106  1  0.28570066  0.69869808  0.43053695  1  -0.000144  0  -0.150802  -0.199349  0  3.885814  0
C  C107  1  0.22458522  0.66778673  0.45907032  1  -0.038858  0  -0.149812  -0.196751  0  3.874939  0
C  C108  1  0.69522510  0.65234187  0.34680457  1  -0.01982  0  -0.010212  -0.059098  0  3.980005  0
C  C109  1  0.80917602  0.59535265  0.40039205  1  0.02982  0  -0.013899  -0.122236  0  3.924719  0
C  C110  1  0.66504821  0.66385329  0.39113822  1  -0.018882  0  -0.003258  0.060301  0  3.883665  0
C  C111  1  0.83937270  0.58422582  0.35507399  1  -0.132263  0  -0.005339  0.103522  0  3.909656  0
C  C112  1  0.72054348  0.63615546  0.41657784  1  0.001841  0  -0.001024  0.073364  0  3.875836  0
C  C113  1  0.78396049  0.61182867  0.32947409  1  0.052559  0  -0.090568  -0.157362  0  3.971742  0
C  C114  1  0.58626263  0.69886259  0.42884432  1  0.008586  0  -0.149965  -0.196724  0  3.884543  0
C  C115  1  0.64896729  0.66759021  0.45778319  1  -0.01064  0  -0.151061  -0.197607  0  3.878383  0
C  C116  1  0.30564254  0.34821599  0.65238737  1  -0.042768  0  -0.009923  -0.056627  0  3.974756  0
C  C117  1  0.19554823  0.40909485  0.59679061  1  0.01217  0  -0.014089  -0.12471  0  3.922901  0
C  C118  1  0.27157896  0.30643262  0.63958924  1  0.063662  0  -0.00432  0.058613  0  3.884772  0
C  C119  1  0.23042326  0.45137874  0.61020039  1  -0.085749  0  -0.00596  0.103343  0  3.913535  0
C  C120  1  0.21868798  0.33631813  0.61282972  1  -0.054431  0  0.001549  0.078971  0  3.869432  0
C  C121  1  0.28330743  0.42178369  0.63702444  1  0.032897  0  -0.092011  -0.160239  0  3.968512  0
C  C122  1  0.26727684  0.23137111  0.64275122  1  -0.007657  0  -0.149665  -0.197001  0  3.880438  0
C  C123  1  0.20745358  0.26490141  0.61240613  1  -0.024822  0  -0.150013  -0.19939  0  3.872915  0
C  C124  1  0.29801810  0.58447115  0.82050952  1  0.036727  0  -0.022782  0.061993  0  3.995021  0
C  C125  1  0.20159980  0.66540686  0.92953457  1  0.046638  0  -0.022609  0.061755  0  3.994862  0
C  C126  1  0.32742985  0.51043898  0.83435293  1  -0.108669  0  -0.028194  -0.16845  0  3.934365  0
C  C127  1  0.17176543  0.73943720  0.91566153  1  -0.156143  0  -0.029412  -0.169743  0  3.934366  0
C  C128  1  0.24756398  0.60886930  0.89488277  1  -0.201254  0  -0.028967  -0.059447  0  4.098067  0
C  C129  1  0.25209659  0.64096327  0.85515863  1  -0.197358  0  -0.028887  -0.059731  0  4.099841  0
C  C130  1  0.80445262  0.09726959  0.90339372  1  0.010739  0  -0.009472  -0.058541  0  3.973625  0
C  C131  1  0.68780801  0.15487578  0.85101602  1  0.056613  0  -0.014969  -0.127377  0  3.924778  0
C  C132  1  0.83312672  0.08637907  0.85903429  1  -0.044865  0  -0.004778  0.057547  0  3.888781  0
C  C133  1  0.65920179  0.16516929  0.89634258  1  -0.088847  0  -0.005778  0.102078  0  3.912476  0
C  C134  1  0.77640599  0.11450560  0.83420048  1  -0.03577  0  0.001049  0.078868  0  3.872066  0
C  C135  1  0.71572069  0.13748491  0.92136772  1  0.022539  0  -0.090902  -0.15845  0  3.96221  0
C  C136  1  0.91097374  0.05232683  0.82082198  1  0.00027  0  -0.150183  -0.200902  0  3.8851  0
C  C137  1  0.84697868  0.08412267  0.79259014  1  -0.00502  0  -0.149788  -0.197993  0  3.877212  0
C  C138  1  0.19537811  0.09610104  0.90140981  1  -0.031625  0  -0.009931  -0.056994  0  3.975298  0
C  C139  1  0.30411543  0.15097160  0.84376741  1  -0.018826  0  -0.015218  -0.125707  0  3.922542  0
C  C140  1  0.22825525  0.13695189  0.91630717  1  0.006494  0  -0.004002  0.058571  0  3.884097  0
C  C141  1  0.26968384  0.10971863  0.82889412  1  -0.087437  0  -0.006107  0.101703  0  3.912268  0
C  C142  1  0.28049603  0.16306002  0.88824328  1  0.044741  0  0.00126  0.07849  0  3.871268  0
C  C143  1  0.21746215  0.08330722  0.85685301  1  0.039537  0  -0.09165  -0.160196  0  3.969692  0
C  C144  1  0.23189466  0.16980876  0.95567612  1  -0.058596  0  -0.149559  -0.195058  0  3.883358  0
C  C145  1  0.29121685  0.19934464  0.92399184  1  -0.063001  0  -0.149986  -0.199863  0  3.871853  0
C  C146  1  0.64499663  0.44576093  0.14866306  1  -0.002305  0  -0.02219  0.062111  0  3.994955  0
C  C147  1  0.86231090  0.30379290  0.10099669  1  0.000469  0  -0.022928  0.062739  0  3.993627  0
C  C148  1  0.67255943  0.49111020  0.16368813  1  -0.118025  0  -0.027698  -0.168268  0  3.933609  0
C  C149  1  0.83452257  0.25856107  0.08603760  1  -0.133941  0  -0.029363  -0.172039  0  3.939638  0
C  C150  1  0.79335998  0.37215046  0.12379892  1  -0.148727  0  -0.029034  -0.060162  0  4.097238  0
C  C151  1  0.71416619  0.37759398  0.12579571  1  -0.161479  0  -0.02897  -0.059701  0  4.101004  0
C  C152  1  0.19538338  0.90258052  0.09706638  1  0.012617  0  -0.009369  -0.057645  0  3.981002  0
C  C153  1  0.30461995  0.84321595  0.15293057  1  0.026421  0  -0.013828  -0.123686  0  3.924711  0
C  C154  1  0.22846965  0.94518579  0.10996209  1  -0.017674  0  -0.003829  0.058823  0  3.888085  0
C  C155  1  0.27050716  0.80016617  0.13953200  1  -0.118873  0  -0.005022  0.104811  0  3.910571  0
C  C156  1  0.28086622  0.91603472  0.13695272  1  0.005459  0  0.00109  0.07714  0  3.87422  0
C  C157  1  0.21782784  0.82921236  0.11261054  1  0.026462  0  -0.091412  -0.159254  0  3.971165  0
C  C158  1  0.23172652  0.02074295  0.10694580  1  -0.050731  0  -0.152028  -0.200779  0  3.884259  0
C  C159  1  0.29117603  0.98791482  0.13750455  1  -0.012668  0  -0.148849  -0.195801  0  3.870775  0
C  C160  1  0.80333726  0.90442469  0.09752578  1  0.010941  0  -0.010015  -0.058145  0  3.972866  0
C  C161  1  0.68796832  0.85279195  0.15192576  1  0.008335  0  -0.015088  -0.125224  0  3.922925  0
C  C162  1  0.83274644  0.83222125  0.11387197  1  0.003968  0  -0.00351  0.058892  0  3.884605  0
C  C163  1  0.65861257  0.92612220  0.13473104  1  -0.111711  0  -0.005738  0.10112  0  3.913244  0
C  C164  1  0.77663185  0.80810858  0.14007707  1  0.001461  0  7.4e-05  0.075071  0  3.873914  0
C  C165  1  0.71452282  0.95074366  0.10868088  1  0.018101  0  -0.090624  -0.15666  0  3.964902  0
C  C166  1  0.91112807  0.75824509  0.11560212  1  -0.066887  0  -0.150052  -0.199146  0  3.884693  0
C  C167  1  0.84784529  0.73081037  0.14539137  1  -0.02587  0  -0.148928  -0.197278  0  3.875651  0
S  S168  1  0.87842491  0.79861928  0.59964696  1  0.308532  0  0.092528  0.154144  0  2.789584  0
S  S169  1  0.62021654  0.95076694  0.65004675  1  0.306087  0  0.091996  0.152838  0  2.785555  0
S  S170  1  0.20266776  0.15790469  0.44121806  1  0.294565  0  0.089862  0.149376  0  2.782875  0
S  S171  1  0.29781690  0.08895093  0.31110379  1  0.304556  0  0.094671  0.157105  0  2.787436  0
S  S172  1  0.29897764  0.51002008  0.88989205  1  0.34895  0  0.093181  0.153825  0  2.783783  0
S  S173  1  0.20020350  0.73980426  0.86012477  1  0.34038  0  0.091451  0.152406  0  2.782281  0
S  S174  1  0.78326728  0.45029806  0.14971477  1  0.338028  0  0.090313  0.150552  0  2.777047  0
S  S175  1  0.72385257  0.29971207  0.09993191  1  0.340412  0  0.096227  0.160084  0  2.784858  0
Br  Br176  1  0.64880263  0.78404856  0.59379109  1  0.002265  0  0.044188  -0.015333  0  1.39541  0
Br  Br177  1  0.84991823  0.96503262  0.65604608  1  0.011092  0  0.046451  -0.009984  0  1.391495  0
Br  Br178  1  0.18698508  0.29635272  0.32729951  1  0.025993  0  0.049723  -0.00518  0  1.426293  0
Br  Br179  1  0.31384869  0.94991436  0.42477185  1  0.010979  0  0.044223  -0.014654  0  1.400835  0
Br  Br180  1  0.31300766  0.61240981  0.76390613  1  0.008912  0  0.047043  -0.009228  0  1.394805  0
Br  Br181  1  0.18662383  0.63755577  0.98614605  1  0.010699  0  0.04933  -0.006245  0  1.39469  0
Br  Br182  1  0.53236263  0.46678629  0.15563857  1  0.015382  0  0.051599  -0.002381  0  1.408831  0
Br  Br183  1  0.97538450  0.28209128  0.09367171  1  0.00121  0  0.045362  -0.013251  0  1.39679  0
Br  Br184  1  0.95850835  0.25031109  0.60437897  1  -0.045299  0  0.009187  -0.071798  0  1.391988  0
Br  Br185  1  0.18596725  0.53382695  0.32423060  1  -0.029304  0  0.009503  -0.068713  0  1.429707  0
Br  Br186  1  0.95672993  0.53144659  0.32388269  1  -0.03626  0  0.009686  -0.06854  0  1.433367  0
Br  Br187  1  0.21034239  0.55194553  0.59329157  1  -0.051938  0  0.006825  -0.075237  0  1.391166  0
Br  Br188  1  0.54208460  0.21707625  0.92815909  1  -0.043233  0  0.010014  -0.070287  0  1.387254  0
Br  Br189  1  0.28872045  0.08675651  0.76994661  1  -0.048428  0  0.009287  -0.071392  0  1.390273  0
Br  Br190  1  0.29057144  0.69982721  0.15667878  1  -0.041432  0  0.00942  -0.068916  0  1.399238  0
Br  Br191  1  0.54126333  0.99885214  0.14454128  1  -0.046005  0  0.01068  -0.070178  0  1.391547  0
O  O192  1  0.99805999  0.50075998  0.50110215  1  -1.219808  0  -0.57154  -1.029723  0  2.526419  0
O  O193  1  0.82275903  0.58219469  0.47026396  1  -1.150628  0  -0.309236  -0.537485  0  2.317164  0
O  O194  1  0.10111094  0.37549228  0.41821244  1  -1.170356  0  -0.312322  -0.531075  0  2.39105  0
O  O195  1  0.94587345  0.38603014  0.55797025  1  -1.184409  0  -0.315781  -0.549658  0  2.437299  0
O  O196  1  0.94293239  0.53178710  0.41462666  1  -1.162457  0  -0.313816  -0.542394  0  2.454653  0
O  O197  1  0.82506282  0.49464206  0.55607275  1  -1.161857  0  -0.309707  -0.538203  0  2.322584  0
O  O198  1  0.10993405  0.31245739  0.47929640  1  -1.142535  0  -0.318425  -0.544263  0  2.322308  0
O  O199  1  0.11806414  0.38576662  0.55908366  1  -1.160843  0  -0.308413  -0.534096  0  2.327112  0
O  O200  1  0.95246256  0.65801098  0.55064782  1  -1.17186  0  -0.317993  -0.540951  0  2.333725  0
O  O201  1  0.11562977  0.50241082  0.55520010  1  -1.178472  0  -0.314913  -0.548794  0  2.431295  0
O  O202  1  0.83166032  0.65291887  0.55082937  1  -1.166442  0  -0.314294  -0.53994  0  2.366655  0
O  O203  1  0.11763325  0.52499861  0.41530890  1  -1.17023  0  -0.314088  -0.542331  0  2.449133  0
O  O204  1  0.11363134  0.59217667  0.47024115  1  -1.1553  0  -0.30869  -0.536456  0  2.31673  0
O  O205  1  0.50073935  0.24973193  0.74994886  1  -1.233015  0  -0.571322  -1.029115  0  2.526894  0
O  O206  1  0.67408106  0.25236154  0.69578544  1  -1.176942  0  -0.314062  -0.543789  0  2.33457  0
O  O207  1  0.40014782  0.43534760  0.76934393  1  -1.162615  0  -0.314303  -0.537883  0  2.381679  0
O  O208  1  0.55305951  0.21995836  0.83678190  1  -1.164145  0  -0.314367  -0.549788  0  2.42782  0
O  O209  1  0.55967165  0.36392767  0.68918312  1  -1.163098  0  -0.308271  -0.533787  0  2.327872  0
O  O210  1  0.67376912  0.16598461  0.78158566  1  -1.153838  0  -0.309066  -0.535759  0  2.329718  0
O  O211  1  0.39183002  0.37638065  0.83188381  1  -1.167628  0  -0.318572  -0.543251  0  2.322837  0
O  O212  1  0.37927956  0.22154833  0.83670716  1  -1.15972  0  -0.308566  -0.536819  0  2.321997  0
O  O213  1  0.54654774  0.09492740  0.69589520  1  -1.187746  0  -0.318471  -0.541451  0  2.334832  0
O  O214  1  0.38859379  0.16250242  0.77684358  1  -1.172633  0  -0.31462  -0.547713  0  2.438456  0
O  O215  1  0.66745112  0.09481794  0.70026449  1  -1.165481  0  -0.314308  -0.539875  0  2.369171  0
O  O216  1  0.38861065  0.36350305  0.69033687  1  -1.169217  0  -0.31364  -0.540154  0  2.344559  0
O  O217  1  0.38270633  0.25032816  0.69180780  1  -1.163017  0  -0.30748  -0.533734  0  2.322128  0
O  O218  1  0.50083639  0.75028474  0.25013532  1  -1.241855  0  -0.57173  -1.028624  0  2.529609  0
O  O219  1  0.38842845  0.71650517  0.33859407  1  -1.172749  0  -0.308124  -0.533577  0  2.330049  0
O  O220  1  0.54259912  0.59365275  0.20015988  1  -1.134051  0  -0.313019  -0.53368  0  2.383895  0
O  O221  1  0.67322726  0.66789007  0.27826723  1  -1.179379  0  -0.314259  -0.544595  0  2.330514  0
O  O222  1  0.38161350  0.66653716  0.27988080  1  -1.17928  0  -0.311533  -0.537941  0  2.347453  0
O  O223  1  0.55875302  0.71564990  0.33741752  1  -1.166526  0  -0.308788  -0.533126  0  2.33405  0
O  O224  1  0.66636995  0.59548590  0.19694800  1  -1.164544  0  -0.319864  -0.547558  0  2.317903  0
O  O225  1  0.67412028  0.75308705  0.19127194  1  -1.16615  0  -0.310135  -0.539177  0  2.320983  0
O  O226  1  0.39122105  0.93585892  0.27267760  1  -1.152021  0  -0.318271  -0.541672  0  2.327695  0
O  O227  1  0.55376963  0.86415544  0.19217992  1  -1.181837  0  -0.315055  -0.549666  0  2.43522  0
O  O228  1  0.39822859  0.87094429  0.33327791  1  -1.171768  0  -0.314881  -0.537978  0  2.388484  0
O  O229  1  0.38741063  0.74889939  0.19266741  1  -1.177241  0  -0.314273  -0.54474  0  2.446625  0
O  O230  1  0.37970981  0.86744469  0.19208985  1  -1.158753  0  -0.308557  -0.536233  0  2.322831  0
O  O231  1  0.00067941  0.99998769  0.99978503  1  -1.233121  0  -0.571187  -1.029158  0  2.530943  0
O  O232  1  0.11069946  0.88739948  0.06023441  1  -1.17389  0  -0.314061  -0.542094  0  2.342691  0
O  O233  1  0.96377984  0.15328794  0.05070934  1  -1.155322  0  -0.314736  -0.539097  0  2.384008  0
O  O234  1  0.82636407  0.00055464  0.05732718  1  -1.177042  0  -0.312681  -0.541387  0  2.331422  0
O  O235  1  0.12300707  0.99774641  0.05527031  1  -1.161086  0  -0.308583  -0.534665  0  2.330743  0
O  O236  1  0.94035832  0.88591433  0.06046652  1  -1.170266  0  -0.308295  -0.534805  0  2.326377  0
O  O237  1  0.83829129  0.15637264  0.05227191  1  -1.171843  0  -0.318122  -0.540871  0  2.326185  0
O  O238  1  0.82781436  0.08534155  0.97140636  1  -1.170569  0  -0.313536  -0.541841  0  2.333561  0
O  O239  1  0.10329137  0.87352559  0.91793434  1  -1.169058  0  -0.319455  -0.544855  0  2.324424  0
O  O240  1  0.94178979  0.03033954  0.91256175  1  -1.160044  0  -0.308805  -0.538322  0  2.316899  0
O  O241  1  0.10094601  0.81472102  0.98065137  1  -1.152333  0  -0.313277  -0.536332  0  2.380856  0
O  O242  1  0.12245818  0.08217659  0.97002684  1  -1.166291  0  -0.307639  -0.532908  0  2.331924  0
O  O243  1  0.11338782  0.03022561  0.91273049  1  -1.175829  0  -0.314132  -0.543709  0  2.329681  0
