# generated using pymatgen
data_MnH18C16N3O7
_symmetry_space_group_name_H-M   'P 1'
_cell_length_a   8.83492867
_cell_length_b   10.18649699
_cell_length_c   11.17577747
_cell_angle_alpha   89.78071189
_cell_angle_beta   100.21375473
_cell_angle_gamma   109.98617684
_symmetry_Int_Tables_number   1
_chemical_formula_structural   MnH18C16N3O7
_chemical_formula_sum   'Mn2 H36 C32 N6 O14'
_cell_volume   928.47943522
_cell_formula_units_Z   2
loop_
 _symmetry_equiv_pos_site_id
 _symmetry_equiv_pos_as_xyz
  1  'x, y, z'
loop_
 _atom_site_type_symbol
 _atom_site_label
 _atom_site_symmetry_multiplicity
 _atom_site_fract_x
 _atom_site_fract_y
 _atom_site_fract_z
 _atom_site_occupancy
 _atom_site_hle17_ddec_charge
 _atom_site_hle17_ddec_spin_density
 _atom_site_hle17_ddec_sum_bond_order
 _atom_site_hle17_magmom
 _atom_site_hse06_10hf_ddec_charge
 _atom_site_hse06_10hf_ddec_spin_density
 _atom_site_hse06_10hf_ddec_sum_bond_order
 _atom_site_hse06_10hf_magmom
 _atom_site_hse06_ddec_charge
 _atom_site_hse06_ddec_spin_density
 _atom_site_hse06_ddec_sum_bond_order
 _atom_site_hse06_magmom
 _atom_site_pbe_cm5_charge
 _atom_site_pbe_ddec_charge
 _atom_site_pbe_ddec_spin_density
 _atom_site_pbe_ddec_sum_bond_order
 _atom_site_pbe_magmom
Mn  Mn0  1  0.28873438  0.13956238  0.09523412  1  1.191968  4.817716  1.666719  4.693  1.028832  4.752541  2.14686  4.562  1.090997  4.788587  2.076447  4.617  0.574799  0.977229  4.718352  2.202281  4.51
Mn  Mn1  1  0.71127332  0.86042790  0.90475706  1  1.191901  4.817637  1.666749  4.693  1.028813  4.75244  2.146844  4.562  1.091063  4.788477  2.07636  4.617  0.574821  0.977204  4.71825  2.202267  4.51
H  H2  1  0.65016322  0.54284360  0.14619822  1  0.416215  -0.000179  0.779871  0.0  0.400124  -0.000202  0.829792  0.0  0.40862  -0.000211  0.820691  0.0  0.351457  0.39404  -0.000194  0.836467  0.0
H  H3  1  0.34984579  0.45714815  0.85380754  1  0.416338  -0.000178  0.779674  0.0  0.400229  -0.000202  0.829625  0.0  0.408724  -0.000211  0.820516  0.0  0.351452  0.394146  -0.000194  0.8363  0.0
H  H4  1  0.56665774  0.18749621  0.98083544  1  0.440429  0.000173  0.860484  0.002  0.408711  0.000745  0.923862  0.003  0.420466  0.000447  0.906891  0.002  0.293719  0.400243  0.001028  0.936026  0.003
H  H5  1  0.43336014  0.81251283  0.01915863  1  0.440468  0.000173  0.860424  0.002  0.408739  0.000746  0.923816  0.003  0.420492  0.000448  0.906852  0.002  0.293768  0.400271  0.001028  0.935978  0.003
H  H6  1  0.57542920  0.32004882  0.06525769  1  0.412705  0.000103  0.89281  0.001  0.381262  0.000821  0.957701  0.002  0.391626  0.000548  0.942532  0.002  0.297566  0.37383  0.001067  0.968531  0.002
H  H7  1  0.42458767  0.67995867  0.93474783  1  0.412649  0.000103  0.892905  0.001  0.381236  0.000821  0.957759  0.002  0.391599  0.000548  0.942585  0.002  0.297571  0.373804  0.001067  0.968589  0.002
H  H8  1  0.12375384  0.95137222  0.89833257  1  0.432097  -0.000327  0.837613  0.001  0.406978  0.000357  0.904353  0.002  0.417098  6.1e-05  0.889547  0.001  0.307051  0.399466  0.000659  0.915118  0.002
H  H9  1  0.87625200  0.04863878  0.10166679  1  0.432199  -0.000327  0.837574  0.001  0.406972  0.000357  0.904388  0.002  0.417093  6.1e-05  0.889582  0.001  0.30712  0.399462  0.000659  0.91524  0.002
H  H10  1  0.05096137  0.06836404  0.88452706  1  0.417798  -0.000329  0.896365  0.001  0.384945  0.000407  0.964335  0.002  0.396258  0.000118  0.947859  0.001  0.291002  0.376808  0.000681  0.976243  0.002
H  H11  1  0.94904394  0.93164584  0.11547398  1  0.417791  -0.000329  0.896385  0.001  0.38492  0.000407  0.96438  0.002  0.396234  0.000118  0.947903  0.001  0.290984  0.376782  0.00068  0.976291  0.002
H  H12  1  0.74743615  0.20566827  0.60976034  1  0.088696  -6.2e-05  0.935281  0.0  0.102697  -0.0  1.001572  0.0  0.102926  -3.2e-05  1.000673  0.0  0.115628  0.102474  3.4e-05  1.001591  0.0
H  H13  1  0.25254947  0.79433932  0.39024827  1  0.088665  -5.9e-05  0.935406  0.0  0.102724  0.0  1.001611  0.0  0.103143  -3.2e-05  1.000839  0.0  0.115609  0.1025  3.4e-05  1.001619  0.0
H  H14  1  0.67015684  0.33782355  0.63642061  1  0.089869  3.6e-05  0.937174  0.0  0.106267  0.000102  0.997034  0.0  0.106939  7.5e-05  0.995525  0.0  0.116042  0.105734  0.000142  0.997514  0.0
H  H15  1  0.32982038  0.66218781  0.36357509  1  0.090011  3.7e-05  0.937125  0.0  0.106385  0.000103  0.996977  0.0  0.107262  7.5e-05  0.995556  0.0  0.116057  0.105855  0.000142  0.99745  0.0
H  H16  1  0.62186368  0.49764143  0.55543866  1  0.103948  -1.9e-05  0.974611  0.0  0.12376  -1.2e-05  1.037039  0.0  0.125366  -1.3e-05  1.036546  0.0  0.089546  0.122587  -1.2e-05  1.037414  0.0
H  H17  1  0.37811507  0.50236559  0.44455989  1  0.103964  -1.5e-05  0.974712  0.0  0.123773  -1.2e-05  1.037127  0.0  0.125374  -1.3e-05  1.036654  0.0  0.08955  0.122603  -1.2e-05  1.037499  0.0
H  H18  1  0.70036233  0.64913228  0.47602007  1  0.110661  -1.1e-05  0.943957  0.0  0.132485  6e-06  1.003069  0.0  0.13384  0.0  1.002861  0.0  0.092009  0.1315  1.2e-05  1.003329  0.0
H  H19  1  0.29962597  0.35087861  0.52398456  1  0.110799  -6e-06  0.943765  0.0  0.132596  6e-06  1.00291  0.0  0.133935  1e-06  1.002735  0.0  0.092085  0.13161  1.2e-05  1.003171  0.0
H  H20  1  0.76740135  0.65201340  0.63414793  1  0.111335  -0.000328  0.968181  0.0  0.13164  -0.000382  1.032071  0.0  0.132013  -0.000383  1.033573  0.0  0.09226  0.131333  -0.00037  1.030968  0.0
H  H21  1  0.23259383  0.34798610  0.36585129  1  0.111398  -0.000326  0.968088  0.0  0.13168  -0.000382  1.032005  0.0  0.132047  -0.000383  1.03352  0.0  0.092269  0.131372  -0.00037  1.030906  0.0
H  H22  1  0.15780146  0.86567211  0.52373840  1  0.107183  -1.1e-05  0.966305  0.0  0.125707  5e-06  1.030461  0.0  0.127322  -6e-06  1.02991  0.0  0.091851  0.124583  1.7e-05  1.030908  0.0
H  H23  1  0.84218216  0.13432510  0.47626699  1  0.107183  -1.2e-05  0.966335  0.0  0.125682  4e-06  1.030528  0.0  0.127339  -5e-06  1.02992  0.0  0.09183  0.124557  1.7e-05  1.030976  0.0
H  H24  1  0.97624662  0.81771161  0.58324653  1  0.114447  -4.1e-05  0.948455  0.0  0.138199  -5e-06  1.004809  0.0  0.139579  -2.8e-05  1.004624  0.0  0.095263  0.137009  2.8e-05  1.005468  0.0
H  H25  1  0.02375653  0.18229374  0.41676214  1  0.114315  -4.1e-05  0.948462  0.0  0.138146  -5e-06  1.004748  0.0  0.139515  -2.8e-05  1.004591  0.0  0.095196  0.136933  2.8e-05  1.005438  0.0
H  H26  1  0.96473025  0.82331428  0.42402803  1  0.112618  -1.2e-05  0.928213  0.0  0.13715  2.5e-05  0.982506  0.0  0.13836  4e-06  0.982277  0.0  0.094723  0.136058  4.9e-05  0.983074  0.0
H  H27  1  0.03526210  0.17669610  0.57598798  1  0.112606  -1.4e-05  0.928175  0.0  0.137151  2.5e-05  0.982452  0.0  0.138357  4e-06  0.982239  0.0  0.094743  0.136058  4.9e-05  0.983016  0.0
H  H28  1  0.20962797  0.03173361  0.36765195  1  0.093596  -0.000382  0.938301  0.0  0.103355  -0.000236  0.999832  0.0  0.105293  -0.000277  0.997675  0.0  0.136087  0.101601  -0.000186  1.001937  0.0
H  H29  1  0.79036366  0.96824451  0.63235523  1  0.093579  -0.000393  0.938287  0.0  0.103263  -0.000236  0.999915  0.0  0.105329  -0.000277  0.997675  0.0  0.136048  0.101492  -0.000186  1.00204  0.0
H  H30  1  0.65764727  0.31529219  0.30707206  1  0.109395  -0.000238  0.970133  0.0  0.115043  -2.4e-05  1.038136  0.0  0.117752  -5.8e-05  1.034358  0.0  0.140108  0.112918  7e-06  1.040446  0.0
H  H31  1  0.34232924  0.68469059  0.69292744  1  0.109527  -0.000242  0.970022  0.0  0.115156  -2.4e-05  1.038033  0.0  0.118142  -5.9e-05  1.034242  0.0  0.140105  0.113031  7e-06  1.040336  0.0
H  H32  1  0.31228913  0.62566991  0.11936560  1  0.106446  -0.000196  0.965523  0.0  0.11263  7.5e-05  1.034415  0.0  0.117724  -7.4e-05  1.029124  0.0  0.105811  0.10877  0.000251  1.03863  0.0
H  H33  1  0.68771585  0.37432770  0.88062709  1  0.10637  -0.00019  0.965555  0.0  0.112565  7.5e-05  1.03442  0.0  0.117652  -7.4e-05  1.029141  0.0  0.105762  0.108703  0.000251  1.038638  0.0
H  H34  1  0.89240330  0.73376669  0.16352588  1  0.120481  -0.000251  0.957499  0.0  0.132621  -1.6e-05  1.017526  0.0  0.13645  -0.000119  1.014178  0.0  0.115949  0.129971  9.6e-05  1.019827  0.0
H  H35  1  0.10760448  0.26622434  0.83647249  1  0.120481  -0.000251  0.957447  0.0  0.132668  -1.6e-05  1.017431  0.0  0.1365  -0.000119  1.014078  0.0  0.115959  0.130013  9.6e-05  1.019729  0.0
H  H36  1  0.86349422  0.30310615  0.16058850  1  0.122278  -0.000211  0.932038  0.0  0.132985  -4.1e-05  0.990853  0.0  0.137278  -0.000126  0.987564  0.0  0.113164  0.129792  4.4e-05  0.993436  0.0
H  H37  1  0.13651757  0.69688899  0.83941149  1  0.122251  -0.000208  0.932089  0.0  0.13302  -4.1e-05  0.99083  0.0  0.137319  -0.000126  0.987529  0.0  0.113135  0.129823  4.4e-05  0.993412  0.0
C  C38  1  0.85885876  0.39884115  0.52706324  1  -0.050568  -3e-06  3.722864  0.0  -0.044529  4.4e-05  3.975813  0.0  -0.047579  2.3e-05  4.000591  0.0  -0.020021  -0.042309  9.1e-05  3.957911  0.0
C  C39  1  0.14112860  0.60116162  0.47293480  1  -0.050389  1.1e-05  3.722873  0.0  -0.044402  4.3e-05  3.975906  0.0  -0.047246  2.7e-05  4.000943  0.0  -0.020006  -0.042183  9.1e-05  3.95798  0.0
C  C40  1  0.87094231  0.54047046  0.52625121  1  0.054112  3.3e-05  3.712449  0.0  0.064468  6.6e-05  3.961662  0.0  0.063602  3.6e-05  3.987675  0.0  -0.01428  0.065017  0.000101  3.944257  0.0
C  C41  1  0.12904848  0.45953526  0.47375102  1  0.05408  2.1e-05  3.712303  0.0  0.064377  6.7e-05  3.961593  0.0  0.063585  3.2e-05  3.987459  0.0  -0.014296  0.064931  0.000101  3.944189  0.0
C  C42  1  0.01449732  0.64272178  0.50159577  1  0.048789  4.4e-05  3.71159  0.0  0.059763  0.000118  3.960857  0.0  0.05862  7.7e-05  3.987133  0.0  -0.014261  0.060542  0.000141  3.943011  0.0
C  C43  1  0.98548612  0.35727929  0.49839355  1  0.048821  5.8e-05  3.711505  0.0  0.059836  0.000116  3.960721  0.0  0.058633  8e-05  3.987109  0.0  -0.014337  0.060601  0.000141  3.942896  0.0
C  C44  1  0.71370978  0.29139742  0.56737997  1  -0.047504  0.000427  3.667491  0.0  -0.128748  0.000589  3.922889  0.0  -0.114807  0.000434  3.935743  0.0  -0.047238  -0.131817  0.000782  3.915882  0.001
C  C45  1  0.28627345  0.70860946  0.43262108  1  -0.047856  0.000422  3.667716  0.0  -0.128979  0.000588  3.923032  0.0  -0.116899  0.000437  3.936974  0.0  -0.047219  -0.132012  0.000783  3.915969  0.001
C  C46  1  0.73291837  0.58578267  0.54931600  1  -0.333525  -7e-06  3.732434  0.0  -0.414207  -3.8e-05  3.97192  0.0  -0.416512  -4.9e-05  3.98321  0.0  -0.245554  -0.412228  -1.2e-05  3.964167  0.0
C  C47  1  0.26707243  0.41422539  0.45068091  1  -0.333754  -2e-05  3.732248  0.0  -0.414359  -3.8e-05  3.971708  0.0  -0.416655  -5e-05  3.982936  0.0  -0.245629  -0.412379  -1.2e-05  3.963957  0.0
C  C48  1  0.02994560  0.79487759  0.50799437  1  -0.328441  1.8e-05  3.724921  0.0  -0.406388  7.3e-05  3.958169  0.0  -0.408409  3.8e-05  3.968836  0.0  -0.240164  -0.404572  0.000123  3.950963  0.0
C  C49  1  0.97004347  0.20512165  0.49201194  1  -0.32829  2.2e-05  3.724787  0.0  -0.406296  7.3e-05  3.957989  0.0  -0.408383  3.9e-05  3.968717  0.0  -0.240042  -0.404451  0.000122  3.950814  0.0
C  C50  1  0.33543828  0.10325613  0.38331225  1  0.197374  0.001328  3.723256  0.002  0.144112  0.002894  4.022002  0.003  0.15642  0.002274  4.031484  0.003  0.146398  0.136498  0.003533  4.013122  0.004
C  C51  1  0.66455200  0.89673183  0.61668686  1  0.197463  0.001397  3.723031  0.002  0.144282  0.002893  4.021773  0.003  0.156848  0.002279  4.031566  0.003  0.146463  0.136687  0.003535  4.01289  0.004
C  C52  1  0.56114687  0.24511064  0.34831589  1  0.174734  0.002774  3.631623  0.003  0.10327  0.00468  3.888537  0.005  0.127255  0.003792  3.903562  0.004  0.166099  0.093921  0.005695  3.880343  0.006
C  C53  1  0.43883606  0.75487100  0.65168461  1  0.174348  0.002811  3.631777  0.003  0.102996  0.004682  3.888721  0.005  0.125028  0.003794  3.904845  0.004  0.166  0.093667  0.005698  3.880506  0.006
C  C54  1  0.09709600  0.45458536  0.14315428  1  -0.040538  -0.003067  3.769546  -0.002  -0.013872  -0.002213  4.001422  -0.002  -0.02084  -0.00262  4.025002  -0.002  -0.015348  -0.009727  -0.001653  3.986212  -0.001
C  C55  1  0.90291681  0.54541199  0.85684323  1  -0.040159  -0.003049  3.769323  -0.002  -0.01365  -0.00221  4.001377  -0.002  -0.020626  -0.002625  4.024977  -0.002  -0.015246  -0.009461  -0.001654  3.986106  -0.001
C  C56  1  0.18657820  0.59591476  0.13387847  1  -0.095895  0.001661  3.711262  0.002  -0.134061  0.002061  3.960864  0.002  -0.132883  0.00175  3.979208  0.002  -0.085322  -0.135048  0.003369  3.949692  0.003
C  C57  1  0.81343162  0.40408901  0.86611690  1  -0.095937  0.001632  3.711294  0.002  -0.134053  0.002059  3.960924  0.002  -0.132914  0.001752  3.979363  0.002  -0.085339  -0.135052  0.003369  3.949739  0.003
C  C58  1  0.11366562  0.69702590  0.14127819  1  -0.051549  -0.00198  3.788241  -0.001  -0.025252  -0.001216  4.026953  -0.001  -0.032537  -0.001682  4.049694  -0.001  -0.0184  -0.020809  -0.000623  4.01221  0.0
C  C59  1  0.88634072  0.30297489  0.85871388  1  -0.051544  -0.001963  3.788103  -0.001  -0.025239  -0.001213  4.026754  -0.001  -0.032552  -0.001686  4.049563  -0.001  -0.018255  -0.020798  -0.000623  4.012017  0.0
C  C60  1  0.95100756  0.65626737  0.15816403  1  -0.187937  0.002006  3.710451  0.002  -0.225475  0.00257  3.966106  0.002  -0.226704  0.002119  3.983823  0.002  -0.092874  -0.223895  0.002344  3.953691  0.002
C  C61  1  0.04900969  0.34372979  0.84183687  1  -0.187875  0.002001  3.710307  0.002  -0.225446  0.00257  3.965964  0.002  -0.226687  0.002118  3.983703  0.002  -0.092928  -0.223858  0.002344  3.953545  0.002
C  C62  1  0.86123114  0.51518615  0.16269305  1  0.319429  -0.001439  3.815691  -0.001  0.308084  -0.000576  4.092304  0.0  0.316277  -0.000954  4.109038  -0.001  0.079182  0.302128  -0.000335  4.080806  0.0
C  C63  1  0.13878210  0.48480990  0.83730988  1  0.319235  -0.001431  3.815849  -0.001  0.307834  -0.000576  4.092544  0.0  0.316036  -0.000952  4.109266  -0.001  0.079056  0.301879  -0.000335  4.081047  0.0
C  C64  1  0.93384561  0.41387760  0.15807128  1  -0.164529  0.002367  3.673461  0.002  -0.200905  0.002963  3.931293  0.002  -0.202256  0.002467  3.949198  0.002  -0.086762  -0.199255  0.002748  3.919017  0.002
C  C65  1  0.06616887  0.58611851  0.84193005  1  -0.164626  0.002355  3.67352  0.002  -0.200981  0.002962  3.931385  0.002  -0.202335  0.002467  3.949288  0.002  -0.086789  -0.199333  0.002748  3.919075  0.002
C  C66  1  0.17144571  0.34527452  0.12678032  1  0.617462  0.004301  3.955095  0.002  0.570966  0.008507  4.246224  0.005  0.603866  0.006846  4.242925  0.004  0.196427  0.548512  0.010258  4.246851  0.006
C  C67  1  0.82857468  0.65473534  0.87321865  1  0.61725  0.004303  3.955376  0.002  0.57079  0.008511  4.246538  0.005  0.603694  0.006852  4.243242  0.004  0.196378  0.548321  0.010263  4.247157  0.006
C  C68  1  0.20237946  0.84812273  0.12539212  1  0.645487  0.002224  3.893104  0.001  0.588265  0.004946  4.191989  0.003  0.62253  0.003748  4.18584  0.002  0.215491  0.564914  0.006195  4.194823  0.004
C  C69  1  0.79762846  0.15187608  0.87459658  1  0.645574  0.002222  3.893126  0.001  0.588454  0.004944  4.191879  0.003  0.622715  0.003748  4.185739  0.002  0.215572  0.565105  0.006194  4.194716  0.004
N  N70  1  0.57321170  0.22867137  0.46854572  1  0.041928  0.000837  3.555688  0.001  0.162568  0.001862  3.743899  0.002  0.123226  0.001399  3.803544  0.002  -0.133384  0.168954  0.002339  3.729117  0.002
N  N71  1  0.42677441  0.77132067  0.53145728  1  0.042454  0.000828  3.555469  0.001  0.162854  0.001867  3.743802  0.002  0.126562  0.001394  3.80323  0.001  -0.133295  0.169136  0.002341  3.729204  0.002
N  N72  1  0.42955121  0.13808172  0.49313055  1  -0.280898  0.000116  2.827036  0.0  -0.287788  0.000871  3.095151  0.001  -0.285289  0.000319  3.112033  0.0  -0.235641  -0.283345  0.001317  3.087952  0.001
N  N73  1  0.57043531  0.86191432  0.50687707  1  -0.281332  6.4e-05  2.827548  0.0  -0.28815  0.000868  3.095717  0.001  -0.287362  0.000319  3.11331  0.0  -0.23584  -0.283689  0.001316  3.088523  0.001
N  N74  1  0.41099210  0.16642049  0.29103302  1  -0.416745  0.026953  3.182813  0.013  -0.352709  0.031565  3.484043  0.012  -0.375429  0.028308  3.491659  0.01  -0.333298  -0.335836  0.034666  3.475671  0.015
N  N75  1  0.58898797  0.83356002  0.70896969  1  -0.416448  0.026924  3.182585  0.013  -0.352463  0.031565  3.483797  0.012  -0.374832  0.028319  3.491886  0.01  -0.333114  -0.335583  0.034666  3.475399  0.015
O  O76  1  0.08542331  0.21575707  0.13241193  1  -0.671852  0.027072  1.974276  0.02  -0.609726  0.032486  2.220487  0.023  -0.639815  0.028257  2.209884  0.019  -0.321139  -0.587077  0.036236  2.227962  0.026
O  O77  1  0.91460586  0.78424636  0.86758831  1  -0.671621  0.027064  1.974347  0.02  -0.609499  0.032481  2.220517  0.023  -0.639579  0.02825  2.209906  0.019  -0.320986  -0.586856  0.03623  2.227989  0.026
O  O78  1  0.31637357  0.38196837  0.10570805  1  -0.634637  0.02072  1.916908  0.016  -0.583708  0.027248  2.154932  0.021  -0.611255  0.023439  2.145801  0.017  -0.321639  -0.562741  0.031077  2.159966  0.024
O  O79  1  0.68365083  0.61804861  0.89429618  1  -0.634686  0.020733  1.916987  0.016  -0.583789  0.027256  2.155056  0.021  -0.611327  0.023449  2.145911  0.017  -0.32173  -0.562824  0.031088  2.160092  0.024
O  O80  1  0.33325680  0.88844456  0.08317643  1  -0.605819  0.008765  1.949598  0.005  -0.544892  0.015583  2.167419  0.012  -0.570852  0.013152  2.156248  0.01  -0.290614  -0.525895  0.01792  2.174241  0.014
O  O81  1  0.66673710  0.11155585  0.91680201  1  -0.60586  0.008762  1.949561  0.005  -0.545014  0.01558  2.167371  0.012  -0.57097  0.013145  2.156192  0.01  -0.290664  -0.526012  0.017916  2.174189  0.014
O  O82  1  0.13804372  0.93654152  0.15491601  1  -0.68121  0.029461  2.110421  0.02  -0.606582  0.034017  2.361221  0.022  -0.63856  0.030303  2.350236  0.019  -0.312106  -0.582841  0.037169  2.368979  0.025
O  O83  1  0.86195035  0.06345437  0.84506953  1  -0.681171  0.029459  2.110602  0.02  -0.606612  0.034014  2.361413  0.022  -0.638574  0.030304  2.350414  0.019  -0.312105  -0.58287  0.037166  2.369169  0.025
O  O84  1  0.69664874  0.46981130  0.16853889  1  -0.528199  -0.000429  2.149721  0.0  -0.46567  -0.000401  2.35045  0.0  -0.48397  -0.000501  2.340768  0.0  -0.332298  -0.452797  -0.000345  2.357129  0.0
O  O85  1  0.30336332  0.53018239  0.83147007  1  -0.528291  -0.000429  2.149618  0.0  -0.465725  -0.000401  2.350351  0.0  -0.483982  -0.000501  2.340606  0.0  -0.332267  -0.452857  -0.000345  2.357035  0.0
O  O86  1  0.50090038  0.23322574  0.01922155  1  -0.854483  0.033419  1.911066  0.02  -0.792459  0.041974  2.124679  0.024  -0.816857  0.037283  2.085057  0.02  -0.581688  -0.773425  0.046134  2.15253  0.027
O  O87  1  0.49911715  0.76678299  0.98077963  1  -0.854423  0.033422  1.911178  0.02  -0.792441  0.041977  2.12477  0.024  -0.816839  0.037286  2.085164  0.02  -0.58172  -0.773403  0.046138  2.152623  0.027
O  O88  1  0.15864397  0.05376070  0.90829786  1  -0.827248  0.026997  1.845723  0.016  -0.769994  0.035209  2.044263  0.021  -0.792817  0.031275  2.008277  0.018  -0.575632  -0.75288  0.039073  2.070019  0.024
O  O89  1  0.84136389  0.94625238  0.09170187  1  -0.82736  0.02699  1.845628  0.016  -0.769968  0.0352  2.044179  0.021  -0.792788  0.031268  2.008192  0.018  -0.575696  -0.752857  0.039064  2.070019  0.024
