# generated using pymatgen
data_ZnH22C18(N2O3)2
_symmetry_space_group_name_H-M   'P 1'
_cell_length_a   8.69554058
_cell_length_b   9.33953846
_cell_length_c   9.33956058
_cell_angle_alpha   88.67360084
_cell_angle_beta   64.39632492
_cell_angle_gamma   64.39554917
_symmetry_Int_Tables_number   1
_chemical_formula_structural   ZnH22C18(N2O3)2
_chemical_formula_sum   'Zn1 H22 C18 N4 O6'
_cell_volume   604.22630882
_cell_formula_units_Z   1
loop_
 _symmetry_equiv_pos_site_id
 _symmetry_equiv_pos_as_xyz
  1  'x, y, z'
loop_
 _atom_site_type_symbol
 _atom_site_label
 _atom_site_symmetry_multiplicity
 _atom_site_fract_x
 _atom_site_fract_y
 _atom_site_fract_z
 _atom_site_occupancy
 _atom_site_hle17_bader_spin_density
 _atom_site_hle17_ddec_charge
 _atom_site_hle17_ddec_spin_density
 _atom_site_hle17_ddec_sum_bond_order
 _atom_site_hle17_magmom
 _atom_site_hse06_10hf_bader_spin_density
 _atom_site_hse06_10hf_ddec_charge
 _atom_site_hse06_10hf_ddec_spin_density
 _atom_site_hse06_10hf_ddec_sum_bond_order
 _atom_site_hse06_10hf_magmom
 _atom_site_hse06_bader_spin_density
 _atom_site_hse06_ddec_charge
 _atom_site_hse06_ddec_spin_density
 _atom_site_hse06_ddec_sum_bond_order
 _atom_site_hse06_magmom
 _atom_site_pbe_bader_spin_density
 _atom_site_pbe_cm5_charge
 _atom_site_pbe_ddec_charge
 _atom_site_pbe_ddec_spin_density
 _atom_site_pbe_ddec_sum_bond_order
 _atom_site_pbe_magmom
Zn  Zn0  1  0.00000111  0.66110426  0.33889700  1  0  0.880315  0  2.005961  0  0  0.697253  0  2.4483  0  0  0.737887  0  2.409335  0  0  0.669021  0.66954  0  2.474306  0
H  H1  1  0.28415126  0.17561580  0.53054646  1  0  0.3696  0  0.838595  0  0  0.361959  0  0.88695  0  0  0.370123  0  0.877346  0  0  0.326071  0.356043  0  0.894046  0
H  H2  1  0.71586397  0.46945401  0.82437501  1  0  0.369671  0  0.838511  0  0  0.362046  0  0.886851  0  0  0.370206  0  0.877249  0  0  0.326053  0.356129  0  0.89395  0
H  H3  1  0.99168499  0.55878953  0.60447872  1  0  0.255801  0  0.92959  0  0  0.244484  0  0.990259  0  0  0.250156  0  0.986498  0  0  0.293139  0.240464  0  0.993  0
H  H4  1  0.00832146  0.39551891  0.44120385  1  0  0.255774  0  0.929616  0  0  0.244533  0  0.990179  0  0  0.250207  0  0.986417  0  0  0.293145  0.240521  0  0.992923  0
H  H5  1  0.24148116  0.68481967  0.01544967  1  0  0.085343  0  0.942382  0  0  0.092345  0  1.005578  0  0  0.095613  0  1.002454  0  0  0.116042  0.089902  0  1.007942  0
H  H6  1  0.75849974  0.98456571  0.31518091  1  0  0.085401  0  0.94224  0  0  0.092387  0  1.005456  0  0  0.095652  0  1.002336  0  0  0.116055  0.089944  0  1.00782  0
H  H7  1  0.23726600  0.75687206  0.75546910  1  0  0.129374  0  1.008438  0  0  0.136665  0  1.070595  0  0  0.141194  0  1.067949  0  0  0.105883  0.133375  0  1.072698  0
H  H8  1  0.76273149  0.24453990  0.24312599  1  0  0.129367  0  1.00841  0  0  0.136619  0  1.070612  0  0  0.141146  0  1.067968  0  0  0.105884  0.133329  0  1.072714  0
H  H9  1  0.69960669  0.73729676  0.93385203  1  0  0.11373  0  0.944592  0  0  0.123643  0  1.00241  0  0  0.127504  0  1.000855  0  0  0.109441  0.120842  0  1.003719  0
H  H10  1  0.30039225  0.06614594  0.26270911  1  0  0.113733  0  0.944465  0  0  0.123633  0  1.002301  0  0  0.127493  0  1.000747  0  0  0.109412  0.120832  0  1.00361  0
H  H11  1  0.71883763  0.67854019  0.18914957  1  0  0.086053  0  0.940352  0  0  0.095673  0  1.001843  0  0  0.097822  0  1.00025  0  0  0.118253  0.094036  0  1.003052  0
H  H12  1  0.28115148  0.81085045  0.32146125  1  0  0.086095  0  0.940331  0  0  0.095682  0  1.001843  0  0  0.097834  0  1.000245  0  0  0.11828  0.094045  0  1.003054  0
H  H13  1  0.82148346  0.84793340  0.67962560  1  0  0.090579  0  0.910387  0  0  0.106121  0  0.968495  0  0  0.107869  0  0.966894  0  0  0.111751  0.10477  0  0.969772  0
H  H14  1  0.17852018  0.32036785  0.15206561  1  0  0.090632  0  0.910355  0  0  0.106153  0  0.968446  0  0  0.107902  0  0.966845  0  0  0.111762  0.1048  0  0.969722  0
H  H15  1  0.04820532  0.84659365  0.60715421  1  0  0.084379  0  0.927043  0  0  0.100346  0  0.987563  0  0  0.101304  0  0.986969  0  0  0.111231  0.09961  0  0.988027  0
H  H16  1  0.95179777  0.39284979  0.15340265  1  0  0.084437  0  0.927113  0  0  0.100371  0  0.987615  0  0  0.10133  0  0.987021  0  0  0.111225  0.099634  0  0.988078  0
H  H17  1  0.32620610  0.59422697  0.52767397  1  0  0.084835  0  0.965835  0  0  0.094294  0  1.033099  0  0  0.096059  0  1.032698  0  0  0.115715  0.093003  0  1.033499  0
H  H18  1  0.67379617  0.47232992  0.40576705  1  0  0.084833  0  0.965753  0  0  0.094281  0  1.033051  0  0  0.09605  0  1.032639  0  0  0.115677  0.09299  0  1.033451  0
H  H19  1  0.48243678  0.29954199  0.49468983  1  0  0.049692  0  0.947254  0  0  0.063706  0  1.014515  0  0  0.063862  0  1.014812  0  0  0.098969  0.063514  0  1.014372  0
H  H20  1  0.51757194  0.50531538  0.70044923  1  0  0.04976  0  0.947087  0  0  0.063738  0  1.014387  0  0  0.063895  0  1.014681  0  0  0.098978  0.063546  0  1.014245  0
H  H21  1  0.25589163  0.39260543  0.67647001  1  0  0.04424  0  0.923201  0  0  0.057761  0  0.987291  0  0  0.058848  0  0.986402  0  0  0.094998  0.056959  0  0.987973  0
H  H22  1  0.74412140  0.32352761  0.60738851  1  0  0.044252  0  0.923276  0  0  0.057772  0  0.987339  0  0  0.058859  0  0.98645  0  0  0.094995  0.056968  0  0.98802  0
C  C23  1  0.12359636  0.69948883  0.99189859  1  0  0.126508  0  3.715331  0  0  0.095849  0  3.968181  0  0  0.102515  0  3.98595  0  0  0.042027  0.091582  0  3.956233  0
C  C24  1  0.87639343  0.00810748  0.30051053  1  0  0.126348  0  3.715283  0  0  0.095654  0  3.968116  0  0  0.102318  0  3.985882  0  0  0.041954  0.091385  0  3.956169  0
C  C25  1  0.12097794  0.73792817  0.84823803  1  0  -0.187041  0  3.707732  0  0  -0.203368  0  3.949859  0  0  -0.211985  0  3.970884  0  0  -0.091102  -0.197916  0  3.93602  0
C  C26  1  0.87901825  0.15176455  0.26205964  1  0  -0.18688  0  3.707535  0  0  -0.203138  0  3.949681  0  0  -0.211755  0  3.970706  0  0  -0.091082  -0.197686  0  3.93584  0
C  C27  1  0.96838965  0.75072914  0.82305652  1  0  0.127212  0  3.721113  0  0  0.145135  0  3.95817  0  0  0.149245  0  3.981141  0  0  0.006908  0.142466  0  3.942618  0
C  C28  1  0.03161010  0.17694063  0.24926136  1  0  0.127267  0  3.721161  0  0  0.145083  0  3.958277  0  0  0.149196  0  3.981246  0  0  0.006935  0.142414  0  3.942719  0
C  C29  1  0.82163698  0.72825684  0.94762928  1  0  -0.176832  0  3.719322  0  0  -0.194949  0  3.965262  0  0  -0.203376  0  3.986972  0  0  -0.088065  -0.189556  0  3.950824  0
C  C30  1  0.17836102  0.05236680  0.27174033  1  0  -0.176927  0  3.719349  0  0  -0.195009  0  3.965323  0  0  -0.203436  0  3.987036  0  0  -0.088081  -0.189614  0  3.950886  0
C  C31  1  0.83288447  0.69414845  0.08966164  1  0  0.122629  0  3.716936  0  0  0.091521  0  3.971075  0  0  0.098416  0  3.989225  0  0  0.044389  0.087041  0  3.958909  0
C  C32  1  0.16710419  0.91034309  0.30585639  1  0  0.122674  0  3.716884  0  0  0.091558  0  3.971019  0  0  0.098447  0  3.989166  0  0  0.044411  0.087077  0  3.958856  0
C  C33  1  0.96918746  0.77852926  0.66318657  1  0  -0.020359  0  3.651399  0  0  -0.085316  0  3.912061  0  0  -0.081076  0  3.920174  0  0  -0.066159  -0.088072  0  3.9064  0
C  C34  1  0.03081312  0.33681403  0.22146563  1  0  -0.020498  0  3.651517  0  0  -0.085315  0  3.912047  0  0  -0.08107  0  3.920155  0  0  -0.066134  -0.088057  0  3.906394  0
C  C35  1  0.27240636  0.52661725  0.48405559  1  0  -0.040628  0  3.596752  0  0  -0.061047  0  3.840461  0  0  -0.063374  0  3.853864  0  0  -0.01254  -0.059554  0  3.831332  0
C  C36  1  0.72759704  0.51594744  0.47337975  1  0  -0.040582  0  3.596602  0  0  -0.061011  0  3.840333  0  0  -0.06333  0  3.853733  0  0  -0.012512  -0.059504  0  3.831208  0
C  C37  1  0.38675203  0.49679456  0.29531029  1  0  0.636956  0  3.879344  0  0  0.589583  0  4.189373  0  0  0.622309  0  4.182015  0  0  0.193766  0.567337  0  4.1936  0
C  C38  1  0.61325307  0.70469565  0.50320673  1  0  0.63659  0  3.879289  0  0  0.589202  0  4.189362  0  0  0.621927  0  4.18201  0  0  0.193623  0.56696  0  4.193582  0
C  C39  1  0.32479101  0.36704228  0.54271660  1  0  0.110091  0  3.650427  0  0  0.045715  0  3.932829  0  0  0.053261  0  3.937734  0  0  -0.074219  0.04066  0  3.929372  0
C  C40  1  0.67521851  0.45728246  0.63294774  1  0  0.11005  0  3.650376  0  0  0.045724  0  3.932729  0  0  0.05327  0  3.937631  0  0  -0.074211  0.040673  0  3.929266  0
N  N41  1  0.98227326  0.67836350  0.11146969  1  0  -0.319375  0  3.275134  0  0  -0.244298  0  3.538301  0  0  -0.261393  0  3.556539  0  0  -0.324287  -0.232962  0  3.525937  0
N  N42  1  0.01771496  0.88853518  0.32164327  1  0  -0.319431  0  3.275186  0  0  -0.244239  0  3.538228  0  0  -0.261325  0  3.556458  0  0  -0.324271  -0.232904  0  3.525865  0
N  N43  1  0.06113371  0.62474196  0.54787189  1  0  -0.407483  0  3.197639  0  0  -0.339248  0  3.448511  0  0  -0.35611  0  3.457657  0  0  -0.476106  -0.327402  0  3.44203  0
N  N44  1  0.93886798  0.45212980  0.37525069  1  0  -0.407483  0  3.197653  0  0  -0.339333  0  3.448483  0  0  -0.356208  0  3.45764  0  0  -0.476139  -0.327539  0  3.442062  0
O  O45  1  0.29479400  0.52327593  0.21313263  1  0  -0.64095  0  2.068459  0  0  -0.58194  0  2.334201  0  0  -0.608091  0  2.320764  0  0  -0.342323  -0.563508  0  2.342576  0
O  O46  1  0.70519968  0.78687179  0.47672915  1  0  -0.640779  0  2.06863  0  0  -0.581743  0  2.334346  0  0  -0.607892  0  2.320916  0  0  -0.342281  -0.563315  0  2.34272  0
O  O47  1  0.56430721  0.45058101  0.23573360  1  0  -0.62587  0  1.934142  0  0  -0.589836  0  2.163853  0  0  -0.612222  0  2.153384  0  0  -0.345206  -0.573855  0  2.170406  0
O  O48  1  0.43568049  0.76427208  0.54942281  1  0  -0.62572  0  1.933724  0  0  -0.589687  0  2.163419  0  0  -0.612077  0  2.152959  0  0  -0.345115  -0.573701  0  2.169964  0
O  O49  1  0.25694480  0.27462443  0.48736446  1  0  -0.538643  0  2.026467  0  0  -0.493446  0  2.239992  0  0  -0.507442  0  2.227474  0  0  -0.403091  -0.48356  0  2.248553  0
O  O50  1  0.74306688  0.51263766  0.72536663  1  0  -0.538744  0  2.026382  0  0  -0.493568  0  2.239897  0  0  -0.507561  0  2.227373  0  0  -0.403069  -0.483683  0  2.248456  0
