# generated using pymatgen
data_ZnH20C32(NO)4
_symmetry_space_group_name_H-M   'P 1'
_cell_length_a   8.27151169
_cell_length_b   10.71065470
_cell_length_c   14.26319922
_cell_angle_alpha   97.66581413
_cell_angle_beta   91.98349287
_cell_angle_gamma   98.48639905
_symmetry_Int_Tables_number   1
_chemical_formula_structural   ZnH20C32(NO)4
_chemical_formula_sum   'Zn2 H40 C64 N8 O8'
_cell_volume   1236.71728241
_cell_formula_units_Z   2
loop_
 _symmetry_equiv_pos_site_id
 _symmetry_equiv_pos_as_xyz
  1  'x, y, z'
loop_
 _atom_site_type_symbol
 _atom_site_label
 _atom_site_symmetry_multiplicity
 _atom_site_fract_x
 _atom_site_fract_y
 _atom_site_fract_z
 _atom_site_occupancy
 _atom_site_hle17_bader_spin_density
 _atom_site_hle17_ddec_charge
 _atom_site_hle17_ddec_spin_density
 _atom_site_hle17_ddec_sum_bond_order
 _atom_site_hle17_magmom
 _atom_site_hse06_10hf_bader_spin_density
 _atom_site_hse06_10hf_ddec_charge
 _atom_site_hse06_10hf_ddec_spin_density
 _atom_site_hse06_10hf_ddec_sum_bond_order
 _atom_site_hse06_10hf_magmom
 _atom_site_hse06_bader_spin_density
 _atom_site_hse06_ddec_charge
 _atom_site_hse06_ddec_spin_density
 _atom_site_hse06_ddec_sum_bond_order
 _atom_site_hse06_magmom
 _atom_site_pbe_bader_spin_density
 _atom_site_pbe_cm5_charge
 _atom_site_pbe_ddec_charge
 _atom_site_pbe_ddec_spin_density
 _atom_site_pbe_ddec_sum_bond_order
 _atom_site_pbe_magmom
Zn  Zn0  1  0.77376002  0.28895972  0.65327396  1  0  0.96623  0  1.947672  0  0  0.774947  0  2.423892  0  0  0.821075  0  2.370033  0  0  0.692846  0.743102  0  2.460867  0
Zn  Zn1  1  0.22623964  0.71103928  0.34672624  1  0  0.966264  0  1.947686  0  0  0.774985  0  2.423905  0  0  0.82111  0  2.370046  0  0  0.692856  0.743141  0  2.46088  0
H  H2  1  0.49395806  0.18403988  0.78265042  1  0  0.079132  0  0.932666  0  0  0.08932  0  0.99449  0  0  0.091793  0  0.992502  0  0  0.119575  0.087444  0  0.996056  0
H  H3  1  0.50604059  0.81596008  0.21734846  1  0  0.079121  0  0.932664  0  0  0.089329  0  0.994476  0  0  0.091799  0  0.992492  0  0  0.119567  0.087451  0  0.996042  0
H  H4  1  0.20346684  0.07046484  0.75908397  1  0  0.104891  0  0.967071  0  0  0.114924  0  1.025087  0  0  0.117139  0  1.02616  0  0  0.10712  0.113337  0  1.024475  0
H  H5  1  0.79653301  0.92953512  0.24091704  1  0  0.104865  0  0.967068  0  0  0.114898  0  1.025087  0  0  0.117112  0  1.026159  0  0  0.1071  0.11331  0  1.024476  0
H  H6  1  0.07852623  0.01290912  0.59389661  1  0  0.106419  0  0.939175  0  0  0.119921  0  0.99238  0  0  0.122517  0  0.990947  0  0  0.110081  0.117941  0  0.993679  0
H  H7  1  0.92147139  0.98709180  0.40610515  1  0  0.106454  0  0.939175  0  0  0.119961  0  0.992369  0  0  0.122561  0  0.990937  0  0  0.11011  0.117981  0  0.993667  0
H  H8  1  0.24870697  0.06332062  0.45769735  1  0  0.13166  0  0.97949  0  0  0.139978  0  1.042446  0  0  0.14409  0  1.039395  0  0  0.109283  0.137005  0  1.044699  0
H  H9  1  0.75128824  0.93668032  0.54230365  1  0  0.131645  0  0.97953  0  0  0.139944  0  1.042506  0  0  0.144055  0  1.039456  0  0  0.109302  0.136971  0  1.044759  0
H  H10  1  0.40126249  0.13810327  0.35397868  1  0  0.126339  0  0.959427  0  0  0.134933  0  1.022142  0  0  0.13894  0  1.019821  0  0  0.112081  0.132025  0  1.023901  0
H  H11  1  0.59873596  0.86189573  0.64602010  1  0  0.126342  0  0.959385  0  0  0.134976  0  1.022053  0  0  0.138985  0  1.019739  0  0  0.112086  0.132066  0  1.023818  0
H  H12  1  0.89759361  0.30301956  0.30647080  1  0  0.131545  0  0.97411  0  0  0.137813  0  1.040283  0  0  0.141955  0  1.037721  0  0  0.114169  0.134846  0  1.04217  0
H  H13  1  0.10240589  0.69697277  0.69352875  1  0  0.131517  0  0.9741  0  0  0.13779  0  1.040261  0  0  0.141932  0  1.0377  0  0  0.114138  0.134823  0  1.042148  0
H  H14  1  0.12767407  0.37597176  0.37145638  1  0  0.125015  0  0.976987  0  0  0.130565  0  1.041094  0  0  0.135  0  1.038264  0  0  0.111338  0.127298  0  1.043262  0
H  H15  1  0.87232560  0.62402724  0.62854172  1  0  0.124985  0  0.977034  0  0  0.130543  0  1.041129  0  0  0.13498  0  1.038297  0  0  0.11131  0.127277  0  1.0433  0
H  H16  1  0.39234396  0.45028362  0.45997420  1  0  0.093527  0  0.952162  0  0  0.105608  0  1.012408  0  0  0.107917  0  1.011069  0  0  0.10712  0.103851  0  1.013607  0
H  H17  1  0.60765609  0.54971729  0.54002480  1  0  0.093543  0  0.952139  0  0  0.10563  0  1.01238  0  0  0.107941  0  1.01104  0  0  0.107145  0.103874  0  1.013577  0
H  H18  1  0.41053889  0.45742879  0.63905499  1  0  0.116178  0  0.950044  0  0  0.124989  0  1.011658  0  0  0.128758  0  1.009819  0  0  0.108492  0.122227  0  1.013169  0
H  H19  1  0.58946498  0.54257306  0.36094629  1  0  0.116166  0  0.950083  0  0  0.124992  0  1.011681  0  0  0.12876  0  1.009843  0  0  0.108497  0.122229  0  1.013193  0
H  H20  1  0.14878180  0.39426537  0.71855901  1  0  0.084759  0  0.927922  0  0  0.093316  0  0.992154  0  0  0.095842  0  0.989863  0  0  0.121807  0.091346  0  0.994042  0
H  H21  1  0.85121786  0.60573364  0.28144119  1  0  0.084732  0  0.927973  0  0  0.093315  0  0.992171  0  0  0.095844  0  0.989875  0  0  0.121809  0.091345  0  0.994061  0
H  H22  1  0.80176044  0.34819053  0.18201454  1  0  0.08577  0  0.963523  0  0  0.091987  0  1.031721  0  0  0.095128  0  1.028448  0  0  0.112571  0.089731  0  1.034055  0
H  H23  1  0.19824225  0.65180560  0.81798685  1  0  0.085769  0  0.96356  0  0  0.091988  0  1.031751  0  0  0.09513  0  1.028477  0  0  0.112563  0.089733  0  1.034086  0
H  H24  1  0.38979403  0.05951354  0.21373430  1  0  0.08966  0  0.981996  0  0  0.09921  0  1.047937  0  0  0.101236  0  1.04706  0  0  0.101575  0.097753  0  1.04853  0
H  H25  1  0.61020424  0.94048451  0.78626368  1  0  0.089702  0  0.981993  0  0  0.099261  0  1.047908  0  0  0.101286  0  1.047032  0  0  0.101592  0.097803  0  1.048504  0
H  H26  1  0.32499972  0.04512331  0.04041750  1  0  0.098175  0  0.980761  0  0  0.107104  0  1.04171  0  0  0.108828  0  1.043821  0  0  0.101708  0.10574  0  1.040541  0
H  H27  1  0.67500454  0.95488044  0.95958117  1  0  0.098141  0  0.980702  0  0  0.107028  0  1.041707  0  0  0.10875  0  1.043825  0  0  0.101681  0.105688  0  1.040511  0
H  H28  1  0.51096631  0.17906893  0.94529939  1  0  0.061319  0  0.933131  0  0  0.071407  0  0.99464  0  0  0.073833  0  0.992533  0  0  0.106588  0.069596  0  0.996418  0
H  H29  1  0.48903795  0.82093483  0.05470138  1  0  0.061263  0  0.933163  0  0  0.071382  0  0.994646  0  0  0.073809  0  0.992536  0  0  0.106562  0.06957  0  0.996423  0
H  H30  1  0.92236933  0.60185302  0.95650968  1  0  0.098022  0  0.957272  0  0  0.109278  0  1.017485  0  0  0.112311  0  1.015698  0  0  0.104354  0.107049  0  1.01893  0
H  H31  1  0.07762651  0.39814505  0.04349105  1  0  0.098  0  0.957307  0  0  0.109258  0  1.017516  0  0  0.11229  0  1.01573  0  0  0.104342  0.107028  0  1.018961  0
H  H32  1  0.78398835  0.61337912  0.10838089  1  0  0.089008  0  0.947317  0  0  0.102391  0  1.005553  0  0  0.105376  0  1.004207  0  0  0.098036  0.100312  0  1.006522  0
H  H33  1  0.21600889  0.38661990  0.89161996  1  0  0.089021  0  0.947389  0  0  0.102421  0  1.005597  0  0  0.105407  0  1.004251  0  0  0.098074  0.100326  0  1.006585  0
H  H34  1  0.47087002  0.43023382  0.80410614  1  0  0.086911  0  0.973366  0  0  0.094671  0  1.044851  0  0  0.098033  0  1.042652  0  0  0.095435  0.092335  0  1.046277  0
H  H35  1  0.52912843  0.56976519  0.19589474  1  0  0.086908  0  0.973372  0  0  0.094665  0  1.044864  0  0  0.098028  0  1.042668  0  0  0.09544  0.092329  0  1.04629  0
H  H36  1  0.92157933  0.86846386  0.75401864  1  0  0.09471  0  0.953592  0  0  0.104637  0  1.015904  0  0  0.108441  0  1.013479  0  0  0.098618  0.101984  0  1.017603  0
H  H37  1  0.07842174  0.13153608  0.24597889  1  0  0.094754  0  0.953587  0  0  0.104688  0  1.015877  0  0  0.108486  0  1.013466  0  0  0.098642  0.102035  0  1.017577  0
H  H38  1  0.99857979  0.76392422  0.88935497  1  0  0.101449  0  0.993214  0  0  0.106804  0  1.063054  0  0  0.110223  0  1.060768  0  0  0.101035  0.104358  0  1.064673  0
H  H39  1  0.00142046  0.23607764  0.11064412  1  0  0.101423  0  0.993205  0  0  0.106768  0  1.063064  0  0  0.110198  0  1.060746  0  0  0.101025  0.10432  0  1.064684  0
H  H40  1  0.92184735  0.22108953  0.93735022  1  0  0.114452  0  0.949427  0  0  0.120839  0  1.017353  0  0  0.124938  0  1.013749  0  0  0.107518  0.117922  0  1.019882  0
H  H41  1  0.07815290  0.77891233  0.06264887  1  0  0.114462  0  0.949409  0  0  0.120843  0  1.017334  0  0  0.124943  0  1.013728  0  0  0.107534  0.117927  0  1.019863  0
C  C42  1  0.43367534  0.15593470  0.71210438  1  0  0.132349  0  3.713492  0  0  0.100941  0  3.968753  0  0  0.106688  0  3.986728  0  0  0.054087  0.097259  0  3.956752  0
C  C43  1  0.56632371  0.84406716  0.28789399  1  0  0.13234  0  3.713575  0  0  0.100916  0  3.968849  0  0  0.10666  0  3.986824  0  0  0.054072  0.097235  0  3.956848  0
C  C44  1  0.27284934  0.09346953  0.69854055  1  0  -0.112026  0  3.717251  0  0  -0.124339  0  3.968369  0  0  -0.130772  0  3.990757  0  0  -0.077997  -0.12052  0  3.953983  0
C  C45  1  0.72715071  0.90653138  0.30145915  1  0  -0.111931  0  3.717109  0  0  -0.124234  0  3.968215  0  0  -0.130666  0  3.990606  0  0  -0.077955  -0.120415  0  3.953829  0
C  C46  1  0.20463770  0.06087147  0.60603464  1  0  0.006405  0  3.692161  0  0  -0.014546  0  3.945631  0  0  -0.011731  0  3.964655  0  0  -0.065959  -0.016254  0  3.933319  0
C  C47  1  0.79535872  0.93912946  0.39396708  1  0  0.006226  0  3.692354  0  0  -0.014744  0  3.945842  0  0  -0.011934  0  3.964869  0  0  -0.066038  -0.016449  0  3.933528  0
C  C48  1  0.29839346  0.09118028  0.53049122  1  0  -0.140017  0  3.669486  0  0  -0.16186  0  3.919773  0  0  -0.168214  0  3.940406  0  0  -0.079523  -0.157494  0  3.905875  0
C  C49  1  0.70160558  0.90882159  0.46950925  1  0  -0.139835  0  3.669586  0  0  -0.161658  0  3.919853  0  0  -0.168009  0  3.94049  0  0  -0.079485  -0.157292  0  3.905954  0
C  C50  1  0.45862804  0.15516925  0.55021383  1  0  0.165797  0  3.755324  0  0  0.164626  0  3.993654  0  0  0.169486  0  4.015281  0  0  0.121926  0.161696  0  3.978455  0
C  C51  1  0.54136839  0.84483168  0.44978509  1  0  0.165666  0  3.755275  0  0  0.164524  0  3.993609  0  0  0.16938  0  4.015236  0  0  0.12192  0.161594  0  3.978412  0
C  C52  1  0.57004625  0.19386742  0.47603992  1  0  0.198747  0  3.769946  0  0  0.191508  0  4.015336  0  0  0.199671  0  4.034871  0  0  0.125698  0.185805  0  4.002283  0
C  C53  1  0.42994979  0.80613160  0.52396020  1  0  0.198958  0  3.769852  0  0  0.191665  0  4.015314  0  0  0.199828  0  4.03485  0  0  0.125771  0.185962  0  4.002259  0
C  C54  1  0.52587444  0.17965569  0.37944939  1  0  -0.176665  0  3.617578  0  0  -0.202315  0  3.864238  0  0  -0.210056  0  3.88315  0  0  -0.07427  -0.197251  0  3.851784  0
C  C55  1  0.47412382  0.82034236  0.62054999  1  0  -0.176819  0  3.617644  0  0  -0.202493  0  3.864305  0  0  -0.210243  0  3.883223  0  0  -0.07437  -0.197427  0  3.851852  0
C  C56  1  0.64345557  0.21911466  0.31587960  1  0  0.12689  0  3.755561  0  0  0.137229  0  3.989211  0  0  0.144203  0  4.010593  0  0  0.019048  0.132694  0  3.975022  0
C  C57  1  0.35654250  0.78088244  0.68411898  1  0  0.126887  0  3.755602  0  0  0.137256  0  3.989203  0  0  0.144232  0  4.010583  0  0  0.019083  0.132721  0  3.975014  0
C  C58  1  0.80274069  0.27091200  0.35288535  1  0  -0.183224  0  3.629729  0  0  -0.209566  0  3.87809  0  0  -0.21791  0  3.89771  0  0  -0.073226  -0.204399  0  3.865817  0
C  C59  1  0.19725471  0.72908989  0.64711574  1  0  -0.183197  0  3.629639  0  0  -0.209544  0  3.877995  0  0  -0.217892  0  3.897614  0  0  -0.073184  -0.204375  0  3.865722  0
C  C60  1  0.83758496  0.28332976  0.45038215  1  0  0.201111  0  3.778996  0  0  0.195908  0  4.020097  0  0  0.203926  0  4.039763  0  0  0.128275  0.190238  0  4.007616  0
C  C61  1  0.16241209  0.71666830  0.54961720  1  0  0.201049  0  3.778895  0  0  0.195847  0  4.02002  0  0  0.203877  0  4.039669  0  0  0.128197  0.190176  0  4.00754  0
C  C62  1  0.00056625  0.33633022  0.49764624  1  0  0.16791  0  3.755289  0  0  0.165453  0  3.991255  0  0  0.17056  0  4.012929  0  0  0.118564  0.16224  0  3.976341  0
C  C63  1  0.99943162  0.66366592  0.50235225  1  0  0.167942  0  3.755195  0  0  0.165446  0  3.991209  0  0  0.17055  0  4.012883  0  0  0.118581  0.162234  0  3.976293  0
C  C64  1  0.13713342  0.37548535  0.44785013  1  0  -0.128445  0  3.666814  0  0  -0.146306  0  3.913335  0  0  -0.152681  0  3.932819  0  0  -0.076441  -0.142184  0  3.90035  0
C  C65  1  0.86286639  0.62452034  0.55215144  1  0  -0.128484  0  3.666771  0  0  -0.146323  0  3.913307  0  0  -0.152698  0  3.93279  0  0  -0.076421  -0.142202  0  3.900327  0
C  C66  1  0.28585123  0.41993694  0.49875690  1  0  -0.002308  0  3.711995  0  0  -0.023975  0  3.968457  0  0  -0.020661  0  3.987105  0  0  -0.069853  -0.025987  0  3.956124  0
C  C67  1  0.71415023  0.58006492  0.50124292  1  0  -0.002228  0  3.711938  0  0  -0.023917  0  3.968409  0  0  -0.020602  0  3.987055  0  0  -0.069848  -0.025929  0  3.956079  0
C  C68  1  0.29528086  0.42546405  0.59716212  1  0  -0.12225  0  3.705821  0  0  -0.136609  0  3.962552  0  0  -0.14354  0  3.984297  0  0  -0.081687  -0.132047  0  3.948385  0
C  C69  1  0.70472121  0.57453495  0.40283814  1  0  -0.122221  0  3.705881  0  0  -0.136582  0  3.962616  0  0  -0.143518  0  3.984366  0  0  -0.081658  -0.132019  0  3.948448  0
C  C70  1  0.15179816  0.38843200  0.64171358  1  0  0.147224  0  3.693558  0  0  0.113179  0  3.953121  0  0  0.119986  0  3.970838  0  0  0.055425  0.108517  0  3.941625  0
C  C71  1  0.84820170  0.61156796  0.35828672  1  0  0.147213  0  3.693518  0  0  0.113147  0  3.953089  0  0  0.119957  0  3.970805  0  0  0.055414  0.108486  0  3.941588  0
C  C72  1  0.69583366  0.27811717  0.15362879  1  0  0.081453  0  3.685661  0  0  0.05132  0  3.941719  0  0  0.056094  0  3.959522  0  0  0.049005  0.048508  0  3.929228  0
C  C73  1  0.30416842  0.72188183  0.84637147  1  0  0.081487  0  3.685607  0  0  0.051354  0  3.941668  0  0  0.056129  0  3.959468  0  0  0.049026  0.04854  0  3.92918  0
C  C74  1  0.60165495  0.20548272  0.21345963  1  0  -0.026131  0  3.781203  0  0  -0.004936  0  4.006794  0  0  -0.011944  0  4.033252  0  0  -0.013088  -0.000733  0  3.98923  0
C  C75  1  0.39834776  0.79451340  0.78653896  1  0  -0.026079  0  3.781107  0  0  -0.004898  0  4.006687  0  0  -0.011906  0  4.03314  0  0  -0.013056  -0.000696  0  3.989129  0
C  C76  1  0.46596190  0.11944449  0.17127633  1  0  -0.055451  0  3.714316  0  0  -0.080174  0  3.956348  0  0  -0.078504  0  3.977119  0  0  -0.071815  -0.080864  0  3.941984  0
C  C77  1  0.53404119  0.88055354  0.82872316  1  0  -0.055509  0  3.714281  0  0  -0.080222  0  3.956289  0  0  -0.078552  0  3.977057  0  0  -0.071824  -0.080913  0  3.941935  0
C  C78  1  0.43009421  0.11052201  0.07458101  1  0  -0.123089  0  3.766982  0  0  -0.132516  0  4.012157  0  0  -0.139632  0  4.036448  0  0  -0.088183  -0.127915  0  3.996084  0
C  C79  1  0.56991131  0.88947601  0.92541713  1  0  -0.12294  0  3.766665  0  0  -0.132349  0  4.011886  0  0  -0.139464  0  4.036177  0  0  -0.088089  -0.127766  0  3.995802  0
C  C80  1  0.53376402  0.18543862  0.02186625  1  0  0.130818  0  3.729954  0  0  0.105442  0  3.990028  0  0  0.11144  0  4.007189  0  0  0.051972  0.101576  0  3.978632  0
C  C81  1  0.46623946  0.81456132  0.97813343  1  0  0.130762  0  3.729703  0  0  0.105369  0  3.989796  0  0  0.111366  0  4.006957  0  0  0.05192  0.101503  0  3.978402  0
C  C82  1  0.78657531  0.51723787  0.77920309  1  0  0.64977  0  3.893047  0  0  0.605552  0  4.178569  0  0  0.639439  0  4.169743  0  0  0.204517  0.582517  0  4.183821  0
C  C83  1  0.21342637  0.48275922  0.22079908  1  0  0.64962  0  3.893229  0  0  0.605388  0  4.178769  0  0  0.639279  0  4.169944  0  0  0.204449  0.582353  0  4.184017  0
C  C84  1  0.70223690  0.51899289  0.87084526  1  0  -0.055178  0  3.756343  0  0  -0.032247  0  3.987474  0  0  -0.039332  0  4.010545  0  0  -0.019097  -0.027579  0  3.971646  0
C  C85  1  0.29776053  0.48100709  0.12915640  1  0  -0.055117  0  3.756232  0  0  -0.032198  0  3.987388  0  0  -0.039286  0  4.010462  0  0  -0.019109  -0.02753  0  3.971556  0
C  C86  1  0.79142211  0.56971424  0.95778859  1  0  -0.070558  0  3.747782  0  0  -0.096438  0  4.000505  0  0  -0.097228  0  4.021887  0  0  -0.086182  -0.095716  0  3.985908  0
C  C87  1  0.20857595  0.43028286  0.04221139  1  0  -0.070586  0  3.747703  0  0  -0.096468  0  4.000439  0  0  -0.097258  0  4.021822  0  0  -0.086205  -0.095745  0  3.985836  0
C  C88  1  0.71442449  0.57450668  0.04179230  1  0  -0.106799  0  3.746478  0  0  -0.128614  0  4.001463  0  0  -0.131562  0  4.022082  0  0  -0.088112  -0.126522  0  3.987458  0
C  C89  1  0.28557194  0.42549424  0.95820732  1  0  -0.10676  0  3.746329  0  0  -0.128562  0  4.001312  0  0  -0.131513  0  4.021932  0  0  -0.088097  -0.126458  0  3.987313  0
C  C90  1  0.53757188  0.47033622  0.87121845  1  0  -0.116686  0  3.716351  0  0  -0.14848  0  3.965823  0  0  -0.148675  0  3.984948  0  0  -0.086349  -0.147936  0  3.952486  0
C  C91  1  0.46242555  0.52966375  0.12878250  1  0  -0.116701  0  3.716544  0  0  -0.148514  0  3.966011  0  0  -0.148711  0  3.985142  0  0  -0.086366  -0.14797  0  3.952672  0
C  C92  1  0.54502790  0.52728957  0.04367890  1  0  0.060672  0  3.797848  0  0  0.07614  0  4.025935  0  0  0.07625  0  4.049174  0  0  -0.005179  0.075917  0  4.010544  0
C  C93  1  0.45496953  0.47271040  0.95632275  1  0  0.060715  0  3.797519  0  0  0.076113  0  4.025655  0  0  0.076226  0  4.048893  0  0  -0.005193  0.075892  0  4.010262  0
C  C94  1  0.86730515  0.10993703  0.75425682  1  0  0.622971  0  3.944866  0  0  0.576392  0  4.237122  0  0  0.610107  0  4.229926  0  0  0.193439  0.553611  0  4.240988  0
C  C95  1  0.13269509  0.89006483  0.24574368  1  0  0.622943  0  3.945038  0  0  0.576393  0  4.237284  0  0  0.610112  0  4.230085  0  0  0.193424  0.553611  0  4.241149  0
C  C96  1  0.92111041  0.05216616  0.83786540  1  0  -0.082812  0  3.800506  0  0  -0.058538  0  4.033084  0  0  -0.066011  0  4.055524  0  0  -0.028388  -0.05359  0  4.017701  0
C  C97  1  0.07888901  0.94783761  0.16213527  1  0  -0.082832  0  3.800538  0  0  -0.058663  0  4.033232  0  0  -0.066138  0  4.055677  0  0  -0.028427  -0.053711  0  4.017847  0
C  C98  1  0.94326784  0.92212787  0.82495312  1  0  -0.088969  0  3.772213  0  0  -0.111468  0  4.024081  0  0  -0.112987  0  4.044926  0  0  -0.095382  -0.11019  0  4.00955  0
C  C99  1  0.05673343  0.07787303  0.17504520  1  0  -0.089079  0  3.772456  0  0  -0.111555  0  4.024339  0  0  -0.113077  0  4.04519  0  0  -0.095433  -0.110276  0  4.009808  0
C  C100  1  0.98652724  0.86447618  0.90056247  1  0  -0.104801  0  3.736169  0  0  -0.125287  0  3.987735  0  0  -0.128107  0  4.009517  0  0  -0.087272  -0.123244  0  3.972771  0
C  C101  1  0.01347160  0.13552473  0.09943651  1  0  -0.104736  0  3.736207  0  0  -0.125198  0  3.987763  0  0  -0.128014  0  4.009551  0  0  -0.087244  -0.123157  0  3.972799  0
C  C102  1  0.01093300  0.93410534  0.99322579  1  0  0.05065  0  3.781133  0  0  0.068799  0  4.005888  0  0  0.068662  0  4.028481  0  0  -0.006989  0.068912  0  3.990476  0
C  C103  1  0.98907270  0.06589364  0.00677385  1  0  0.050683  0  3.780993  0  0  0.068792  0  4.005782  0  0  0.068654  0  4.028378  0  0  -0.006995  0.068904  0  3.990372  0
C  C104  1  0.94363093  0.12245663  0.92746539  1  0  -0.104549  0  3.680814  0  0  -0.136019  0  3.929112  0  0  -0.13493  0  3.94605  0  0  -0.078257  -0.13647  0  3.917465  0
C  C105  1  0.05636790  0.87754429  0.07253638  1  0  -0.104526  0  3.680768  0  0  -0.135954  0  3.929055  0  0  -0.134864  0  3.94599  0  0  -0.078256  -0.136407  0  3.917407  0
N  N106  1  0.52355607  0.18614434  0.63993156  1  0  -0.336308  0  3.265562  0  0  -0.267496  0  3.52813  0  0  -0.283628  0  3.543983  0  0  -0.315046  -0.256749  0  3.517208  0
N  N107  1  0.47644419  0.81385751  0.36006613  1  0  -0.336309  0  3.265722  0  0  -0.267515  0  3.528309  0  0  -0.283638  0  3.544155  0  0  -0.315047  -0.256768  0  3.517383  0
N  N108  1  0.72233791  0.24626990  0.50901009  1  0  -0.388433  0  3.325354  0  0  -0.320097  0  3.594398  0  0  -0.338219  0  3.607034  0  0  -0.331044  -0.308013  0  3.586647  0
N  N109  1  0.27765813  0.75372912  0.49099003  1  0  -0.388547  0  3.325445  0  0  -0.32019  0  3.594484  0  0  -0.338317  0  3.60712  0  0  -0.331082  -0.308105  0  3.586732  0
N  N110  1  0.00878350  0.34485626  0.59314456  1  0  -0.341115  0  3.246649  0  0  -0.271826  0  3.51438  0  0  -0.288087  0  3.528712  0  0  -0.310081  -0.260814  0  3.504616  0
N  N111  1  0.99122120  0.65514367  0.40685444  1  0  -0.341047  0  3.246532  0  0  -0.271771  0  3.514327  0  0  -0.288033  0  3.528659  0  0  -0.310078  -0.260765  0  3.504578  0
N  N112  1  0.66501689  0.26729124  0.05994238  1  0  -0.292412  0  3.084109  0  0  -0.257015  0  3.35652  0  0  -0.269168  0  3.374515  0  0  -0.314464  -0.248703  0  3.344215  0
N  N113  1  0.33498659  0.73270870  0.94005800  1  0  -0.29243  0  3.084023  0  0  -0.257042  0  3.356456  0  0  -0.269194  0  3.37445  0  0  -0.314473  -0.248729  0  3.34415  0
O  O114  1  0.70219225  0.45352205  0.70437668  1  0  -0.687128  0  2.045221  0  0  -0.618583  0  2.323914  0  0  -0.645058  0  2.307365  0  0  -0.360063  -0.599601  0  2.334237  0
O  O115  1  0.29781040  0.54647980  0.29562457  1  0  -0.687146  0  2.045393  0  0  -0.618557  0  2.324041  0  0  -0.64502  0  2.307463  0  0  -0.360025  -0.599574  0  2.334359  0
O  O116  1  0.92928530  0.57577811  0.77772743  1  0  -0.613679  0  1.928246  0  0  -0.564582  0  2.150406  0  0  -0.58717  0  2.140996  0  0  -0.317483  -0.548499  0  2.156264  0
O  O117  1  0.07071718  0.42421708  0.22227597  1  0  -0.613559  0  1.928365  0  0  -0.564458  0  2.150533  0  0  -0.587052  0  2.141121  0  0  -0.317441  -0.548377  0  2.156388  0
O  O118  1  0.86025711  0.23074759  0.76871545  1  0  -0.627991  0  2.033908  0  0  -0.554305  0  2.292952  0  0  -0.583491  0  2.280738  0  0  -0.330279  -0.533928  0  2.300503  0
O  O119  1  0.13974173  0.76925333  0.23128493  1  0  -0.627985  0  2.033918  0  0  -0.554295  0  2.292934  0  0  -0.583486  0  2.280722  0  0  -0.330272  -0.533917  0  2.300484  0
O  O120  1  0.83042443  0.04025379  0.67574285  1  0  -0.640961  0  1.939445  0  0  -0.599001  0  2.17872  0  0  -0.6206  0  2.16717  0  0  -0.331596  -0.583498  0  2.185924  0
O  O121  1  0.16957882  0.95975092  0.32425589  1  0  -0.640913  0  1.939574  0  0  -0.598962  0  2.178825  0  0  -0.62056  0  2.16727  0  0  -0.331569  -0.58346  0  2.186028  0
