# generated using pymatgen
data_ZnH20C16N6(ClO)2
_symmetry_space_group_name_H-M   'P 1'
_cell_length_a   8.88034312
_cell_length_b   8.88036521
_cell_length_c   13.75278379
_cell_angle_alpha   98.76775266
_cell_angle_beta   98.76781319
_cell_angle_gamma   106.18576854
_symmetry_Int_Tables_number   1
_chemical_formula_structural   ZnH20C16N6(ClO)2
_chemical_formula_sum   'Zn2 H40 C32 N12 Cl4 O4'
_cell_volume   1007.45291146
_cell_formula_units_Z   2
loop_
 _symmetry_equiv_pos_site_id
 _symmetry_equiv_pos_as_xyz
  1  'x, y, z'
loop_
 _atom_site_type_symbol
 _atom_site_label
 _atom_site_symmetry_multiplicity
 _atom_site_fract_x
 _atom_site_fract_y
 _atom_site_fract_z
 _atom_site_occupancy
 _atom_site_hle17_bader_spin_density
 _atom_site_hle17_ddec_charge
 _atom_site_hle17_ddec_spin_density
 _atom_site_hle17_ddec_sum_bond_order
 _atom_site_hle17_magmom
 _atom_site_hse06_10hf_bader_spin_density
 _atom_site_hse06_10hf_ddec_charge
 _atom_site_hse06_10hf_ddec_spin_density
 _atom_site_hse06_10hf_ddec_sum_bond_order
 _atom_site_hse06_10hf_magmom
 _atom_site_hse06_bader_spin_density
 _atom_site_hse06_ddec_charge
 _atom_site_hse06_ddec_spin_density
 _atom_site_hse06_ddec_sum_bond_order
 _atom_site_hse06_magmom
 _atom_site_pbe_bader_spin_density
 _atom_site_pbe_cm5_charge
 _atom_site_pbe_ddec_charge
 _atom_site_pbe_ddec_spin_density
 _atom_site_pbe_ddec_sum_bond_order
 _atom_site_pbe_magmom
Zn  Zn0  1  0.37214001  0.62786004  0.74999973  1  0  0.812623  0  2.178069  0  0  0.632496  0  2.676566  0  0  0.66906  0  2.633037  0  0  0.574115  0.60742  0  2.706213  0
Zn  Zn1  1  0.62785946  0.37213964  0.25000001  1  0  0.812607  0  2.178074  0  0  0.632481  0  2.67658  0  0  0.669035  0  2.633049  0  0  0.574103  0.607401  0  2.706217  0
H  H2  1  0.39247124  0.26256402  0.60582888  1  0  0.27793  0  0.9591  0  0  0.259462  0  1.029878  0  0  0.26654  0  1.02482  0  0  0.282255  0.25444  0  1.033457  0
H  H3  1  0.73743610  0.60752867  0.89417138  1  0  0.277925  0  0.95911  0  0  0.259458  0  1.029884  0  0  0.266535  0  1.024827  0  0  0.282255  0.254437  0  1.033465  0
H  H4  1  0.60753052  0.73743566  0.39417109  1  0  0.27791  0  0.959135  0  0  0.259445  0  1.029908  0  0  0.266524  0  1.02485  0  0  0.282249  0.254421  0  1.03349  0
H  H5  1  0.26256338  0.39247102  0.10582836  1  0  0.27793  0  0.95911  0  0  0.259467  0  1.029879  0  0  0.266544  0  1.024822  0  0  0.282267  0.254445  0  1.033461  0
H  H6  1  0.32965755  0.82972938  0.60999164  1  0  0.102243  0  0.978601  0  0  0.105544  0  1.048661  0  0  0.109595  0  1.044892  0  0  0.114664  0.102588  0  1.051456  0
H  H7  1  0.17027007  0.67034209  0.89000767  1  0  0.10225  0  0.978616  0  0  0.105558  0  1.04866  0  0  0.10961  0  1.04489  0  0  0.114667  0.1026  0  1.051454  0
H  H8  1  0.67034155  0.17026910  0.39000795  1  0  0.102222  0  0.978645  0  0  0.105527  0  1.048698  0  0  0.109578  0  1.04493  0  0  0.114644  0.102573  0  1.05149  0
H  H9  1  0.82972864  0.32965879  0.10999212  1  0  0.102234  0  0.978597  0  0  0.105533  0  1.048663  0  0  0.109585  0  1.044891  0  0  0.114661  0.102581  0  1.051455  0
H  H10  1  0.33000659  0.26798257  0.45203543  1  0  0.284763  0  0.924223  0  0  0.267308  0  0.991898  0  0  0.273629  0  0.987816  0  0  0.292686  0.262791  0  0.994912  0
H  H11  1  0.73201786  0.66999106  0.04796382  1  0  0.28476  0  0.924258  0  0  0.267304  0  0.991931  0  0  0.273624  0  0.987851  0  0  0.292697  0.262788  0  0.994947  0
H  H12  1  0.66999402  0.73201711  0.54796370  1  0  0.284762  0  0.924259  0  0  0.267288  0  0.991958  0  0  0.27361  0  0.987875  0  0  0.2927  0.262773  0  0.994974  0
H  H13  1  0.26798238  0.33000742  0.95203661  1  0  0.284752  0  0.924285  0  0  0.267308  0  0.991947  0  0  0.273628  0  0.987868  0  0  0.292726  0.262791  0  0.994963  0
H  H14  1  0.59698266  0.21999746  0.92655945  1  0  0.118164  0  0.943399  0  0  0.126139  0  1.003885  0  0  0.129438  0  1.002129  0  0  0.107488  0.123678  0  1.005382  0
H  H15  1  0.78000145  0.40301540  0.57344057  1  0  0.118151  0  0.943386  0  0  0.126125  0  1.003876  0  0  0.129424  0  1.002121  0  0  0.107487  0.123661  0  1.005373  0
H  H16  1  0.40301454  0.78000223  0.07344080  1  0  0.118158  0  0.943402  0  0  0.126135  0  1.003885  0  0  0.129434  0  1.00213  0  0  0.107494  0.123674  0  1.005381  0
H  H17  1  0.21999802  0.59698428  0.42655991  1  0  0.118155  0  0.943392  0  0  0.126129  0  1.003878  0  0  0.129428  0  1.002122  0  0  0.107481  0.123669  0  1.005378  0
H  H18  1  0.54714141  0.92201511  0.91240578  1  0  0.079457  0  0.950045  0  0  0.085747  0  1.016824  0  0  0.088613  0  1.014499  0  0  0.109211  0.083666  0  1.018526  0
H  H19  1  0.07798414  0.45285548  0.58759472  1  0  0.079488  0  0.95  0  0  0.085775  0  1.016777  0  0  0.088641  0  1.014453  0  0  0.109204  0.083694  0  1.018483  0
H  H20  1  0.45285655  0.07798338  0.08759443  1  0  0.079478  0  0.950027  0  0  0.085766  0  1.016803  0  0  0.088632  0  1.014478  0  0  0.109201  0.083685  0  1.018506  0
H  H21  1  0.92201573  0.54714180  0.41240628  1  0  0.079487  0  0.95003  0  0  0.085771  0  1.016814  0  0  0.088638  0  1.01449  0  0  0.109205  0.083689  0  1.018515  0
H  H22  1  0.50310383  0.31869020  0.77630527  1  0  0.092088  0  0.992233  0  0  0.098957  0  1.063757  0  0  0.101939  0  1.061452  0  0  0.09372  0.096775  0  1.06548  0
H  H23  1  0.68131034  0.49689606  0.72369505  1  0  0.092079  0  0.992254  0  0  0.098944  0  1.06378  0  0  0.101926  0  1.061475  0  0  0.093709  0.096759  0  1.065503  0
H  H24  1  0.49689565  0.68130948  0.22369375  1  0  0.092072  0  0.992256  0  0  0.098946  0  1.063766  0  0  0.101928  0  1.061462  0  0  0.093708  0.096762  0  1.065488  0
H  H25  1  0.31868951  0.50310482  0.27630485  1  0  0.092077  0  0.992215  0  0  0.098944  0  1.063744  0  0  0.101926  0  1.061439  0  0  0.093711  0.096762  0  1.065468  0
H  H26  1  0.22940474  0.96447958  0.30517894  1  0  0.065339  0  0.932318  0  0  0.081724  0  0.994935  0  0  0.082007  0  0.995558  0  0  0.105638  0.081432  0  0.994649  0
H  H27  1  0.03552020  0.77059637  0.19482114  1  0  0.065359  0  0.932305  0  0  0.081726  0  0.994932  0  0  0.082008  0  0.995555  0  0  0.105635  0.081434  0  0.994646  0
H  H28  1  0.77059474  0.03552010  0.69482008  1  0  0.065349  0  0.932313  0  0  0.081716  0  0.994943  0  0  0.081997  0  0.995564  0  0  0.105628  0.081425  0  0.994657  0
H  H29  1  0.96447965  0.22940452  0.80517803  1  0  0.065351  0  0.932325  0  0  0.081716  0  0.994937  0  0  0.081998  0  0.99556  0  0  0.105628  0.081425  0  0.994648  0
H  H30  1  0.26386937  0.15986966  0.28002281  1  0  0.050826  0  0.932671  0  0  0.067536  0  0.999011  0  0  0.0671  0  0.999831  0  0  0.096508  0.067739  0  0.998596  0
H  H31  1  0.84012959  0.73613085  0.21997658  1  0  0.050811  0  0.932655  0  0  0.067501  0  0.999015  0  0  0.067064  0  0.999836  0  0  0.096499  0.067706  0  0.998596  0
H  H32  1  0.73613124  0.84013002  0.71997632  1  0  0.050811  0  0.932666  0  0  0.067506  0  0.999018  0  0  0.067067  0  0.999838  0  0  0.096501  0.067711  0  0.998598  0
H  H33  1  0.15987140  0.26387003  0.78002343  1  0  0.05083  0  0.932686  0  0  0.067512  0  0.999031  0  0  0.067074  0  0.999853  0  0  0.096519  0.067715  0  0.998616  0
H  H34  1  0.00544311  0.17159395  0.32399494  1  0  0.060941  0  0.956253  0  0  0.076047  0  1.022513  0  0  0.075571  0  1.025401  0  0  0.081424  0.076327  0  1.020565  0
H  H35  1  0.82840478  0.99455623  0.17600498  1  0  0.060939  0  0.956253  0  0  0.076044  0  1.022511  0  0  0.075569  0  1.025398  0  0  0.081418  0.076325  0  1.020564  0
H  H36  1  0.99455674  0.82840694  0.67600423  1  0  0.060961  0  0.956252  0  0  0.076079  0  1.022502  0  0  0.075602  0  1.02539  0  0  0.081441  0.076361  0  1.020549  0
H  H37  1  0.17159507  0.00544465  0.82399492  1  0  0.060953  0  0.956255  0  0  0.076062  0  1.022502  0  0  0.075586  0  1.025389  0  0  0.081428  0.076339  0  1.020558  0
H  H38  1  0.97003855  0.98130773  0.35556758  1  0  0.073646  0  0.926888  0  0  0.093193  0  0.983004  0  0  0.094041  0  0.983393  0  0  0.089021  0.092492  0  0.98284  0
H  H39  1  0.01869033  0.02996146  0.14443165  1  0  0.073644  0  0.926952  0  0  0.093176  0  0.983079  0  0  0.094024  0  0.983469  0  0  0.089001  0.092478  0  0.982917  0
H  H40  1  0.02996206  0.01869195  0.64443228  1  0  0.073648  0  0.926908  0  0  0.093195  0  0.983025  0  0  0.094043  0  0.983415  0  0  0.089022  0.092496  0  0.982861  0
H  H41  1  0.98130953  0.97003942  0.85556752  1  0  0.073662  0  0.926941  0  0  0.093194  0  0.983065  0  0  0.094041  0  0.983455  0  0  0.08901  0.092496  0  0.9829  0
C  C42  1  0.41229486  0.08249208  0.67912695  1  0  0.246602  0  3.791395  0  0  0.244978  0  4.032947  0  0  0.251439  0  4.053591  0  0  0.116241  0.240188  0  4.019163  0
C  C43  1  0.91750765  0.58770569  0.82087265  1  0  0.246625  0  3.791406  0  0  0.245011  0  4.032937  0  0  0.251472  0  4.053581  0  0  0.116258  0.240215  0  4.019157  0
C  C44  1  0.58770576  0.91750760  0.32087218  1  0  0.246602  0  3.79145  0  0  0.244999  0  4.032981  0  0  0.251463  0  4.053625  0  0  0.116238  0.240204  0  4.0192  0
C  C45  1  0.08249106  0.41229519  0.17912714  1  0  0.246505  0  3.791498  0  0  0.244916  0  4.03301  0  0  0.251374  0  4.053655  0  0  0.116237  0.240127  0  4.019229  0
C  C46  1  0.38787394  0.91902024  0.67852743  1  0  0.022198  0  3.629261  0  0  -0.018248  0  3.882997  0  0  -0.014427  0  3.898536  0  0  0.035462  -0.020749  0  3.8727  0
C  C47  1  0.08097922  0.61212618  0.82147265  1  0  0.022143  0  3.629291  0  0  -0.018313  0  3.883023  0  0  -0.014489  0  3.898563  0  0  0.035443  -0.020806  0  3.872718  0
C  C48  1  0.61212668  0.08097944  0.32147243  1  0  0.022172  0  3.62929  0  0  -0.018294  0  3.883031  0  0  -0.014472  0  3.89857  0  0  0.035463  -0.020798  0  3.872737  0
C  C49  1  0.91901949  0.38787469  0.17852786  1  0  0.022251  0  3.629367  0  0  -0.01821  0  3.883092  0  0  -0.014386  0  3.898632  0  0  0.035485  -0.020717  0  3.872799  0
C  C50  1  0.29673290  0.05232135  0.49798696  1  0  0.71687  0  3.895434  0  0  0.650592  0  4.198334  0  0  0.685234  0  4.193554  0  0  0.324707  0.627119  0  4.200822  0
C  C51  1  0.94767900  0.70327298  0.00201241  1  0  0.716772  0  3.895587  0  0  0.650425  0  4.198586  0  0  0.685067  0  4.19381  0  0  0.324677  0.62695  0  4.201077  0
C  C52  1  0.70326697  0.94767593  0.50201259  1  0  0.716819  0  3.895601  0  0  0.65052  0  4.198527  0  0  0.685165  0  4.193748  0  0  0.324691  0.62704  0  4.201023  0
C  C53  1  0.05232084  0.29673150  0.99798712  1  0  0.716836  0  3.895539  0  0  0.65056  0  4.198451  0  0  0.685202  0  4.193674  0  0  0.324718  0.627079  0  4.200948  0
C  C54  1  0.53635952  0.13636596  0.85584669  1  0  -0.078172  0  3.746645  0  0  -0.091403  0  3.998906  0  0  -0.094034  0  4.01691  0  0  -0.078387  -0.089826  0  3.986983  0
C  C55  1  0.86363478  0.46363834  0.64415276  1  0  -0.078142  0  3.746651  0  0  -0.091384  0  3.998927  0  0  -0.094012  0  4.016929  0  0  -0.078404  -0.089798  0  3.986997  0
C  C56  1  0.46363882  0.86363372  0.14415221  1  0  -0.078176  0  3.746653  0  0  -0.091418  0  3.998925  0  0  -0.094047  0  4.016929  0  0  -0.078422  -0.089837  0  3.986999  0
C  C57  1  0.13636697  0.53636134  0.35584721  1  0  -0.078198  0  3.746607  0  0  -0.09143  0  3.998877  0  0  -0.094058  0  4.016879  0  0  -0.078392  -0.089846  0  3.986953  0
C  C58  1  0.50973137  0.97269257  0.84904487  1  0  0.090574  0  3.718594  0  0  0.056228  0  3.9712  0  0  0.062569  0  3.987249  0  0  0.031391  0.052009  0  3.960407  0
C  C59  1  0.02730725  0.49026796  0.65095591  1  0  0.090524  0  3.718619  0  0  0.056176  0  3.971225  0  0  0.062518  0  3.987275  0  0  0.031405  0.051948  0  3.960442  0
C  C60  1  0.49026811  0.02730710  0.15095560  1  0  0.09051  0  3.718655  0  0  0.056167  0  3.971253  0  0  0.062509  0  3.987303  0  0  0.031401  0.051945  0  3.960462  0
C  C61  1  0.97269185  0.50973052  0.34904368  1  0  0.090569  0  3.718594  0  0  0.056233  0  3.971177  0  0  0.062572  0  3.987229  0  0  0.031426  0.052014  0  3.96038  0
C  C62  1  0.48636029  0.19116352  0.77120985  1  0  -0.118888  0  3.676825  0  0  -0.141103  0  3.923468  0  0  -0.141712  0  3.94084  0  0  -0.077632  -0.14049  0  3.911873  0
C  C63  1  0.80883569  0.51364020  0.72879042  1  0  -0.118905  0  3.67682  0  0  -0.141115  0  3.923455  0  0  -0.141723  0  3.940826  0  0  -0.077621  -0.140497  0  3.911851  0
C  C64  1  0.51364032  0.80883616  0.22879001  1  0  -0.118845  0  3.676817  0  0  -0.141065  0  3.923464  0  0  -0.141674  0  3.940835  0  0  -0.077592  -0.140448  0  3.911862  0
C  C65  1  0.19116379  0.48635948  0.27120860  1  0  -0.118859  0  3.67673  0  0  -0.14109  0  3.923386  0  0  -0.141699  0  3.940758  0  0  -0.077658  -0.140478  0  3.911792  0
C  C66  1  0.20555151  0.07886346  0.32568617  1  0  0.072618  0  3.669269  0  0  0.011116  0  3.939378  0  0  0.016565  0  3.951317  0  0  -0.064081  0.007473  0  3.93114  0
C  C67  1  0.92113663  0.79444807  0.17431252  1  0  0.07265  0  3.669253  0  0  0.011185  0  3.939333  0  0  0.016635  0  3.951273  0  0  -0.06404  0.00754  0  3.931095  0
C  C68  1  0.79444835  0.92113742  0.67431301  1  0  0.07266  0  3.669245  0  0  0.011195  0  3.939337  0  0  0.016653  0  3.951264  0  0  -0.06404  0.00755  0  3.931099  0
C  C69  1  0.07886436  0.20555281  0.82568677  1  0  0.072621  0  3.669317  0  0  0.011213  0  3.939329  0  0  0.016663  0  3.951267  0  0  -0.064034  0.007567  0  3.931091  0
C  C70  1  0.02497644  0.05461017  0.30477225  1  0  -0.135194  0  3.681021  0  0  -0.172616  0  3.941093  0  0  -0.174752  0  3.956012  0  0  -0.16893  -0.170939  0  3.930684  0
C  C71  1  0.94538970  0.97502286  0.19522708  1  0  -0.135224  0  3.681126  0  0  -0.172637  0  3.941191  0  0  -0.174774  0  3.956111  0  0  -0.168926  -0.170967  0  3.930794  0
C  C72  1  0.97502341  0.94539071  0.69522765  1  0  -0.135262  0  3.681114  0  0  -0.172707  0  3.941214  0  0  -0.174847  0  3.956133  0  0  -0.168978  -0.17104  0  3.930812  0
C  C73  1  0.05460978  0.02497683  0.80477194  1  0  -0.135244  0  3.68117  0  0  -0.172666  0  3.941222  0  0  -0.174802  0  3.95614  0  0  -0.168957  -0.170998  0  3.930827  0
N  N74  1  0.43557700  0.86843073  0.76179292  1  0  -0.312377  0  3.431183  0  0  -0.223404  0  3.707033  0  0  -0.240773  0  3.725221  0  0  -0.344924  -0.21165  0  3.694582  0
N  N75  1  0.13156994  0.56442200  0.73820719  1  0  -0.31232  0  3.431142  0  0  -0.223333  0  3.70697  0  0  -0.240708  0  3.725166  0  0  -0.344899  -0.21158  0  3.694519  0
N  N76  1  0.56442248  0.13156895  0.23820683  1  0  -0.3123  0  3.431156  0  0  -0.223315  0  3.706988  0  0  -0.240687  0  3.72518  0  0  -0.344895  -0.211559  0  3.694532  0
N  N77  1  0.86842917  0.43557648  0.26179240  1  0  -0.312366  0  3.431192  0  0  -0.223387  0  3.707032  0  0  -0.240756  0  3.725221  0  0  -0.34492  -0.211633  0  3.694579  0
N  N78  1  0.36710683  0.14043997  0.59558005  1  0  -0.491704  0  3.345926  0  0  -0.433656  0  3.578729  0  0  -0.456601  0  3.587172  0  0  -0.409776  -0.417702  0  3.572537  0
N  N79  1  0.85956052  0.63289325  0.90442029  1  0  -0.491686  0  3.345908  0  0  -0.433616  0  3.578723  0  0  -0.456561  0  3.587169  0  0  -0.409796  -0.417665  0  3.572538  0
N  N80  1  0.63289492  0.85955971  0.40441920  1  0  -0.491687  0  3.345962  0  0  -0.433637  0  3.578759  0  0  -0.456591  0  3.587213  0  0  -0.409796  -0.417675  0  3.572567  0
N  N81  1  0.14043896  0.36710643  0.09558018  1  0  -0.491668  0  3.345941  0  0  -0.433632  0  3.578737  0  0  -0.456574  0  3.587179  0  0  -0.409813  -0.41768  0  3.572552  0
N  N82  1  0.28281211  0.14690716  0.43015095  1  0  -0.488676  0  3.312026  0  0  -0.43194  0  3.570115  0  0  -0.453903  0  3.578173  0  0  -0.437989  -0.416688  0  3.564154  0
N  N83  1  0.85309194  0.71718701  0.06984905  1  0  -0.488694  0  3.312073  0  0  -0.431931  0  3.57016  0  0  -0.453893  0  3.578219  0  0  -0.438038  -0.41668  0  3.564201  0
N  N84  1  0.71718814  0.85309132  0.56984875  1  0  -0.488625  0  3.312129  0  0  -0.431876  0  3.570233  0  0  -0.453841  0  3.578288  0  0  -0.437991  -0.416624  0  3.564273  0
N  N85  1  0.14690753  0.28281267  0.93015142  1  0  -0.488621  0  3.312132  0  0  -0.43193  0  3.570221  0  0  -0.453893  0  3.57828  0  0  -0.438025  -0.41667  0  3.564256  0
Cl  Cl86  1  0.48167856  0.58024476  0.89571544  1  0  -0.533278  0  1.024864  0  0  -0.469728  0  1.314913  0  0  -0.482649  0  1.289766  0  0  -0.266865  -0.460473  0  1.332215  0
Cl  Cl87  1  0.41975523  0.51832243  0.60428415  1  0  -0.533285  0  1.024869  0  0  -0.469725  0  1.314909  0  0  -0.482652  0  1.289771  0  0  -0.266858  -0.460469  0  1.332212  0
Cl  Cl88  1  0.51832206  0.41975492  0.10428442  1  0  -0.53327  0  1.024869  0  0  -0.469718  0  1.314909  0  0  -0.482642  0  1.289771  0  0  -0.26685  -0.460461  0  1.33221  0
Cl  Cl89  1  0.58024424  0.48167725  0.39571560  1  0  -0.533272  0  1.024863  0  0  -0.469716  0  1.31491  0  0  -0.482637  0  1.289765  0  0  -0.266856  -0.460459  0  1.332209  0
O  O90  1  0.25141782  0.90374444  0.47566737  1  0  -0.602272  0  1.877784  0  0  -0.558719  0  2.092707  0  0  -0.579952  0  2.084996  0  0  -0.318887  -0.543906  0  2.097497  0
O  O91  1  0.09625486  0.74859270  0.02433071  1  0  -0.602181  0  1.87789  0  0  -0.558613  0  2.092849  0  0  -0.579847  0  2.085145  0  0  -0.318834  -0.543796  0  2.097638  0
O  O92  1  0.74858357  0.09625404  0.52433172  1  0  -0.602277  0  1.877872  0  0  -0.558702  0  2.092791  0  0  -0.579935  0  2.08508  0  0  -0.318867  -0.54388  0  2.097578  0
O  O93  1  0.90374382  0.25141538  0.97566761  1  0  -0.602285  0  1.877854  0  0  -0.558722  0  2.092768  0  0  -0.579957  0  2.085062  0  0  -0.318898  -0.543901  0  2.097553  0
