# generated using pymatgen
data_Ag2H2C2N6O13
_symmetry_space_group_name_H-M   'P 1'
_cell_length_a   8.66040049
_cell_length_b   8.96230125
_cell_length_c   15.28492429
_cell_angle_alpha   89.99993441
_cell_angle_beta   90.00010755
_cell_angle_gamma   89.99985347
_symmetry_Int_Tables_number   1
_chemical_formula_structural   Ag2H2C2N6O13
_chemical_formula_sum   'Ag8 H8 C8 N24 O52'
_cell_volume   1186.37177438
_cell_formula_units_Z   4
loop_
 _symmetry_equiv_pos_site_id
 _symmetry_equiv_pos_as_xyz
  1  'x, y, z'
loop_
 _atom_site_type_symbol
 _atom_site_label
 _atom_site_symmetry_multiplicity
 _atom_site_fract_x
 _atom_site_fract_y
 _atom_site_fract_z
 _atom_site_occupancy
 _atom_site_hle17_bader_spin_density
 _atom_site_hle17_ddec_charge
 _atom_site_hle17_ddec_spin_density
 _atom_site_hle17_ddec_sum_bond_order
 _atom_site_hle17_magmom
 _atom_site_hse06_10hf_bader_charge
 _atom_site_hse06_10hf_bader_spin_density
 _atom_site_hse06_10hf_ddec_charge
 _atom_site_hse06_10hf_ddec_spin_density
 _atom_site_hse06_10hf_ddec_sum_bond_order
 _atom_site_hse06_10hf_magmom
 _atom_site_hse06_bader_charge
 _atom_site_hse06_bader_spin_density
 _atom_site_hse06_ddec_charge
 _atom_site_hse06_ddec_spin_density
 _atom_site_hse06_ddec_sum_bond_order
 _atom_site_hse06_magmom
 _atom_site_pbe_bader_spin_density
 _atom_site_pbe_cm5_charge
 _atom_site_pbe_ddec_charge
 _atom_site_pbe_ddec_spin_density
 _atom_site_pbe_ddec_sum_bond_order
 _atom_site_pbe_magmom
Ag  Ag0  1  0.91210477  0.49658282  0.57930054  1  0  0.686794  0  1.124249  0  0.796765  0  0.579957  0  1.516517  0  0.813902  0  0.606808  0  1.465112  0  0  0.46461  0.562829  0  1.552097  0
Ag  Ag1  1  0.08789725  0.50341516  0.07930089  1  0  0.686838  0  1.12405  0  0.796766  0  0.579978  0  1.516506  0  0.813891  0  0.606829  0  1.465101  0  0  0.464625  0.562851  0  1.552083  0
Ag  Ag2  1  0.41210314  0.00341769  0.57930044  1  0  0.686809  0  1.12423  0  0.796769  0  0.579977  0  1.516508  0  0.813898  0  0.606827  0  1.465103  0  0  0.464618  0.562848  0  1.552088  0
Ag  Ag3  1  0.58789425  0.99658364  0.07930034  1  0  0.687043  0  1.124058  0  0.796728  0  0.57997  0  1.516518  0  0.8139  0  0.606819  0  1.465113  0  0  0.464621  0.562841  0  1.552096  0
Ag  Ag4  1  0.61074574  0.75021986  0.78876747  1  0  0.770899  0  1.013023  0  0.789014  0  0.672949  0  1.389533  0  0.806929  0  0.698116  0  1.339922  0  0  0.465576  0.656298  0  1.424159  0
Ag  Ag5  1  0.38925351  0.24978776  0.28876963  1  0  0.770837  0  1.013196  0  0.788975  0  0.672937  0  1.389597  0  0.8069  0  0.698109  0  1.339976  0  0  0.465562  0.656286  0  1.424225  0
Ag  Ag6  1  0.11074346  0.74978308  0.78876852  1  0  0.770898  0  1.013065  0  0.788961  0  0.672919  0  1.389618  0  0.806952  0  0.698095  0  1.33999  0  0  0.465574  0.656271  0  1.424248  0
Ag  Ag7  1  0.88925348  0.25021784  0.28876924  1  0  0.770798  0  1.013182  0  0.789  0  0.672956  0  1.389555  0  0.806946  0  0.698118  0  1.339956  0  0  0.465573  0.656306  0  1.424182  0
H  H8  1  0.36018373  0.64912995  0.89524091  1  0  0.427988  0  0.845437  0  0.652376  0  0.399838  0  0.918737  0  0.665452  0  0.408001  0  0.909943  0  0  0.305893  0.394102  0  0.924863  0
H  H9  1  0.63981818  0.35086965  0.39524065  1  0  0.427998  0  0.845434  0  0.65238  0  0.399852  0  0.918727  0  0.665464  0  0.408015  0  0.909928  0  0  0.305884  0.394115  0  0.924855  0
H  H10  1  0.86018113  0.85087105  0.89524111  1  0  0.428029  0  0.845434  0  0.652369  0  0.399861  0  0.918761  0  0.665286  0  0.408025  0  0.909963  0  0  0.305881  0.394124  0  0.92489  0
H  H11  1  0.13981732  0.14912967  0.39524111  1  0  0.427957  0  0.845511  0  0.652375  0  0.399835  0  0.918757  0  0.665452  0  0.407998  0  0.909961  0  0  0.305888  0.394098  0  0.924883  0
H  H12  1  0.35913508  0.82042077  0.90726905  1  0  0.42275  0  0.860146  0  0.648883  0  0.393086  0  0.934998  0  0.660228  0  0.402445  0  0.923525  0  0  0.300267  0.386499  0  0.942032  0
H  H13  1  0.64086572  0.17957992  0.40726759  1  0  0.422657  0  0.860303  0  0.648915  0  0.393098  0  0.934985  0  0.660258  0  0.402455  0  0.923513  0  0  0.300277  0.386511  0  0.942017  0
H  H14  1  0.85913293  0.67958021  0.90726871  1  0  0.422738  0  0.860157  0  0.648913  0  0.393068  0  0.93503  0  0.660233  0  0.402426  0  0.923555  0  0  0.300258  0.386482  0  0.942061  0
H  H15  1  0.14086440  0.32042048  0.40726924  1  0  0.422653  0  0.860318  0  0.648884  0  0.3931  0  0.934985  0  0.660229  0  0.402459  0  0.923507  0  0  0.300273  0.386513  0  0.942017  0
C  C16  1  0.40403819  0.50586454  0.58411285  1  0  0.052266  0  3.429563  0  1.175019  0  -0.035932  0  3.711401  0  1.298914  0  -0.046418  0  3.72417  0  0  0.257966  -0.029848  0  3.703312  0
C  C17  1  0.59596268  0.49413455  0.08411244  1  0  0.050869  0  3.430075  0  1.175023  0  -0.035824  0  3.711295  0  1.298877  0  -0.046306  0  3.724062  0  0  0.258027  -0.029735  0  3.703206  0
C  C18  1  0.90403752  0.99413250  0.58411164  1  0  0.052322  0  3.429442  0  1.175042  0  -0.035929  0  3.711295  0  1.298888  0  -0.046403  0  3.724049  0  0  0.257912  -0.029845  0  3.703204  0
C  C19  1  0.09596221  0.00586548  0.08411234  1  0  0.050682  0  3.430316  0  1.17499  0  -0.035958  0  3.711384  0  1.29887  0  -0.046444  0  3.724154  0  0  0.257981  -0.029874  0  3.703298  0
C  C20  1  0.97979840  0.71248847  0.32779124  1  0  0.033415  0  3.460227  0  1.201269  0  -0.057966  0  3.75066  0  1.290343  0  -0.067035  0  3.76086  0  0  0.250881  -0.052604  0  3.744406  0
C  C21  1  0.02020906  0.28751015  0.82779204  1  0  0.032064  0  3.460907  0  1.200775  0  -0.058068  0  3.750765  0  1.290361  0  -0.067134  0  3.76096  0  0  0.250864  -0.052687  0  3.744489  0
C  C22  1  0.47979486  0.78751111  0.32779160  1  0  0.032048  0  3.460845  0  1.201236  0  -0.057999  0  3.750764  0  1.290493  0  -0.067068  0  3.760963  0  0  0.250898  -0.052627  0  3.744499  0
C  C23  1  0.52020336  0.21248750  0.82779233  1  0  0.032133  0  3.46083  0  1.200844  0  -0.05795  0  3.750715  0  1.290317  0  -0.067017  0  3.760914  0  0  0.250925  -0.052583  0  3.744453  0
N  N24  1  0.94519860  0.64063747  0.40544227  1  0  0.45627  0  4.015126  0  0.213195  0  0.507929  0  4.282876  0  0.218446  0  0.531775  0  4.294694  0  0  0.020446  0.491961  0  4.274602  0
N  N25  1  0.05480565  0.35936099  0.90544371  1  0  0.456294  0  4.015325  0  0.213613  0  0.507936  0  4.282841  0  0.218411  0  0.531782  0  4.294661  0  0  0.020441  0.491965  0  4.274566  0
N  N26  1  0.44519603  0.85936205  0.40544258  1  0  0.456462  0  4.015242  0  0.213213  0  0.507939  0  4.28293  0  0.218382  0  0.531787  0  4.294749  0  0  0.020469  0.491969  0  4.274655  0
N  N27  1  0.55480360  0.14063753  0.90544340  1  0  0.456471  0  4.015222  0  0.212917  0  0.507943  0  4.282935  0  0.218444  0  0.53179  0  4.294757  0  0  0.020474  0.491975  0  4.274663  0
N  N28  1  0.56632284  0.50362831  0.58225490  1  0  0.463331  0  3.977658  0  0.297991  0  0.521623  0  4.234998  0  0.251019  0  0.545949  0  4.243873  0  0  0.034124  0.505445  0  4.228943  0
N  N29  1  0.43367688  0.49637301  0.08225562  1  0  0.463649  0  3.9774  0  0.298016  0  0.521686  0  4.234781  0  0.251769  0  0.546012  0  4.243654  0  0  0.03417  0.505505  0  4.228729  0
N  N30  1  0.06632336  0.99637068  0.58225577  1  0  0.463378  0  3.977561  0  0.298002  0  0.521766  0  4.234784  0  0.251794  0  0.54609  0  4.243658  0  0  0.034248  0.505587  0  4.228727  0
N  N31  1  0.93367635  0.00362730  0.08225540  1  0  0.463663  0  3.977548  0  0.298005  0  0.521744  0  4.234827  0  0.251761  0  0.546072  0  4.2437  0  0  0.034176  0.505565  0  4.228775  0
N  N32  1  0.02445225  0.63805125  0.25223069  1  0  0.450543  0  4.018791  0  0.250115  0  0.50399  0  4.282715  0  0.247708  0  0.528188  0  4.293684  0  0  0.0218  0.487774  0  4.274985  0
N  N33  1  0.97555034  0.36194528  0.75223180  1  0  0.453252  0  4.018221  0  0.250148  0  0.503896  0  4.282715  0  0.247624  0  0.528093  0  4.293684  0  0  0.021773  0.48767  0  4.274982  0
N  N34  1  0.52445077  0.86194737  0.25223088  1  0  0.453286  0  4.018168  0  0.250119  0  0.50385  0  4.282768  0  0.247706  0  0.528047  0  4.293738  0  0  0.021754  0.487629  0  4.275038  0
N  N35  1  0.47554720  0.13805139  0.75223161  1  0  0.453318  0  4.018182  0  0.25008  0  0.503923  0  4.28273  0  0.247833  0  0.52812  0  4.2937  0  0  0.021795  0.487703  0  4.274999  0
N  N36  1  0.32922752  0.60916952  0.63879607  1  0  0.46497  0  3.981363  0  0.264185  0  0.51917  0  4.243417  0  0.27184  0  0.543927  0  4.252627  0  0  0.033333  0.502638  0  4.237182  0
N  N37  1  0.67077239  0.39082946  0.13879516  1  0  0.465179  0  3.981316  0  0.264197  0  0.519052  0  4.243488  0  0.271884  0  0.543807  0  4.252698  0  0  0.033294  0.502517  0  4.237257  0
N  N38  1  0.82922712  0.89082871  0.63879559  1  0  0.464945  0  3.98133  0  0.264205  0  0.519165  0  4.243352  0  0.2719  0  0.54392  0  4.252564  0  0  0.033384  0.502633  0  4.237115  0
N  N39  1  0.17076932  0.10917251  0.13879498  1  0  0.465324  0  3.981503  0  0.264318  0  0.519232  0  4.243596  0  0.271321  0  0.543989  0  4.252804  0  0  0.033366  0.502699  0  4.237366  0
N  N40  1  0.98485799  0.87349957  0.32693806  1  0  0.462023  0  4.008106  0  0.36493  0  0.520369  0  4.27757  0  0.328919  0  0.544492  0  4.282553  0  0  0.050934  0.504044  0  4.274557  0
N  N41  1  0.01514715  0.12650017  0.82694093  1  0  0.462299  0  4.007979  0  0.36513  0  0.520362  0  4.277567  0  0.328554  0  0.544488  0  4.282548  0  0  0.050868  0.504034  0  4.274555  0
N  N42  1  0.48485258  0.62650112  0.32693919  1  0  0.462393  0  4.007808  0  0.365208  0  0.52044  0  4.277404  0  0.328652  0  0.544563  0  4.282385  0  0  0.050935  0.504113  0  4.274394  0
N  N43  1  0.51514449  0.37349861  0.82693915  1  0  0.462375  0  4.007704  0  0.364927  0  0.520501  0  4.277217  0  0.32893  0  0.544624  0  4.282197  0  0  0.051004  0.504176  0  4.274204  0
N  N44  1  0.32211130  0.40934485  0.52803274  1  0  0.464013  0  3.97639  0  0.31817  0  0.516269  0  4.245153  0  0.295009  0  0.540199  0  4.253924  0  0  0.036704  0.500386  0  4.239298  0
N  N45  1  0.67788824  0.59065547  0.02803301  1  0  0.467261  0  3.975656  0  0.318223  0  0.516256  0  4.245173  0  0.295011  0  0.540184  0  4.253946  0  0  0.036731  0.500372  0  4.239321  0
N  N46  1  0.82211054  0.09065376  0.52803181  1  0  0.464019  0  3.976397  0  0.318164  0  0.51627  0  4.245166  0  0.295023  0  0.540195  0  4.253939  0  0  0.036739  0.500387  0  4.239309  0
N  N47  1  0.17788900  0.90934544  0.02803329  1  0  0.467268  0  3.97568  0  0.318153  0  0.516259  0  4.245174  0  0.294992  0  0.540188  0  4.253948  0  0  0.036696  0.500376  0  4.239322  0
O  O48  1  0.94057181  0.71834290  0.47446712  1  0  -0.387027  0  1.810278  0  -0.501668  0  -0.384467  0  2.044281  0  -0.515276  0  -0.402345  0  2.040245  0  0  -0.167078  -0.371871  0  2.046774  0
O  O49  1  0.05943036  0.28165655  0.97446862  1  0  -0.386792  0  1.810153  0  -0.501735  0  -0.384457  0  2.044224  0  -0.515334  0  -0.402333  0  2.040182  0  0  -0.167073  -0.371864  0  2.046719  0
O  O50  1  0.44057060  0.78165650  0.47446683  1  0  -0.386908  0  1.810207  0  -0.501674  0  -0.384451  0  2.044284  0  -0.515282  0  -0.402323  0  2.040232  0  0  -0.167071  -0.371857  0  2.046778  0
O  O51  1  0.55942926  0.21834183  0.97446825  1  0  -0.38688  0  1.810171  0  -0.501694  0  -0.384483  0  2.044296  0  -0.515307  0  -0.402358  0  2.040252  0  0  -0.167092  -0.37189  0  2.04679  0
O  O52  1  0.92054173  0.50249887  0.40684172  1  0  -0.37134  0  1.885059  0  -0.487172  0  -0.35528  0  2.124042  0  -0.500733  0  -0.371061  0  2.116793  0  0  -0.139174  -0.344161  0  2.128726  0
O  O53  1  0.07946137  0.49749959  0.90684244  1  0  -0.371061  0  1.884918  0  -0.487142  0  -0.355239  0  2.124036  0  -0.500684  0  -0.371023  0  2.116789  0  0  -0.139147  -0.344116  0  2.128715  0
O  O54  1  0.42054110  0.99750182  0.40684194  1  0  -0.371223  0  1.884943  0  -0.48718  0  -0.355284  0  2.124007  0  -0.500743  0  -0.37107  0  2.11676  0  0  -0.13919  -0.344165  0  2.128691  0
O  O55  1  0.57945969  0.00249776  0.90684288  1  0  -0.371166  0  1.884858  0  -0.486488  0  -0.355306  0  2.124062  0  -0.500733  0  -0.371091  0  2.116816  0  0  -0.139203  -0.344176  0  2.128718  0
O  O56  1  0.64045689  0.53767633  0.64984963  1  0  -0.360313  0  1.880032  0  -0.469621  0  -0.360662  0  2.127625  0  -0.481537  0  -0.374734  0  2.119323  0  0  -0.134601  -0.351407  0  2.133578  0
O  O57  1  0.35954536  0.46232710  0.14985227  1  0  -0.36028  0  1.879929  0  -0.469651  0  -0.360725  0  2.127582  0  -0.481588  0  -0.374797  0  2.119279  0  0  -0.134664  -0.351472  0  2.133535  0
O  O58  1  0.14045404  0.96232792  0.64985250  1  0  -0.360338  0  1.879945  0  -0.469658  0  -0.36075  0  2.127555  0  -0.48163  0  -0.374822  0  2.119255  0  0  -0.134682  -0.351496  0  2.133506  0
O  O59  1  0.85954474  0.03767215  0.14985202  1  0  -0.36027  0  1.879908  0  -0.469645  0  -0.360748  0  2.127547  0  -0.481585  0  -0.374819  0  2.119243  0  0  -0.134669  -0.351494  0  2.133502  0
O  O60  1  0.06451409  0.50422062  0.25493538  1  0  -0.345584  0  1.907027  0  -0.469718  0  -0.327253  0  2.140217  0  -0.481716  0  -0.342195  0  2.133364  0  0  -0.126703  -0.316765  0  2.144745  0
O  O61  1  0.93548620  0.49577480  0.75493832  1  0  -0.347071  0  1.907333  0  -0.469591  0  -0.327139  0  2.1401  0  -0.481633  0  -0.34208  0  2.133245  0  0  -0.126658  -0.31667  0  2.144688  0
O  O62  1  0.56451456  0.99577790  0.25493679  1  0  -0.347079  0  1.907264  0  -0.469689  0  -0.327184  0  2.14013  0  -0.481673  0  -0.342121  0  2.133272  0  0  -0.126703  -0.316697  0  2.144674  0
O  O63  1  0.43548457  0.00422086  0.75493756  1  0  -0.34712  0  1.907321  0  -0.469689  0  -0.327218  0  2.140195  0  -0.481739  0  -0.342157  0  2.13334  0  0  -0.126725  -0.316734  0  2.144738  0
O  O64  1  0.63462215  0.46790086  0.51289641  1  0  -0.360972  0  1.857296  0  -0.497438  0  -0.355253  0  2.085924  0  -0.509503  0  -0.368779  0  2.078495  0  0  -0.1393  -0.346328  0  2.091164  0
O  O65  1  0.36537618  0.53209948  0.01289704  1  0  -0.360953  0  1.857101  0  -0.497419  0  -0.35528  0  2.085833  0  -0.510199  0  -0.368805  0  2.078403  0  0  -0.139314  -0.346363  0  2.091093  0
O  O66  1  0.13462391  0.03209935  0.51289760  1  0  -0.361006  0  1.857333  0  -0.49741  0  -0.355287  0  2.085898  0  -0.510186  0  -0.368815  0  2.078475  0  0  -0.139321  -0.346371  0  2.091158  0
O  O67  1  0.86537673  0.96790100  0.01289716  1  0  -0.360918  0  1.857189  0  -0.497418  0  -0.35526  0  2.085901  0  -0.5102  0  -0.36878  0  2.078459  0  0  -0.139282  -0.346341  0  2.091156  0
O  O68  1  0.10584656  0.93253016  0.30029237  1  0  -0.316423  0  1.792956  0  -0.447697  0  -0.320891  0  2.00896  0  -0.462314  0  -0.333427  0  2.004842  0  0  -0.119546  -0.312759  0  2.012208  0
O  O69  1  0.89416081  0.06746851  0.80029032  1  0  -0.31638  0  1.792641  0  -0.44793  0  -0.320905  0  2.008763  0  -0.462228  0  -0.333446  0  2.004645  0  0  -0.119558  -0.312777  0  2.012022  0
O  O70  1  0.60584240  0.56746817  0.30029275  1  0  -0.316438  0  1.792624  0  -0.447882  0  -0.320955  0  2.008741  0  -0.462216  0  -0.333488  0  2.004618  0  0  -0.119589  -0.312826  0  2.012  0
O  O71  1  0.39415458  0.43253162  0.80029255  1  0  -0.316433  0  1.792698  0  -0.447658  0  -0.32098  0  2.008798  0  -0.462295  0  -0.333515  0  2.004677  0  0  -0.119618  -0.31285  0  2.012055  0
O  O72  1  0.40218824  0.72173425  0.66401896  1  0  -0.375741  0  1.935411  0  -0.479793  0  -0.372193  0  2.194  0  -0.4893  0  -0.384745  0  2.183782  0  0  -0.139279  -0.364268  0  2.201489  0
O  O73  1  0.59781175  0.27826469  0.16401936  1  0  -0.375663  0  1.935308  0  -0.479819  0  -0.372182  0  2.194023  0  -0.489315  0  -0.384734  0  2.183807  0  0  -0.13929  -0.364258  0  2.201517  0
O  O74  1  0.90218929  0.77826487  0.66401986  1  0  -0.375766  0  1.93539  0  -0.479867  0  -0.372221  0  2.193984  0  -0.489344  0  -0.384772  0  2.183766  0  0  -0.1393  -0.364295  0  2.201473  0
O  O75  1  0.09780608  0.22173518  0.16401780  1  0  -0.375756  0  1.935482  0  -0.479908  0  -0.372254  0  2.194137  0  -0.488838  0  -0.384811  0  2.183933  0  0  -0.139321  -0.364329  0  2.201626  0
O  O76  1  0.86908963  0.94260359  0.35266987  1  0  -0.315738  0  1.807309  0  -0.43656  0  -0.323041  0  2.032068  0  -0.447331  0  -0.33541  0  2.026395  0  0  -0.116827  -0.31496  0  2.036342  0
O  O77  1  0.13090983  0.05739498  0.85268075  1  0  -0.315646  0  1.807396  0  -0.436552  0  -0.323002  0  2.03224  0  -0.44709  0  -0.335374  0  2.026568  0  0  -0.116775  -0.314922  0  2.036515  0
O  O78  1  0.36908439  0.55739957  0.35267300  1  0  -0.315729  0  1.807374  0  -0.436647  0  -0.323027  0  2.032181  0  -0.447246  0  -0.335398  0  2.026505  0  0  -0.11681  -0.314948  0  2.036457  0
O  O79  1  0.63091160  0.44260123  0.85267239  1  0  -0.315705  0  1.807177  0  -0.436587  0  -0.323079  0  2.031981  0  -0.447448  0  -0.335447  0  2.026305  0  0  -0.116842  -0.314998  0  2.036257  0
O  O80  1  0.19143950  0.58484221  0.66107940  1  0  -0.378619  0  1.899882  0  -0.485189  0  -0.374865  0  2.153615  0  -0.498372  0  -0.389468  0  2.144604  0  0  -0.147118  -0.365315  0  2.160132  0
O  O81  1  0.80856163  0.41515673  0.16107927  1  0  -0.378525  0  1.899796  0  -0.485209  0  -0.374802  0  2.153603  0  -0.498374  0  -0.389403  0  2.144594  0  0  -0.147105  -0.365253  0  2.160119  0
O  O82  1  0.69143904  0.91515855  0.66108021  1  0  -0.378581  0  1.899903  0  -0.485233  0  -0.374852  0  2.153662  0  -0.498371  0  -0.389456  0  2.144653  0  0  -0.147138  -0.365304  0  2.160178  0
O  O83  1  0.30855748  0.08484597  0.16107846  1  0  -0.378532  0  1.899862  0  -0.485198  0  -0.374908  0  2.153735  0  -0.498262  0  -0.389511  0  2.144727  0  0  -0.147136  -0.36536  0  2.160253  0
O  O84  1  0.18613021  0.44305847  0.50606330  1  0  -0.378082  0  1.873054  0  -0.517233  0  -0.369883  0  2.104318  0  -0.529202  0  -0.38348  0  2.096141  0  0  -0.14836  -0.361324  0  2.110347  0
O  O85  1  0.81386925  0.55694189  0.00606374  1  0  -0.379788  0  1.873335  0  -0.517277  0  -0.36988  0  2.104353  0  -0.529184  0  -0.383478  0  2.096178  0  0  -0.14836  -0.361323  0  2.110383  0
O  O86  1  0.68612954  0.05694274  0.50606239  1  0  -0.378102  0  1.873072  0  -0.517242  0  -0.369908  0  2.104342  0  -0.529237  0  -0.383499  0  2.096165  0  0  -0.148375  -0.361348  0  2.110369  0
O  O87  1  0.31387108  0.94305762  0.00606530  1  0  -0.379787  0  1.873334  0  -0.517232  0  -0.369887  0  2.104359  0  -0.529216  0  -0.383483  0  2.096183  0  0  -0.148368  -0.361324  0  2.110385  0
O  O88  1  0.02202259  0.71131264  0.18128624  1  0  -0.386895  0  1.824819  0  -0.508172  0  -0.383775  0  2.061751  0  -0.518984  0  -0.402122  0  2.057033  0  0  -0.166307  -0.370903  0  2.064714  0
O  O89  1  0.97798092  0.28868515  0.68128741  1  0  -0.388265  0  1.825024  0  -0.508167  0  -0.383713  0  2.061766  0  -0.518929  0  -0.402061  0  2.05705  0  0  -0.166298  -0.370837  0  2.064733  0
O  O90  1  0.52202130  0.78868724  0.18128648  1  0  -0.388267  0  1.824987  0  -0.508173  0  -0.383694  0  2.061795  0  -0.518984  0  -0.402043  0  2.057079  0  0  -0.166279  -0.370822  0  2.06476  0
O  O91  1  0.47797759  0.21131166  0.68128717  1  0  -0.388321  0  1.825003  0  -0.508129  0  -0.383749  0  2.061768  0  -0.518941  0  -0.402098  0  2.057052  0  0  -0.166296  -0.370876  0  2.064732  0
O  O92  1  0.38825846  0.29472356  0.50084001  1  0  -0.348755  0  1.85462  0  -0.466482  0  -0.352579  0  2.098405  0  -0.475379  0  -0.362023  0  2.089201  0  0  -0.133447  -0.346823  0  2.10516  0
O  O93  1  0.61174098  0.70527793  0.00084079  1  0  -0.350502  0  1.854877  0  -0.466487  0  -0.3526  0  2.098426  0  -0.475406  0  -0.362042  0  2.089223  0  0  -0.133473  -0.346845  0  2.105183  0
O  O94  1  0.88825740  0.20527717  0.50084031  1  0  -0.348784  0  1.85466  0  -0.46646  0  -0.35259  0  2.098434  0  -0.475369  0  -0.362035  0  2.089234  0  0  -0.133452  -0.346835  0  2.10519  0
O  O95  1  0.11174089  0.79472432  0.00083984  1  0  -0.350494  0  1.854886  0  -0.466468  0  -0.352569  0  2.098392  0  -0.475359  0  -0.362014  0  2.08919  0  0  -0.133432  -0.346813  0  2.105149  0
O  O96  1  0.36091909  0.74213400  0.86159924  1  0  -0.828802  0  2.027343  0  -1.205112  0  -0.76116  0  2.276358  0  -1.239056  0  -0.786685  0  2.247242  0  0  -0.564793  -0.742647  0  2.295297  0
O  O97  1  0.63907809  0.25786678  0.36159838  1  0  -0.82892  0  2.02755  0  -1.205161  0  -0.761162  0  2.276269  0  -1.239086  0  -0.786689  0  2.247155  0  0  -0.564787  -0.742648  0  2.295204  0
O  O98  1  0.86092366  0.75786707  0.86159950  1  0  -0.828801  0  2.027294  0  -1.205147  0  -0.761122  0  2.276291  0  -1.238892  0  -0.78665  0  2.247177  0  0  -0.564765  -0.742605  0  2.295224  0
O  O99  1  0.13908045  0.24213372  0.36159877  1  0  -0.828927  0  2.027679  0  -1.205118  0  -0.761168  0  2.276354  0  -1.239067  0  -0.786693  0  2.247232  0  0  -0.564796  -0.742655  0  2.29529  0
