# generated using pymatgen
data_ZnH13C23(N3O2)2
_symmetry_space_group_name_H-M   'P 1'
_cell_length_a   9.76163945
_cell_length_b   10.66238030
_cell_length_c   11.60122940
_cell_angle_alpha   104.21158739
_cell_angle_beta   105.90812625
_cell_angle_gamma   112.55420935
_symmetry_Int_Tables_number   1
_chemical_formula_structural   ZnH13C23(N3O2)2
_chemical_formula_sum   'Zn2 H26 C46 N12 O8'
_cell_volume   985.31124312
_cell_formula_units_Z   2
loop_
 _symmetry_equiv_pos_site_id
 _symmetry_equiv_pos_as_xyz
  1  'x, y, z'
loop_
 _atom_site_type_symbol
 _atom_site_label
 _atom_site_symmetry_multiplicity
 _atom_site_fract_x
 _atom_site_fract_y
 _atom_site_fract_z
 _atom_site_occupancy
 _atom_site_hle17_bader_spin_density
 _atom_site_hle17_ddec_charge
 _atom_site_hle17_ddec_spin_density
 _atom_site_hle17_ddec_sum_bond_order
 _atom_site_hle17_magmom
 _atom_site_hse06_10hf_bader_spin_density
 _atom_site_hse06_10hf_ddec_charge
 _atom_site_hse06_10hf_ddec_spin_density
 _atom_site_hse06_10hf_ddec_sum_bond_order
 _atom_site_hse06_10hf_magmom
 _atom_site_hse06_bader_spin_density
 _atom_site_hse06_ddec_charge
 _atom_site_hse06_ddec_spin_density
 _atom_site_hse06_ddec_sum_bond_order
 _atom_site_hse06_magmom
 _atom_site_pbe_bader_spin_density
 _atom_site_pbe_cm5_charge
 _atom_site_pbe_ddec_charge
 _atom_site_pbe_ddec_spin_density
 _atom_site_pbe_ddec_sum_bond_order
 _atom_site_pbe_magmom
Zn  Zn0  1  0.38509738  0.24193104  0.49518898  1  0  0.997213  0  1.846403  0  0  0.802175  0  2.319798  0  0  0.850523  0  2.264471  0  0  0.697655  0.76673  0  2.359201  0
Zn  Zn1  1  0.61490437  0.75806557  0.50480919  1  0  0.997242  0  1.846344  0  0  0.802232  0  2.319749  0  0  0.850565  0  2.264414  0  0  0.697701  0.766794  0  2.35915  0
H  H2  1  0.73717174  0.12031641  0.80897297  1  0  0.121618  0  0.962367  0  0  0.120545  0  1.041014  0  0  0.125277  0  1.037685  0  0  0.111482  0.117226  0  1.043332  0
H  H3  1  0.26282789  0.87968024  0.19102557  1  0  0.121615  0  0.962378  0  0  0.120554  0  1.041016  0  0  0.125274  0  1.037698  0  0  0.111492  0.117236  0  1.043335  0
H  H4  1  0.66558929  0.23707468  0.65458519  1  0  0.076882  0  0.984627  0  0  0.085209  0  1.049529  0  0  0.08737  0  1.04779  0  0  0.115956  0.083356  0  1.051041  0
H  H5  1  0.33440912  0.76291967  0.34541002  1  0  0.076968  0  0.984567  0  0  0.085293  0  1.049442  0  0  0.087449  0  1.047728  0  0  0.115999  0.083435  0  1.050966  0
H  H6  1  0.17483866  0.00979325  0.57218756  1  0  0.097473  0  0.96244  0  0  0.101468  0  1.032674  0  0  0.104867  0  1.029087  0  0  0.120375  0.099143  0  1.034879  0
H  H7  1  0.82516026  0.99020812  0.42781952  1  0  0.097529  0  0.962435  0  0  0.101466  0  1.032716  0  0  0.104865  0  1.029128  0  0  0.120374  0.09914  0  1.034923  0
H  H8  1  0.11026526  0.60334546  0.78787504  1  0  0.11253  0  0.955555  0  0  0.118103  0  1.023112  0  0  0.121281  0  1.022084  0  0  0.109442  0.115632  0  1.024196  0
H  H9  1  0.88973534  0.39665897  0.21212615  1  0  0.112518  0  0.955535  0  0  0.118104  0  1.02307  0  0  0.121283  0  1.022054  0  0  0.109428  0.115633  0  1.024154  0
H  H10  1  0.89361153  0.39088794  0.79534267  1  0  0.065805  0  0.966605  0  0  0.074165  0  1.032406  0  0  0.075886  0  1.031985  0  0  0.10654  0.072908  0  1.032411  0
H  H11  1  0.10638796  0.60911636  0.20465479  1  0  0.065707  0  0.966655  0  0  0.074131  0  1.032377  0  0  0.075853  0  1.031955  0  0  0.106526  0.072874  0  1.032381  0
H  H12  1  0.22661619  0.37416845  0.09420708  1  0  0.074658  0  0.932658  0  0  0.085148  0  0.992216  0  0  0.087282  0  0.990908  0  0  0.110487  0.083432  0  0.993229  0
H  H13  1  0.77337900  0.62582581  0.90578477  1  0  0.074664  0  0.93262  0  0  0.085164  0  0.992165  0  0  0.087299  0  0.990863  0  0  0.110491  0.083457  0  0.993154  0
H  H14  1  0.45834099  0.58666251  0.09865732  1  0  0.11541  0  0.938762  0  0  0.123551  0  0.999772  0  0  0.127522  0  0.99772  0  0  0.110506  0.120873  0  1.000912  0
H  H15  1  0.54165546  0.41333414  0.90134047  1  0  0.115486  0  0.938716  0  0  0.123565  0  0.999784  0  0  0.127535  0  0.997731  0  0  0.11051  0.120885  0  1.000925  0
H  H16  1  0.82174733  0.79527041  0.19055685  1  0  0.122737  0  0.942479  0  0  0.128968  0  1.005441  0  0  0.13271  0  1.00384  0  0  0.115967  0.126369  0  1.006526  0
H  H17  1  0.17825353  0.20472858  0.80944590  1  0  0.122709  0  0.942521  0  0  0.128963  0  1.005469  0  0  0.132706  0  1.003866  0  0  0.115967  0.126361  0  1.006555  0
H  H18  1  0.96376956  0.16516689  0.07548268  1  0  0.124948  0  0.943814  0  0  0.127839  0  1.014598  0  0  0.132232  0  1.011707  0  0  0.114667  0.124574  0  1.016969  0
H  H19  1  0.03622919  0.83483214  0.92452045  1  0  0.124894  0  0.943806  0  0  0.127782  0  1.014616  0  0  0.132175  0  1.011725  0  0  0.114648  0.124516  0  1.016993  0
H  H20  1  0.23688520  0.28549526  0.26327456  1  0  0.101249  0  0.938253  0  0  0.109158  0  1.000376  0  0  0.112357  0  0.997532  0  0  0.122968  0.106615  0  1.002841  0
H  H21  1  0.76311655  0.71450135  0.73672361  1  0  0.101249  0  0.938185  0  0  0.109125  0  1.000352  0  0  0.112322  0  0.997512  0  0  0.122955  0.106582  0  1.002816  0
H  H22  1  0.10013744  0.92111072  0.36351820  1  0  0.080749  0  0.953779  0  0  0.088805  0  1.019996  0  0  0.091056  0  1.017899  0  0  0.11802  0.087197  0  1.021313  0
H  H23  1  0.89986479  0.07888481  0.63648073  1  0  0.080776  0  0.95377  0  0  0.088806  0  1.02  0  0  0.091056  0  1.017905  0  0  0.118018  0.087199  0  1.021314  0
H  H24  1  0.88926099  0.28748367  0.55975955  1  0  0.089687  0  0.968273  0  0  0.098179  0  1.037237  0  0  0.101878  0  1.034849  0  0  0.098873  0.095307  0  1.039179  0
H  H25  1  0.11074332  0.71252165  0.44023752  1  0  0.089625  0  0.968258  0  0  0.098132  0  1.037223  0  0  0.101832  0  1.034833  0  0  0.09884  0.09526  0  1.039163  0
H  H26  1  0.22345489  0.86731269  0.70641351  1  0  0.116834  0  0.948721  0  0  0.122273  0  1.015276  0  0  0.125304  0  1.01483  0  0  0.112893  0.120115  0  1.01569  0
H  H27  1  0.77654812  0.13269439  0.29360086  1  0  0.116793  0  0.948788  0  0  0.122276  0  1.015311  0  0  0.125311  0  1.014842  0  0  0.112898  0.12012  0  1.015721  0
C  C28  1  0.51970873  0.90995215  0.85628895  1  0  0.415792  0  3.7344  0  0  0.395994  0  3.996152  0  0  0.413263  0  4.005118  0  0  0.267394  0.384334  0  3.990233  0
C  C29  1  0.48029393  0.09005018  0.14371575  1  0  0.415625  0  3.734326  0  0  0.395837  0  3.996076  0  0  0.413107  0  4.005044  0  0  0.267303  0.384176  0  3.990159  0
C  C30  1  0.43503585  0.73661310  0.93906458  1  0  0.418816  0  3.727167  0  0  0.400295  0  3.984525  0  0  0.417896  0  3.994626  0  0  0.267207  0.388674  0  3.977685  0
C  C31  1  0.56496303  0.26338817  0.06093988  1  0  0.418818  0  3.726983  0  0  0.400343  0  3.984334  0  0  0.417946  0  3.994433  0  0  0.267285  0.388725  0  3.977488  0
C  C32  1  0.70390240  0.90165025  0.01851342  1  0  0.400677  0  3.766097  0  0  0.381943  0  4.02807  0  0  0.398591  0  4.039007  0  0  0.262188  0.370696  0  4.020626  0
C  C33  1  0.29609756  0.09835105  0.98149217  1  0  0.400776  0  3.765782  0  0  0.381998  0  4.027806  0  0  0.398645  0  4.038744  0  0  0.262155  0.370753  0  4.020359  0
C  C34  1  0.48399611  0.98225198  0.76706539  1  0  0.053264  0  3.708057  0  0  0.062082  0  3.941823  0  0  0.064525  0  3.960299  0  0  0.01951  0.060003  0  3.929974  0
C  C35  1  0.51600716  0.01775152  0.23294142  1  0  0.053463  0  3.707924  0  0  0.062296  0  3.941662  0  0  0.064744  0  3.960133  0  0  0.01966  0.060218  0  3.929817  0
C  C36  1  0.61086620  0.08858494  0.75354141  1  0  -0.118344  0  3.66329  0  0  -0.139946  0  3.916421  0  0  -0.146394  0  3.936269  0  0  -0.070133  -0.135707  0  3.903084  0
C  C37  1  0.38913297  0.91141285  0.24645812  1  0  -0.118331  0  3.663234  0  0  -0.139961  0  3.916358  0  0  -0.146398  0  3.936212  0  0  -0.070166  -0.135722  0  3.903019  0
C  C38  1  0.57244379  0.15484043  0.66999870  1  0  0.126224  0  3.694606  0  0  0.096299  0  3.939815  0  0  0.102444  0  3.959463  0  0  0.047847  0.092017  0  3.927002  0
C  C39  1  0.42755703  0.84515842  0.33000057  1  0  0.126095  0  3.694685  0  0  0.096191  0  3.939906  0  0  0.102326  0  3.959555  0  0  0.047822  0.091911  0  3.927091  0
C  C40  1  0.29659177  0.02655036  0.62165848  1  0  0.125959  0  3.66955  0  0  0.094358  0  3.922787  0  0  0.101072  0  3.939391  0  0  0.051893  0.089874  0  3.911485  0
C  C41  1  0.70340881  0.97345211  0.37834921  1  0  0.125847  0  3.669568  0  0  0.094357  0  3.922733  0  0  0.10107  0  3.939336  0  0  0.05191  0.089874  0  3.911433  0
C  C42  1  0.32445392  0.95000345  0.69841507  1  0  -0.108246  0  3.671652  0  0  -0.1322  0  3.926198  0  0  -0.138273  0  3.946745  0  0  -0.068087  -0.128453  0  3.912895  0
C  C43  1  0.67554832  0.05000015  0.30159410  1  0  -0.108265  0  3.67184  0  0  -0.132312  0  3.926416  0  0  -0.138381  0  3.946969  0  0  -0.06816  -0.128562  0  3.913115  0
C  C44  1  0.30258733  0.61044628  0.94125343  1  0  0.014284  0  3.747016  0  0  0.030335  0  3.972852  0  0  0.028668  0  3.996004  0  0  0.007776  0.031981  0  3.957193  0
C  C45  1  0.69740771  0.38955374  0.05874557  1  0  0.014401  0  3.746842  0  0  0.030347  0  3.972796  0  0  0.028679  0  3.995947  0  0  0.007761  0.031993  0  3.957135  0
C  C46  1  0.14088150  0.55423072  0.85600242  1  0  -0.10975  0  3.678733  0  0  -0.132304  0  3.924866  0  0  -0.137066  0  3.946053  0  0  -0.071961  -0.129885  0  3.911106  0
C  C47  1  0.85911470  0.44577144  0.14399556  1  0  -0.109879  0  3.67872  0  0  -0.132419  0  3.924876  0  0  -0.137191  0  3.946068  0  0  -0.071996  -0.13  0  3.911113  0
C  C48  1  0.02016548  0.43389230  0.86011941  1  0  0.115527  0  3.740773  0  0  0.093158  0  3.99845  0  0  0.096757  0  4.017818  0  0  0.040972  0.091048  0  3.984707  0
C  C49  1  0.97983328  0.56610865  0.13987634  1  0  0.115664  0  3.740764  0  0  0.093256  0  3.998458  0  0  0.096857  0  4.017823  0  0  0.041008  0.09115  0  3.98471  0
C  C50  1  0.20461724  0.42543224  0.02553736  1  0  0.11749  0  3.73788  0  0  0.093914  0  4.002424  0  0  0.098017  0  4.020305  0  0  0.043723  0.090738  0  3.990312  0
C  C51  1  0.79537810  0.57456432  0.97445757  1  0  0.117267  0  3.737905  0  0  0.093704  0  4.002429  0  0  0.0978  0  4.020312  0  0  0.043625  0.090529  0  3.990323  0
C  C52  1  0.33461414  0.54478524  0.02906960  1  0  -0.124246  0  3.686979  0  0  -0.147084  0  3.935627  0  0  -0.151983  0  3.956458  0  0  -0.076407  -0.143909  0  3.921174  0
C  C53  1  0.66538124  0.45521142  0.97092795  1  0  -0.124254  0  3.686918  0  0  -0.147001  0  3.935571  0  0  -0.151902  0  3.956413  0  0  -0.076355  -0.143827  0  3.921119  0
C  C54  1  0.87200366  0.96972499  0.11810378  1  0  0.02637  0  3.73642  0  0  0.038137  0  3.967955  0  0  0.038631  0  3.989355  0  0  0.014339  0.038277  0  3.952998  0
C  C55  1  0.12799826  0.03027396  0.88189835  1  0  0.026265  0  3.736459  0  0  0.038071  0  3.96799  0  0  0.038565  0  3.98939  0  0  0.014327  0.038212  0  3.953031  0
C  C56  1  0.91178352  0.90098996  0.20016973  1  0  -0.109048  0  3.684014  0  0  -0.132468  0  3.936387  0  0  -0.13774  0  3.956167  0  0  -0.066066  -0.129373  0  3.92298  0
C  C57  1  0.08821735  0.09900903  0.79983302  1  0  -0.108947  0  3.684098  0  0  -0.132399  0  3.936451  0  0  -0.13767  0  3.956229  0  0  -0.066014  -0.129302  0  3.923035  0
C  C58  1  0.99154694  0.10834678  0.13732109  1  0  -0.120383  0  3.660441  0  0  -0.140215  0  3.911559  0  0  -0.146169  0  3.931844  0  0  -0.068694  -0.13599  0  3.897486  0
C  C59  1  0.00845451  0.89165331  0.86268202  1  0  -0.120245  0  3.660362  0  0  -0.14011  0  3.911465  0  0  -0.146064  0  3.93175  0  0  -0.068677  -0.135888  0  3.897396  0
C  C60  1  0.14363395  0.17391112  0.23949532  1  0  0.13118  0  3.660414  0  0  0.097313  0  3.914434  0  0  0.103172  0  3.932827  0  0  0.050087  0.093482  0  3.902284  0
C  C61  1  0.85636841  0.82608666  0.76050495  1  0  0.131101  0  3.660338  0  0  0.097288  0  3.914347  0  0  0.103149  0  3.932738  0  0  0.050113  0.093459  0  3.9022  0
C  C62  1  0.06774200  0.97247976  0.29795745  1  0  0.14325  0  3.678095  0  0  0.111618  0  3.93191  0  0  0.118284  0  3.949245  0  0  0.057003  0.107243  0  3.91969  0
C  C63  1  0.93225873  0.02751694  0.70204308  1  0  0.143141  0  3.678091  0  0  0.111544  0  3.9319  0  0  0.118211  0  3.949233  0  0  0.05696  0.107173  0  3.919678  0
C  C64  1  0.69722387  0.40965380  0.53517910  1  0  0.667427  0  3.912958  0  0  0.614295  0  4.215294  0  0  0.649378  0  4.204841  0  0  0.203055  0.59075  0  4.220624  0
C  C65  1  0.30277916  0.59034717  0.46481851  1  0  0.667449  0  3.912994  0  0  0.614408  0  4.215146  0  0  0.649491  0  4.204693  0  0  0.203137  0.59087  0  4.220475  0
C  C66  1  0.84966817  0.45746402  0.51110494  1  0  -0.032243  0  3.691744  0  0  -0.019704  0  3.928625  0  0  -0.021854  0  3.946081  0  0  -0.004207  -0.018885  0  3.917204  0
C  C67  1  0.15033543  0.54253799  0.48889129  1  0  -0.032425  0  3.691753  0  0  -0.019816  0  3.92849  0  0  -0.021969  0  3.945954  0  0  -0.004299  -0.019026  0  3.917109  0
C  C68  1  0.83105659  0.66843514  0.45478100  1  0  0.633144  0  3.933274  0  0  0.585161  0  4.224356  0  0  0.618777  0  4.217858  0  0  0.197652  0.562456  0  4.2277  0
C  C69  1  0.16894320  0.33156571  0.54521238  1  0  0.633023  0  3.933314  0  0  0.585086  0  4.22434  0  0  0.6187  0  4.217846  0  0  0.19762  0.562375  0  4.227683  0
C  C70  1  0.91458926  0.57837623  0.47706567  1  0  -0.068519  0  3.725259  0  0  -0.056035  0  3.960593  0  0  -0.060886  0  3.980427  0  0  -0.015979  -0.053585  0  3.947871  0
C  C71  1  0.08541444  0.42162797  0.52293017  1  0  -0.068423  0  3.725301  0  0  -0.056005  0  3.960637  0  0  -0.060853  0  3.980466  0  0  -0.01598  -0.053535  0  3.947903  0
C  C72  1  0.93627667  0.38124167  0.53290536  1  0  -0.104024  0  3.75362  0  0  -0.135296  0  4.006542  0  0  -0.136277  0  4.025867  0  0  -0.085458  -0.133784  0  3.993505  0
C  C73  1  0.06372811  0.61876255  0.46709160  1  0  -0.103918  0  3.75353  0  0  -0.135232  0  4.006425  0  0  -0.136214  0  4.02575  0  0  -0.085422  -0.13371  0  3.993401  0
N  N74  1  0.39431811  0.79871813  0.85672837  1  0  -0.417997  0  2.932449  0  0  -0.386928  0  3.192066  0  0  -0.402897  0  3.201971  0  0  -0.290192  -0.376204  0  3.185416  0
N  N75  1  0.60568302  0.20128535  0.14327707  1  0  -0.417973  0  2.932455  0  0  -0.386912  0  3.192063  0  0  -0.402879  0  3.201963  0  0  -0.290192  -0.376197  0  3.18543  0
N  N76  1  0.58853767  0.78411720  0.02164788  1  0  -0.444667  0  2.971115  0  0  -0.410922  0  3.229828  0  0  -0.428082  0  3.241971  0  0  -0.296709  -0.399582  0  3.221432  0
N  N77  1  0.41146122  0.21588411  0.97835746  1  0  -0.444721  0  2.971054  0  0  -0.410968  0  3.229774  0  0  -0.428129  0  3.241919  0  0  -0.296768  -0.399628  0  3.221374  0
N  N78  1  0.67676732  0.96589633  0.93511185  1  0  -0.431445  0  2.959384  0  0  -0.398146  0  3.218902  0  0  -0.414661  0  3.229963  0  0  -0.295975  -0.387116  0  3.212399  0
N  N79  1  0.32323507  0.03410151  0.06489016  1  0  -0.431441  0  2.959111  0  0  -0.398125  0  3.218649  0  0  -0.414637  0  3.229708  0  0  -0.295918  -0.387093  0  3.212145  0
N  N80  1  0.41867312  0.12617257  0.60620311  1  0  -0.329257  0  3.30981  0  0  -0.242702  0  3.588934  0  0  -0.261345  0  3.602055  0  0  -0.328589  -0.230435  0  3.580673  0
N  N81  1  0.58132440  0.87382412  0.39379581  1  0  -0.329174  0  3.309972  0  0  -0.242655  0  3.589064  0  0  -0.261294  0  3.602185  0  0  -0.328588  -0.230387  0  3.580804  0
N  N82  1  0.04909627  0.36820629  0.94190676  1  0  -0.319769  0  3.077792  0  0  -0.283452  0  3.348186  0  0  -0.293897  0  3.365319  0  0  -0.321656  -0.276127  0  3.336254  0
N  N83  1  0.95090022  0.63179239  0.05808627  1  0  -0.319681  0  3.077822  0  0  -0.28338  0  3.348243  0  0  -0.293824  0  3.365378  0  0  -0.321641  -0.276058  0  3.336311  0
N  N84  1  0.18124814  0.10707245  0.31877660  1  0  -0.32629  0  3.284964  0  0  -0.24317  0  3.559102  0  0  -0.261796  0  3.575074  0  0  -0.324168  -0.230231  0  3.547963  0
N  N85  1  0.81875300  0.89292303  0.68122034  1  0  -0.32621  0  3.284998  0  0  -0.243107  0  3.559111  0  0  -0.261732  0  3.575079  0  0  -0.324155  -0.230176  0  3.547983  0
O  O86  1  0.56611080  0.29879223  0.43974879  1  0  -0.642456  0  2.014752  0  0  -0.570064  0  2.283572  0  0  -0.599834  0  2.270142  0  0  -0.335921  -0.547489  0  2.291106  0
O  O87  1  0.43389310  0.70120443  0.56025162  1  0  -0.642418  0  2.014582  0  0  -0.570097  0  2.283432  0  0  -0.599843  0  2.269961  0  0  -0.335971  -0.547523  0  2.290962  0
O  O88  1  0.70797340  0.46630951  0.64772984  1  0  -0.625845  0  1.890003  0  0  -0.581248  0  2.114896  0  0  -0.605108  0  2.105357  0  0  -0.323188  -0.562679  0  2.120521  0
O  O89  1  0.29202974  0.53369364  0.35226738  1  0  -0.6259  0  1.890141  0  0  -0.581375  0  2.114981  0  0  -0.605237  0  2.10544  0  0  -0.323238  -0.562801  0  2.120601  0
O  O90  1  0.68499624  0.61324009  0.45064979  1  0  -0.633268  0  2.065889  0  0  -0.553903  0  2.329596  0  0  -0.583027  0  2.314235  0  0  -0.327567  -0.533059  0  2.340054  0
O  O91  1  0.31500225  0.38675634  0.54934240  1  0  -0.633251  0  2.065948  0  0  -0.553879  0  2.329611  0  0  -0.583009  0  2.314256  0  0  -0.327526  -0.533034  0  2.34007  0
O  O92  1  0.90393033  0.78859594  0.44536506  1  0  -0.621348  0  1.918436  0  0  -0.574646  0  2.145488  0  0  -0.597672  0  2.138385  0  0  -0.325487  -0.558512  0  2.149512  0
O  O93  1  0.09606841  0.21140495  0.55462895  1  0  -0.621304  0  1.918368  0  0  -0.574619  0  2.145395  0  0  -0.597647  0  2.138301  0  0  -0.325502  -0.558482  0  2.149415  0
