# generated using pymatgen
data_CuH8C10(NCl)2
_symmetry_space_group_name_H-M   'P 1'
_cell_length_a   7.14992686
_cell_length_b   8.35492146
_cell_length_c   9.94163520
_cell_angle_alpha   107.45031634
_cell_angle_beta   102.65208065
_cell_angle_gamma   109.58785652
_symmetry_Int_Tables_number   1
_chemical_formula_structural   CuH8C10(NCl)2
_chemical_formula_sum   'Cu2 H16 C20 N4 Cl4'
_cell_volume   498.88549582
_cell_formula_units_Z   2
loop_
 _symmetry_equiv_pos_site_id
 _symmetry_equiv_pos_as_xyz
  1  'x, y, z'
loop_
 _atom_site_type_symbol
 _atom_site_label
 _atom_site_symmetry_multiplicity
 _atom_site_fract_x
 _atom_site_fract_y
 _atom_site_fract_z
 _atom_site_occupancy
 _atom_site_pbe_cm5_charge
 _atom_site_pbe_ddec_charge
 _atom_site_pbe_ddec_spin_density
 _atom_site_pbe_ddec_sum_bond_order
 _atom_site_pbe_magmom
Cu  Cu0  1  0.11098766  0.28091707  0.90561627  1  0.575664  0.647282  0.69163  2.417521  0.512
Cu  Cu1  1  0.70575201  0.37581987  0.09461168  1  0.575472  0.646778  -0.691645  2.417888  -0.512
H  H2  1  0.88536323  0.03280261  0.56856405  1  0.102922  0.080519  0.000949  1.061781  0.002
H  H3  1  0.81724963  0.46477798  0.43172531  1  0.103466  0.081816  -0.000948  1.060265  -0.002
H  H4  1  0.61382081  0.70020155  0.41140640  1  0.102897  0.11825  0.001082  1.019137  0.001
H  H5  1  0.70318252  0.28890732  0.58851530  1  0.102763  0.11709  -0.001084  1.020162  -0.001
H  H6  1  0.46919978  0.50519808  0.54925773  1  0.103621  0.101307  0.000546  1.02135  0.0
H  H7  1  0.42060346  0.95593218  0.45035088  1  0.10355  0.102138  -0.000546  1.019856  0.0
H  H8  1  0.60268195  0.64259134  0.82720037  1  0.102686  0.126928  0.000662  1.030135  0.001
H  H9  1  0.27602344  0.81560389  0.17244782  1  0.102743  0.126684  -0.00066  1.02905  -0.001
H  H10  1  0.75004455  0.77397765  0.06225214  1  0.097744  0.125098  0.001411  1.047887  0.001
H  H11  1  0.18807579  0.71205432  0.93773791  1  0.097782  0.126183  -0.001409  1.046166  -0.001
H  H12  1  0.91182184  0.96056414  0.33737446  1  0.102093  0.107318  -2.8e-05  1.006428  0.0
H  H13  1  0.07459894  0.62324638  0.66261545  1  0.102888  0.107434  3e-05  1.008301  0.0
H  H14  1  0.15230976  0.30039553  0.43660981  1  0.094306  0.110765  0.002656  1.048638  0.001
H  H15  1  0.21567463  0.86380946  0.56338921  1  0.094646  0.110652  -0.00266  1.04932  -0.001
H  H16  1  0.24286764  0.43396155  0.24883552  1  0.104452  0.091741  0.001296  1.036091  0.002
H  H17  1  0.49390839  0.18546623  0.75121976  1  0.104955  0.092463  -0.001287  1.036083  -0.002
C  C18  1  0.81642161  0.93968965  0.61917154  1  0.045786  0.096605  -0.000526  3.94806  -0.002
C  C19  1  0.69777694  0.32095586  0.38096452  1  0.044243  0.093353  0.000523  3.952926  0.002
C  C20  1  0.66576484  0.75620870  0.53419134  1  -0.082018  -0.127208  0.004213  3.946522  0.005
C  C21  1  0.63226795  0.22219255  0.46572021  1  -0.079726  -0.122026  -0.004196  3.949036  -0.005
C  C22  1  0.58798241  0.64884163  0.61030147  1  -0.063037  -0.012338  -0.001965  3.934712  -0.002
C  C23  1  0.47836491  0.03859375  0.38941211  1  -0.065146  -0.017003  0.001966  3.937229  0.002
C  C24  1  0.66345195  0.72575314  0.76729195  1  -0.073324  -0.13313  0.00284  3.895104  0.003
C  C25  1  0.39680474  0.95870106  0.23245301  1  -0.07335  -0.132206  -0.002833  3.891891  -0.003
C  C26  1  0.81629841  0.91026489  0.84492748  1  0.118012  0.168555  0.001624  3.97568  0.001
C  C27  1  0.47194728  0.06576588  0.15501432  1  0.117165  0.169421  -0.001617  3.975213  -0.001
C  C28  1  0.90890781  0.00591317  0.00992639  1  0.111946  0.161488  0.001835  3.986114  0.001
C  C29  1  0.39930452  0.99639336  0.99002967  1  0.112897  0.161343  -0.001822  3.986387  -0.001
C  C30  1  0.85823196  0.92061326  0.10638407  1  -0.077126  -0.135519  0.003938  3.89085  0.004
C  C31  1  0.25211363  0.81449088  0.89356977  1  -0.077033  -0.136276  -0.003941  3.888157  -0.004
C  C32  1  0.94865104  0.02654386  0.26133514  1  -0.063907  -0.003403  -0.002529  3.929951  -0.002
C  C33  1  0.18756238  0.76534902  0.73862424  1  -0.06448  -0.004484  0.002533  3.932473  0.002
C  C34  1  0.08560644  0.21406621  0.31593530  1  -0.085215  -0.126225  0.006613  3.954209  0.008
C  C35  1  0.26985251  0.89826784  0.68405944  1  -0.085704  -0.125022  -0.006677  3.951044  -0.008
C  C36  1  0.13477558  0.28921535  0.21376095  1  0.04207  0.095017  4.5e-05  3.953035  -0.001
C  C37  1  0.42105520  0.07577376  0.78625272  1  0.042062  0.094134  -5.7e-05  3.950504  0.001
N  N38  1  0.88880858  0.01495129  0.77020664  1  -0.340178  -0.258359  0.060687  3.597176  0.075
N  N39  1  0.61910660  0.24525927  0.22991808  1  -0.338396  -0.257319  -0.060574  3.600201  -0.075
N  N40  1  0.04976032  0.18705647  0.06448268  1  -0.343528  -0.269006  0.065254  3.625511  0.08
N  N41  1  0.48550705  0.12299379  0.93554604  1  -0.345161  -0.270007  -0.065277  3.627339  -0.08
Cl  Cl42  1  0.42809853  0.52312008  0.07452565  1  -0.279638  -0.48423  0.088728  1.410154  0.102
Cl  Cl43  1  0.85396455  0.44902999  0.92587456  1  -0.279508  -0.484022  -0.088693  1.409041  -0.102
Cl  Cl44  1  0.18021674  0.34397565  0.71004670  1  -0.29603  -0.481284  0.091164  1.250015  0.105
Cl  Cl45  1  0.97087852  0.63442220  0.29034584  1  -0.296328  -0.481294  -0.091254  1.249922  -0.105
