# generated using pymatgen
data_MnH8C4O7
_symmetry_space_group_name_H-M   'P 1'
_cell_length_a   9.11314187
_cell_length_b   8.78967743
_cell_length_c   10.28337594
_cell_angle_alpha   90.00048942
_cell_angle_beta   90.00058604
_cell_angle_gamma   90.00009568
_symmetry_Int_Tables_number   1
_chemical_formula_structural   MnH8C4O7
_chemical_formula_sum   'Mn4 H32 C16 O28'
_cell_volume   823.71463387
_cell_formula_units_Z   4
loop_
 _symmetry_equiv_pos_site_id
 _symmetry_equiv_pos_as_xyz
  1  'x, y, z'
loop_
 _atom_site_type_symbol
 _atom_site_label
 _atom_site_symmetry_multiplicity
 _atom_site_fract_x
 _atom_site_fract_y
 _atom_site_fract_z
 _atom_site_occupancy
 _atom_site_pbe_cm5_charge
 _atom_site_pbe_ddec_charge
 _atom_site_pbe_ddec_spin_density
 _atom_site_pbe_ddec_sum_bond_order
 _atom_site_pbe_magmom
Mn  Mn0  1  0.72277501  0.80970763  0.09038807  1  0.624825  1.04144  4.693697  2.233942  4.471
Mn  Mn1  1  0.22276988  0.69029618  0.90961536  1  0.62486  1.041499  4.69369  2.233824  4.471
Mn  Mn2  1  0.27723195  0.30970870  0.40961205  1  0.624867  1.041486  4.693691  2.233806  4.471
Mn  Mn3  1  0.77722730  0.19029036  0.59038622  1  0.624862  1.041485  4.693696  2.233851  4.471
H  H4  1  0.83916864  0.18127117  0.21616986  1  0.118463  0.071017  1.6e-05  0.991113  0.0
H  H5  1  0.33916227  0.31873140  0.78383286  1  0.118472  0.071054  1.6e-05  0.991144  0.0
H  H6  1  0.16084029  0.68127339  0.28383223  1  0.118493  0.071097  1.6e-05  0.991122  0.0
H  H7  1  0.66083184  0.81872919  0.71616481  1  0.118462  0.07105  1.6e-05  0.991088  0.0
H  H8  1  0.71466734  0.99570648  0.31980463  1  0.303505  0.352447  0.000652  0.979156  0.002
H  H9  1  0.21466580  0.50429619  0.68019581  1  0.303491  0.352427  0.000652  0.979193  0.002
H  H10  1  0.28533227  0.49570644  0.18019493  1  0.303502  0.352428  0.000652  0.979169  0.002
H  H11  1  0.78533215  0.00429263  0.81980438  1  0.303512  0.352456  0.000652  0.97912  0.002
H  H12  1  0.65456153  0.38149090  0.17211031  1  0.11728  0.151563  0.001618  0.969512  0.002
H  H13  1  0.15454764  0.11851593  0.82788782  1  0.117276  0.151551  0.001618  0.969733  0.002
H  H14  1  0.34545762  0.88148588  0.32789716  1  0.117281  0.151542  0.001618  0.969732  0.002
H  H15  1  0.84544173  0.61851017  0.67210933  1  0.11729  0.151595  0.001618  0.969507  0.002
H  H16  1  0.51024127  0.24378380  0.17291627  1  0.106513  0.136445  0.000695  0.992394  0.0
H  H17  1  0.01023419  0.25622621  0.82707472  1  0.106508  0.136428  0.000696  0.992346  0.0
H  H18  1  0.48976887  0.74376990  0.32708142  1  0.106492  0.136428  0.000695  0.992373  0.0
H  H19  1  0.98976090  0.75622068  0.67291665  1  0.106535  0.136486  0.000695  0.992323  0.0
H  H20  1  0.79330744  0.72437468  0.33113100  1  0.29294  0.382976  0.001162  0.965379  0.003
H  H21  1  0.29330296  0.77562583  0.66886918  1  0.292917  0.382938  0.001162  0.96544  0.003
H  H22  1  0.20669279  0.22437214  0.16886849  1  0.292923  0.382942  0.001162  0.965439  0.003
H  H23  1  0.70669108  0.27562340  0.83113303  1  0.292925  0.382952  0.001161  0.965416  0.003
H  H24  1  0.89261178  0.61029507  0.24535472  1  0.297871  0.417317  0.000934  0.908967  0.003
H  H25  1  0.39260630  0.88970447  0.75464636  1  0.297893  0.417378  0.000934  0.908884  0.003
H  H26  1  0.10739373  0.11029435  0.25464392  1  0.297901  0.417373  0.000934  0.908888  0.003
H  H27  1  0.60738793  0.38970217  0.74535572  1  0.297887  0.417329  0.000934  0.908952  0.003
H  H28  1  0.98005383  0.87286105  0.23866860  1  0.291098  0.376937  0.000529  0.961348  0.0
H  H29  1  0.48005015  0.62713521  0.76133522  1  0.291104  0.376932  0.000528  0.961356  0.0
H  H30  1  0.01994666  0.37285912  0.26133686  1  0.291105  0.376916  0.000529  0.961365  0.0
H  H31  1  0.51994362  0.12713839  0.73866492  1  0.291103  0.376967  0.000529  0.961293  0.0
H  H32  1  0.12218896  0.90088716  0.15426452  1  0.292198  0.383174  -0.000463  0.956337  0.0
H  H33  1  0.62218601  0.59910740  0.84574189  1  0.292155  0.383094  -0.000463  0.95642  0.0
H  H34  1  0.87781487  0.40089082  0.34574309  1  0.29219  0.383163  -0.000463  0.956371  0.0
H  H35  1  0.37781100  0.09911067  0.65426095  1  0.292207  0.38318  -0.000463  0.956319  0.0
C  C36  1  0.75119018  0.14264647  0.02851305  1  0.230903  0.583513  0.006455  4.112671  0.006
C  C37  1  0.25119153  0.35735141  0.97148499  1  0.230903  0.583532  0.006454  4.112722  0.006
C  C38  1  0.24880003  0.64264612  0.47148389  1  0.230923  0.583576  0.006455  4.112702  0.006
C  C39  1  0.74880374  0.85735319  0.52851394  1  0.230915  0.583539  0.006454  4.112629  0.006
C  C40  1  0.73115843  0.15043927  0.17583134  1  0.006402  0.112948  0.00417  3.871462  0.004
C  C41  1  0.23115258  0.34956313  0.82416651  1  0.006452  0.112869  0.00417  3.871583  0.004
C  C42  1  0.26884716  0.65043637  0.32417052  1  0.006403  0.112778  0.00417  3.871592  0.004
C  C43  1  0.76884049  0.84956070  0.67583138  1  0.006428  0.112873  0.00417  3.871451  0.004
C  C44  1  0.61813845  0.27250528  0.21345317  1  -0.162611  -0.381313  0.003058  3.904153  0.002
C  C45  1  0.11813086  0.22750036  0.78654172  1  -0.162648  -0.381271  0.003059  3.904309  0.002
C  C46  1  0.38187173  0.77249763  0.28654960  1  -0.162613  -0.381256  0.003058  3.904363  0.002
C  C47  1  0.88186528  0.72749847  0.71345236  1  -0.162701  -0.38145  0.003059  3.904174  0.002
C  C48  1  0.61077632  0.28369525  0.36016278  1  0.237981  0.673394  0.031794  4.085111  0.027
C  C49  1  0.11077798  0.21630241  0.63983107  1  0.23795  0.673238  0.031791  4.085074  0.027
C  C50  1  0.38922511  0.78369756  0.13984007  1  0.238022  0.67344  0.031793  4.085124  0.027
C  C51  1  0.88922034  0.71630652  0.86016195  1  0.238052  0.673481  0.031793  4.085022  0.027
O  O52  1  0.74479159  0.01037663  0.97437895  1  -0.302695  -0.558301  0.041874  2.329961  0.028
O  O53  1  0.24478663  0.48962124  0.02562194  1  -0.302727  -0.558332  0.041874  2.329855  0.028
O  O54  1  0.25521514  0.51038101  0.52562032  1  -0.302677  -0.558258  0.041872  2.329899  0.028
O  O55  1  0.75521187  0.98961831  0.47437855  1  -0.302695  -0.558252  0.041875  2.329959  0.028
O  O56  1  0.77375655  0.26502874  0.96914147  1  -0.306229  -0.518091  0.005663  2.163314  0.007
O  O57  1  0.27375120  0.23497600  0.03085676  1  -0.306227  -0.518046  0.005662  2.163394  0.007
O  O58  1  0.22624405  0.76503200  0.53085872  1  -0.30628  -0.518152  0.005663  2.163254  0.007
O  O59  1  0.72624576  0.73497069  0.46914086  1  -0.306276  -0.518147  0.005663  2.163293  0.007
O  O60  1  0.73046648  0.31417230  0.42082250  1  -0.30484  -0.566845  0.051465  2.306341  0.034
O  O61  1  0.23047068  0.18583123  0.57917826  1  -0.304806  -0.566723  0.051459  2.306284  0.034
O  O62  1  0.26953280  0.81416927  0.07918058  1  -0.304852  -0.566841  0.051465  2.306417  0.034
O  O63  1  0.76953307  0.68582779  0.92082231  1  -0.304849  -0.566838  0.051463  2.3063  0.034
O  O64  1  0.49347462  0.25339742  0.42105264  1  -0.307856  -0.573229  0.061525  2.339771  0.039
O  O65  1  0.99347433  0.24658833  0.57893980  1  -0.307805  -0.573179  0.061523  2.339778  0.039
O  O66  1  0.50652566  0.75340727  0.07894415  1  -0.307865  -0.573256  0.061526  2.339695  0.039
O  O67  1  0.00652514  0.74660644  0.92105344  1  -0.307883  -0.573275  0.061527  2.339676  0.039
O  O68  1  0.68943641  0.00363659  0.22404920  1  -0.384557  -0.51287  0.039427  2.407457  0.028
O  O69  1  0.18943356  0.49636916  0.77595119  1  -0.384614  -0.512874  0.039425  2.40747  0.028
O  O70  1  0.31056562  0.50363214  0.27595059  1  -0.384614  -0.512855  0.03943  2.407469  0.028
O  O71  1  0.81056196  0.99636385  0.72404877  1  -0.384575  -0.512818  0.039426  2.407374  0.028
O  O72  1  0.84474802  0.71484379  0.24303659  1  -0.565868  -0.799528  0.05167  2.160968  0.028
O  O73  1  0.34474347  0.78515567  0.75696503  1  -0.565864  -0.799584  0.051671  2.160946  0.028
O  O74  1  0.15525549  0.21484317  0.25696381  1  -0.565853  -0.799558  0.051672  2.160918  0.028
O  O75  1  0.65525167  0.28515342  0.74303725  1  -0.565884  -0.79956  0.051671  2.16095  0.028
O  O76  1  0.04430727  0.95372887  0.20465152  1  -0.585333  -0.773026  0.004063  2.010679  0.004
O  O77  1  0.54430254  0.54626784  0.79535225  1  -0.58528  -0.77291  0.004062  2.010776  0.004
O  O78  1  0.95569556  0.45372989  0.29535162  1  -0.585319  -0.772983  0.004063  2.0107  0.004
O  O79  1  0.45568999  0.04626604  0.70465118  1  -0.585344  -0.773053  0.004062  2.010651  0.004
