# generated using pymatgen
data_Co3H12C15N6O7
_symmetry_space_group_name_H-M   'P 1'
_cell_length_a   10.95974527
_cell_length_b   10.97939060
_cell_length_c   10.68489316
_cell_angle_alpha   83.43600613
_cell_angle_beta   86.39204931
_cell_angle_gamma   82.26735019
_symmetry_Int_Tables_number   1
_chemical_formula_structural   Co3H12C15N6O7
_chemical_formula_sum   'Co6 H24 C30 N12 O14'
_cell_volume   1264.20698225
_cell_formula_units_Z   2
loop_
 _symmetry_equiv_pos_site_id
 _symmetry_equiv_pos_as_xyz
  1  'x, y, z'
loop_
 _atom_site_type_symbol
 _atom_site_label
 _atom_site_symmetry_multiplicity
 _atom_site_fract_x
 _atom_site_fract_y
 _atom_site_fract_z
 _atom_site_occupancy
 _atom_site_pbe_bader_charge
 _atom_site_pbe_bader_spin_density
 _atom_site_pbe_cm5_charge
 _atom_site_pbe_ddec_charge
 _atom_site_pbe_ddec_spin_density
 _atom_site_pbe_ddec_sum_bond_order
 _atom_site_pbe_magmom
Co  Co0  1  0.07877968  0.90838468  0.25201021  1  1.333027  2.66594  0.692208  0.919397  2.903439  2.66554  2.65
Co  Co1  1  0.92121399  0.09163150  0.74796737  1  1.332493  2.665692  0.691738  0.918956  2.90301  2.662311  2.65
Co  Co2  1  0.84395732  0.00005310  0.49635072  1  1.249579  2.584464  0.668166  0.868112  2.774087  2.520598  2.553
Co  Co3  1  0.15602535  0.99993614  0.50360457  1  1.249148  2.584474  0.668019  0.868104  2.774019  2.519498  2.553
Co  Co4  1  0.97330501  0.84448978  0.00925798  1  1.201032  2.542676  0.661246  0.819438  2.70742  2.580173  2.494
Co  Co5  1  0.02672263  0.15552025  0.99078822  1  1.201165  2.542651  0.661498  0.819845  2.707414  2.580521  2.494
H  H6  1  0.64611711  0.83724839  0.99443443  1  0.086167  0.000692  0.110574  0.123804  0.000247  0.985752  0.0
H  H7  1  0.35387052  0.16275939  0.00558199  1  0.08634  0.000691  0.110604  0.123887  0.000247  0.985668  0.0
H  H8  1  0.43077763  0.85046297  0.09200211  1  0.093525  0.000361  0.101575  0.107527  9.2e-05  1.009721  0.0
H  H9  1  0.56921418  0.14954115  0.90801913  1  0.093377  0.000361  0.101611  0.107576  9.1e-05  1.009802  0.0
H  H10  1  0.55182722  0.94456902  0.44134462  1  0.129008  0.000917  0.109656  0.128822  0.000329  1.033315  0.0
H  H11  1  0.44818849  0.05544737  0.55867169  1  0.128995  0.000916  0.109689  0.128826  0.000329  1.033537  0.0
H  H12  1  0.15440482  0.32189760  0.51639132  1  0.106032  0.000596  0.108786  0.123431  0.000125  0.991933  0.0
H  H13  1  0.84555368  0.67813490  0.48358297  1  0.105398  0.000595  0.108786  0.123382  0.000125  0.99183  0.0
H  H14  1  0.12237965  0.54464696  0.42620712  1  0.103294  0.000306  0.099237  0.0996  9.7e-05  1.041231  0.0
H  H15  1  0.87760044  0.45538853  0.57378408  1  0.103499  0.000305  0.099275  0.099581  9.7e-05  1.041465  0.0
H  H16  1  0.04475172  0.44455154  0.06281671  1  0.122956  0.000838  0.108622  0.128703  0.000192  1.045866  0.0
H  H17  1  0.95523549  0.55544514  0.93716360  1  0.123164  0.000837  0.108584  0.128775  0.000192  1.045992  0.0
H  H18  1  0.18346288  0.91624266  0.04098180  1  0.576051  0.004827  0.302348  0.384476  0.003182  0.913317  0.005
H  H19  1  0.81652765  0.08372998  0.95900392  1  0.575815  0.004811  0.302347  0.384375  0.003175  0.913595  0.005
H  H20  1  0.04522524  0.81670749  0.47574193  1  0.584983  0.004243  0.305481  0.386316  0.002623  0.916064  0.005
H  H21  1  0.95476818  0.18332442  0.52426376  1  0.584597  0.004235  0.305575  0.38652  0.002616  0.916039  0.005
H  H22  1  0.77698399  0.17251629  0.27965316  1  0.607974  0.000374  0.32799  0.348236  7.6e-05  0.891815  0.0
H  H23  1  0.22304001  0.82745945  0.72035333  1  0.607469  0.000375  0.328008  0.348379  7.6e-05  0.891829  0.0
H  H24  1  0.73371030  0.38267356  0.32441273  1  0.040038  0.002161  0.094886  0.089096  0.000884  0.987317  0.001
H  H25  1  0.26632480  0.61730785  0.67559047  1  0.040021  0.002155  0.094967  0.089212  0.000882  0.987283  0.001
H  H26  1  0.64090041  0.28044253  0.42075513  1  0.048856  -4e-06  0.096316  0.095495  -0.000203  0.995064  0.0
H  H27  1  0.35911475  0.71955720  0.57922761  1  0.048392  -4e-06  0.096384  0.095647  -0.000203  0.994772  0.0
H  H28  1  0.77509738  0.32276248  0.48108748  1  0.03283  0.000247  0.105584  0.112974  -5.2e-05  0.992723  0.0
H  H29  1  0.22490695  0.67722325  0.51891636  1  0.033286  0.000247  0.10556  0.11295  -5.2e-05  0.99267  0.0
C  C30  1  0.69209925  0.91523151  0.29093130  1  0.330555  0.008071  0.089103  0.121188  0.004214  4.058486  0.008
C  C31  1  0.30792280  0.08477198  0.70908422  1  0.329641  0.008065  0.089194  0.12139  0.004209  4.058175  0.008
C  C32  1  0.71869640  0.88313099  0.16608155  1  0.42452  0.006637  0.093436  0.129026  0.003791  4.068272  0.007
C  C33  1  0.28132571  0.11688546  0.83393713  1  0.41119  0.006639  0.093274  0.128924  0.003785  4.068174  0.007
C  C34  1  0.62555767  0.85932833  0.09102206  1  -0.022807  0.000313  -0.091798  -0.159485  -0.000412  4.004251  0.0
C  C35  1  0.37446509  0.14068350  0.90900273  1  -0.009168  0.000311  -0.091734  -0.159518  -0.000406  4.004373  0.0
C  C36  1  0.50729438  0.86710182  0.14526577  1  -0.082316  -0.002239  -0.090908  -0.099428  -0.003037  4.004893  -0.001
C  C37  1  0.49271788  0.13289972  0.85474971  1  -0.082881  -0.002241  -0.090925  -0.099372  -0.003039  4.0048  -0.001
C  C38  1  0.47990492  0.89715046  0.27111996  1  -0.005719  0.007994  -0.024543  -0.042571  0.003703  3.982385  0.007
C  C39  1  0.52009188  0.10284353  0.72888341  1  -0.005121  0.008002  -0.024577  -0.042801  0.00371  3.982506  0.007
C  C40  1  0.57201392  0.92147450  0.34535110  1  0.003303  -0.003005  -0.082276  -0.160748  -0.004446  3.928243  -0.002
C  C41  1  0.42799595  0.07852425  0.65465645  1  0.003725  -0.003007  -0.082281  -0.160724  -0.004448  3.929055  -0.002
C  C42  1  0.34867152  0.90478874  0.32181647  1  1.56091  -0.002066  0.215146  0.587695  -0.003639  4.166098  -0.001
C  C43  1  0.65132143  0.09519966  0.67817378  1  1.560596  -0.002075  0.215293  0.588092  -0.003643  4.165415  -0.001
C  C44  1  0.08363107  0.29459450  0.21084347  1  0.323385  0.012252  0.093866  0.135498  0.006701  4.042587  0.011
C  C45  1  0.91635755  0.70540498  0.78912238  1  0.320593  0.012232  0.093691  0.135311  0.006689  4.042963  0.011
C  C46  1  0.11675796  0.26013781  0.33744150  1  0.458551  0.005605  0.096468  0.132047  0.003431  4.059796  0.006
C  C47  1  0.88320534  0.73985957  0.66252163  1  0.459145  0.005598  0.096645  0.132046  0.003426  4.059688  0.006
C  C48  1  0.13177087  0.34883268  0.41836438  1  -0.076872  0.002238  -0.092667  -0.161695  0.000823  3.994426  0.002
C  C49  1  0.86819228  0.65114618  0.58161498  1  -0.075951  0.002234  -0.092704  -0.161548  0.000822  3.994275  0.002
C  C50  1  0.11430942  0.47127903  0.36797083  1  -0.018697  -0.002464  -0.090763  -0.099815  -0.003245  4.002484  -0.001
C  C51  1  0.88565874  0.52871745  0.63205010  1  -0.019531  -0.002464  -0.090883  -0.099808  -0.003244  4.003006  -0.001
C  C52  1  0.08388167  0.50674378  0.24016651  1  -0.026437  0.010758  -0.023183  -0.039239  0.005402  3.976521  0.009
C  C53  1  0.91611040  0.49326497  0.75984856  1  -0.026003  0.010753  -0.023201  -0.039389  0.0054  3.976942  0.009
C  C54  1  0.06841955  0.41873108  0.16024854  1  0.024864  -0.004566  -0.080047  -0.156457  -0.006212  3.916073  -0.003
C  C55  1  0.93157272  0.58128230  0.83974351  1  0.026754  -0.004562  -0.079918  -0.156338  -0.006207  3.916529  -0.003
C  C56  1  0.06715712  0.64161142  0.19320330  1  1.552964  -0.002094  0.214243  0.590741  -0.003565  4.158225  -0.001
C  C57  1  0.93285505  0.35839753  0.80681506  1  1.551985  -0.002091  0.214434  0.591146  -0.003566  4.157292  -0.001
C  C58  1  0.73512982  0.30180651  0.39568370  1  0.418948  0.001377  -0.145608  -0.12192  0.000569  3.923984  0.001
C  C59  1  0.26489027  0.69817105  0.60432003  1  0.418988  0.001374  -0.145823  -0.122256  0.000566  3.923997  0.001
N  N60  1  0.80155159  0.93587606  0.33625459  1  -0.684203  0.049809  -0.243323  -0.257047  0.02692  3.535071  0.035
N  N61  1  0.19848148  0.06412014  0.66374794  1  -0.684011  0.049719  -0.243034  -0.256808  0.026874  3.534363  0.035
N  N62  1  0.88806295  0.91727521  0.24409558  1  -0.164945  0.043335  -0.117427  -0.041744  0.022927  3.561151  0.042
N  N63  1  0.11196586  0.08272558  0.75591606  1  -0.164499  0.043281  -0.117438  -0.041976  0.022897  3.560892  0.042
N  N64  1  0.84214849  0.88459957  0.14211718  1  -0.70057  0.061624  -0.247997  -0.233468  0.031591  3.575847  0.046
N  N65  1  0.15787374  0.11540948  0.85790798  1  -0.70072  0.061616  -0.248016  -0.233723  0.031591  3.575836  0.046
N  N66  1  0.07145662  0.18699626  0.16045078  1  -0.700083  0.052487  -0.249165  -0.26212  0.027504  3.55573  0.031
N  N67  1  0.92853587  0.81298196  0.83952853  1  -0.699972  0.052409  -0.248787  -0.261718  0.02746  3.554458  0.031
N  N68  1  0.09581503  0.09445843  0.25190864  1  -0.153097  0.05102  -0.113607  -0.028375  0.026958  3.565787  0.047
N  N69  1  0.90417397  0.90553179  0.74806389  1  -0.152322  0.05096  -0.113732  -0.028701  0.026924  3.565277  0.047
N  N70  1  0.12458989  0.13454086  0.35761783  1  -0.721724  0.072556  -0.237143  -0.23048  0.037788  3.547677  0.059
N  N71  1  0.87538633  0.86546220  0.64234188  1  -0.722694  0.072503  -0.237217  -0.230666  0.037767  3.547723  0.059
O  O72  1  0.09606506  0.94032845  0.05982163  1  -1.150725  0.229223  -0.555121  -0.834722  0.121162  2.361706  0.187
O  O73  1  0.90395981  0.05965745  0.94032773  1  -1.15112  0.229232  -0.55517  -0.834596  0.121133  2.360498  0.187
O  O74  1  0.04242954  0.90214679  0.43882780  1  -1.13829  0.246218  -0.554898  -0.834194  0.131588  2.400765  0.206
O  O75  1  0.95755326  0.09783969  0.56104263  1  -1.13825  0.246215  -0.554971  -0.834329  0.131607  2.399988  0.206
O  O76  1  0.32497083  0.93874834  0.43278662  1  -1.156711  0.088284  -0.317672  -0.562812  0.045461  2.379785  0.073
O  O77  1  0.67504940  0.06124774  0.56719808  1  -1.156176  0.088298  -0.317666  -0.562909  0.045471  2.379763  0.073
O  O78  1  0.27015721  0.87668410  0.25102030  1  -1.172977  0.070206  -0.311553  -0.55453  0.036092  2.365153  0.062
O  O79  1  0.72980120  0.12332339  0.74899812  1  -1.17342  0.070182  -0.311628  -0.554659  0.036081  2.364449  0.062
O  O80  1  0.03732140  0.67188048  0.07818749  1  -1.159234  0.086752  -0.322881  -0.559389  0.044028  2.360529  0.07
O  O81  1  0.96268391  0.32810526  0.92183500  1  -1.15876  0.086753  -0.322889  -0.559489  0.044029  2.360213  0.07
O  O82  1  0.08321318  0.71696026  0.27057185  1  -1.158605  0.069561  -0.310009  -0.553153  0.035972  2.371002  0.062
O  O83  1  0.91678191  0.28309204  0.72939857  1  -1.158003  0.069494  -0.310086  -0.553399  0.035941  2.37026  0.062
O  O84  1  0.81303985  0.19709128  0.35224338  1  -1.118468  0.031875  -0.392432  -0.438144  0.015785  2.395745  0.026
O  O85  1  0.18696967  0.80286395  0.64778522  1  -1.118058  0.031835  -0.39241  -0.438283  0.015768  2.395787  0.026
