# generated using pymatgen
data_ZnH7C10N5O2
_symmetry_space_group_name_H-M   'P 1'
_cell_length_a   9.83581554
_cell_length_b   14.40781810
_cell_length_c   22.11212687
_cell_angle_alpha   90.00017896
_cell_angle_beta   89.99999570
_cell_angle_gamma   90.00007358
_symmetry_Int_Tables_number   1
_chemical_formula_structural   ZnH7C10N5O2
_chemical_formula_sum   'Zn8 H56 C80 N40 O16'
_cell_volume   3133.56789966
_cell_formula_units_Z   8
loop_
 _symmetry_equiv_pos_site_id
 _symmetry_equiv_pos_as_xyz
  1  'x, y, z'
loop_
 _atom_site_type_symbol
 _atom_site_label
 _atom_site_symmetry_multiplicity
 _atom_site_fract_x
 _atom_site_fract_y
 _atom_site_fract_z
 _atom_site_occupancy
 _atom_site_pbe_bader_charge
 _atom_site_pbe_bader_spin_density
 _atom_site_pbe_cm5_charge
 _atom_site_pbe_ddec_charge
 _atom_site_pbe_ddec_spin_density
 _atom_site_pbe_ddec_sum_bond_order
 _atom_site_pbe_magmom
Zn  Zn0  1  0.08510235  0.13977779  0.36478097  1  1.233477  0  0.723998  0.703529  0  2.458559  0
Zn  Zn1  1  0.08510258  0.36022353  0.13521848  1  1.233477  0  0.723987  0.703541  0  2.458589  0
Zn  Zn2  1  0.41489771  0.86022269  0.86478065  1  1.233462  0  0.723978  0.703501  0  2.458607  0
Zn  Zn3  1  0.41489650  0.63977864  0.63521861  1  1.23348  0  0.723969  0.703488  0  2.458614  0
Zn  Zn4  1  0.91489795  0.86022237  0.63521928  1  1.233479  0  0.723999  0.703555  0  2.458563  0
Zn  Zn5  1  0.91489773  0.63977662  0.86478177  1  1.233446  0  0.723963  0.703462  0  2.4586  0
Zn  Zn6  1  0.58510260  0.13977746  0.13521915  1  1.233467  0  0.723967  0.703487  0  2.458599  0
Zn  Zn7  1  0.58510279  0.36022082  0.36478164  1  1.233471  0  0.723971  0.703447  0  2.458609  0
H  H8  1  0.47346945  0.91503435  0.45371758  1  0.099489  0  0.101079  0.105256  0  1.00853  0
H  H9  1  0.47347222  0.58496814  0.04628063  1  0.099475  0  0.101099  0.10527  0  1.008507  0
H  H10  1  0.02652856  0.08496725  0.95371929  1  0.099471  0  0.101092  0.105277  0  1.008513  0
H  H11  1  0.02652891  0.41503222  0.54628076  1  0.099476  0  0.101095  0.10528  0  1.008512  0
H  H12  1  0.52652984  0.08496650  0.54628222  1  0.09948  0  0.101088  0.105254  0  1.008548  0
H  H13  1  0.52652809  0.41503132  0.95371917  1  0.099469  0  0.101095  0.105286  0  1.00852  0
H  H14  1  0.97347073  0.91503221  0.04628096  1  0.099475  0  0.101089  0.105269  0  1.008517  0
H  H15  1  0.97347140  0.58496724  0.45371904  1  0.099471  0  0.10109  0.105252  0  1.00852  0
H  H16  1  0.07174582  0.96883707  0.52433636  1  0.153901  0  0.108193  0.131209  0  1.053343  0
H  H17  1  0.07174638  0.53116465  0.97566291  1  0.154098  0  0.108221  0.131273  0  1.053295  0
H  H18  1  0.42825531  0.03116319  0.02433735  1  0.153998  0  0.108203  0.131261  0  1.053292  0
H  H19  1  0.42825569  0.46883705  0.47566300  1  0.153905  0  0.108201  0.13126  0  1.053292  0
H  H20  1  0.92825347  0.03116239  0.47566344  1  0.153989  0  0.108187  0.131228  0  1.053331  0
H  H21  1  0.92825494  0.46883620  0.02433734  1  0.154007  0  0.108203  0.131274  0  1.053295  0
H  H22  1  0.57174499  0.96883628  0.97566290  1  0.154075  0  0.108199  0.131254  0  1.053314  0
H  H23  1  0.57174360  0.53116450  0.52433680  1  0.154076  0  0.108212  0.131271  0  1.05327  0
H  H24  1  0.51647847  0.79404885  0.53261488  1  0.092496  0  0.106282  0.121049  0  1.005321  0
H  H25  1  0.51648039  0.70595326  0.96738346  1  0.09246  0  0.106292  0.121066  0  1.005331  0
H  H26  1  0.98352108  0.20595258  0.03261669  1  0.092478  0  0.106292  0.121064  0  1.005339  0
H  H27  1  0.98352011  0.29404744  0.46738319  1  0.092463  0  0.106297  0.121077  0  1.005322  0
H  H28  1  0.48352285  0.20595131  0.46738537  1  0.09252  0  0.106276  0.121039  0  1.005357  0
H  H29  1  0.48351992  0.29404689  0.03261679  1  0.092464  0  0.106306  0.121074  0  1.005319  0
H  H30  1  0.01647923  0.79404688  0.96738356  1  0.092475  0  0.106284  0.121057  0  1.00535  0
H  H31  1  0.01648020  0.70595271  0.53261661  1  0.092469  0  0.106287  0.121053  0  1.005347  0
H  H32  1  0.96857352  0.06087953  0.14929731  1  0.558847  0  0.316331  0.302837  0  0.997669  0
H  H33  1  0.96857386  0.43911979  0.35070302  1  0.558847  0  0.316328  0.302828  0  0.997678  0
H  H34  1  0.53142601  0.93912037  0.64929716  1  0.558806  0  0.316333  0.302836  0  0.997662  0
H  H35  1  0.53142666  0.56088037  0.85070209  1  0.558859  0  0.316331  0.302826  0  0.99773  0
H  H36  1  0.03142679  0.93911993  0.85070294  1  0.558802  0  0.316335  0.302833  0  0.99767  0
H  H37  1  0.03142543  0.56087967  0.64929723  1  0.55885  0  0.316331  0.302845  0  0.997676  0
H  H38  1  0.46857327  0.06087979  0.35070309  1  0.558819  0  0.316331  0.302827  0  0.997677  0
H  H39  1  0.46857365  0.43911979  0.14929771  1  0.558857  0  0.31633  0.302804  0  0.997757  0
H  H40  1  0.92625582  0.16626487  0.23928605  1  0.154569  0  0.132087  0.083892  0  1.048807  0
H  H41  1  0.92625597  0.33373511  0.26071428  1  0.154788  0  0.132082  0.083901  0  1.048809  0
H  H42  1  0.57374370  0.83373476  0.73928523  1  0.154794  0  0.132088  0.083901  0  1.048831  0
H  H43  1  0.57374456  0.66626532  0.76071402  1  0.154554  0  0.132084  0.083879  0  1.04881  0
H  H44  1  0.07374449  0.83373459  0.76071420  1  0.154555  0  0.132074  0.08388  0  1.048826  0
H  H45  1  0.07374331  0.66626505  0.73928552  1  0.154792  0  0.132088  0.083883  0  1.048812  0
H  H46  1  0.42625661  0.16626470  0.26071502  1  0.154804  0  0.132084  0.083893  0  1.048817  0
H  H47  1  0.42625575  0.33373414  0.23928578  1  0.154548  0  0.132074  0.083865  0  1.048837  0
H  H48  1  0.25527919  0.99121680  0.28555202  1  0.121055  0  0.119346  0.119437  0  1.01268  0
H  H49  1  0.25527975  0.50878342  0.21444846  1  0.121036  0  0.119336  0.119454  0  1.012675  0
H  H50  1  0.24471987  0.00878331  0.78555176  1  0.121043  0  0.119346  0.11948  0  1.012705  0
H  H51  1  0.24471931  0.49121705  0.71444783  1  0.121033  0  0.119344  0.119472  0  1.012696  0
H  H52  1  0.74472112  0.00878336  0.71444823  1  0.121056  0  0.119339  0.119432  0  1.012692  0
H  H53  1  0.74472055  0.49121605  0.78555225  1  0.121041  0  0.119343  0.119463  0  1.012718  0
H  H54  1  0.75527942  0.99121615  0.21444849  1  0.12103  0  0.119339  0.119441  0  1.012699  0
H  H55  1  0.75527998  0.50878311  0.28555197  1  0.12104  0  0.119331  0.119439  0  1.01268  0
H  H56  1  0.17493300  0.95499309  0.16642912  1  0.131665  0  0.130073  0.126193  0  0.984318  0
H  H57  1  0.17493362  0.54500705  0.33357046  1  0.131659  0  0.130079  0.126211  0  0.984289  0
H  H58  1  0.32506709  0.04500645  0.66642938  1  0.131668  0  0.13008  0.126196  0  0.984312  0
H  H59  1  0.32506746  0.45499398  0.83356976  1  0.131702  0  0.130093  0.126255  0  0.984283  0
H  H60  1  0.82506730  0.04500637  0.83357068  1  0.13167  0  0.130085  0.126199  0  0.984302  0
H  H61  1  0.82506668  0.45499241  0.66642934  1  0.131664  0  0.130074  0.126205  0  0.984304  0
H  H62  1  0.67493322  0.95499301  0.33357042  1  0.131669  0  0.13008  0.126207  0  0.984336  0
H  H63  1  0.67493284  0.54500618  0.16643004  1  0.131702  0  0.130091  0.126229  0  0.984295  0
C  C64  1  0.19196045  0.86440366  0.57015274  1  0.359426  0  0.086509  0.116207  0  4.070232  0
C  C65  1  0.19196224  0.63559748  0.92984608  1  0.359507  0  0.08653  0.116401  0  4.070187  0
C  C66  1  0.30803965  0.13559751  0.07015395  1  0.359542  0  0.086542  0.116366  0  4.070226  0
C  C67  1  0.30803781  0.36440123  0.42984595  1  0.35964  0  0.086496  0.116314  0  4.070248  0
C  C68  1  0.80803985  0.13559650  0.42984751  1  0.359528  0  0.086532  0.116226  0  4.070214  0
C  C69  1  0.80803806  0.36440129  0.07015417  1  0.359622  0  0.08649  0.116329  0  4.070232  0
C  C70  1  0.69196167  0.86440195  0.92984585  1  0.359619  0  0.086532  0.116412  0  4.070168  0
C  C71  1  0.69196148  0.63559824  0.57015385  1  0.359619  0  0.086498  0.116288  0  4.070218  0
C  C72  1  0.39591104  0.89827613  0.48712095  1  -0.080243  0  -0.08677  -0.092405  0  3.993501  0
C  C73  1  0.39591283  0.60172490  0.01287771  1  -0.080168  0  -0.086793  -0.092397  0  3.993418  0
C  C74  1  0.10408696  0.10172354  0.98712179  1  -0.08018  0  -0.086836  -0.092485  0  3.99343  0
C  C75  1  0.10408728  0.39827600  0.51287825  1  -0.080179  0  -0.086825  -0.092466  0  3.993401  0
C  C76  1  0.60408825  0.10172403  0.51287930  1  -0.080234  0  -0.086763  -0.092365  0  3.993445  0
C  C77  1  0.60408747  0.39827595  0.98712164  1  -0.080173  0  -0.086854  -0.09253  0  3.993427  0
C  C78  1  0.89591232  0.89827592  0.01287846  1  -0.080168  0  -0.086836  -0.092434  0  3.993403  0
C  C79  1  0.89591201  0.60172416  0.48712154  1  -0.080165  0  -0.086802  -0.092359  0  3.993382  0
C  C80  1  0.24771914  0.01486528  0.43311439  1  1.569188  0  0.208351  0.584535  0  4.207595  0
C  C81  1  0.24771962  0.48513757  0.06688416  1  1.568935  0  0.208381  0.584598  0  4.207549  0
C  C82  1  0.25228091  0.98513621  0.93311523  1  1.56894  0  0.208314  0.584485  0  4.207685  0
C  C83  1  0.25228049  0.51486359  0.56688448  1  1.568935  0  0.20832  0.584478  0  4.207763  0
C  C84  1  0.75228218  0.98513557  0.56688541  1  1.569018  0  0.208378  0.584626  0  4.20754  0
C  C85  1  0.75228069  0.51486259  0.93311609  1  1.568906  0  0.208329  0.584558  0  4.207635  0
C  C86  1  0.74771940  0.01486325  0.06688457  1  1.568928  0  0.208386  0.584667  0  4.207512  0
C  C87  1  0.74771880  0.48513657  0.43311531  1  1.568931  0  0.208378  0.584659  0  4.207582  0
C  C88  1  0.27068812  0.94746256  0.48386895  1  -0.001834  0  -0.025381  -0.046072  0  3.993632  0
C  C89  1  0.27068880  0.55253906  0.01612972  1  -0.001584  0  -0.025314  -0.045993  0  3.993709  0
C  C90  1  0.22931395  0.05253987  0.98387013  1  -0.001546  0  -0.025264  -0.04593  0  3.993629  0
C  C91  1  0.22931233  0.44746116  0.51612946  1  -0.001561  0  -0.025256  -0.045907  0  3.99365  0
C  C92  1  0.72931320  0.05253968  0.51613176  1  -0.00167  0  -0.02536  -0.046024  0  3.993755  0
C  C93  1  0.72931252  0.44746040  0.98387098  1  -0.001567  0  -0.025314  -0.046005  0  3.993753  0
C  C94  1  0.77068635  0.94746098  0.01612922  1  -0.001546  0  -0.025251  -0.046012  0  3.993699  0
C  C95  1  0.77068696  0.55253969  0.48387034  1  -0.001561  0  -0.025287  -0.046048  0  3.993773  0
C  C96  1  0.31493750  0.81382423  0.57228726  1  0.360455  0  0.091063  0.123146  0  4.061081  0
C  C97  1  0.31493938  0.68617632  0.92771155  1  0.360474  0  0.090995  0.122987  0  4.060953  0
C  C98  1  0.18506159  0.18617695  0.07228812  1  0.360477  0  0.090999  0.122961  0  4.060936  0
C  C99  1  0.18506067  0.31382238  0.42771223  1  0.360481  0  0.091032  0.122992  0  4.06094  0
C  C100  1  0.68506281  0.18617593  0.42771345  1  0.360394  0  0.09106  0.123123  0  4.061076  0
C  C101  1  0.68506092  0.31382245  0.07228779  1  0.360463  0  0.091044  0.123004  0  4.060925  0
C  C102  1  0.81493770  0.81382251  0.92771213  1  0.360492  0  0.091029  0.122996  0  4.060975  0
C  C103  1  0.81493862  0.68617778  0.57228757  1  0.360481  0  0.091031  0.123004  0  4.060891  0
C  C104  1  0.16786694  0.93183568  0.52586173  1  -0.005123  0  -0.082777  -0.16023  0  3.93061  0
C  C105  1  0.16786961  0.56816613  0.97413709  1  -0.005247  0  -0.082881  -0.16046  0  3.930758  0
C  C106  1  0.33213216  0.06816667  0.02586325  1  -0.005306  0  -0.082895  -0.160484  0  3.930789  0
C  C107  1  0.33213145  0.43183417  0.47413665  1  -0.005259  0  -0.082879  -0.160458  0  3.930721  0
C  C108  1  0.83213235  0.06816448  0.47413853  1  -0.005182  0  -0.082819  -0.160338  0  3.930652  0
C  C109  1  0.83213171  0.43183333  0.02586361  1  -0.005368  0  -0.082817  -0.160418  0  3.930737  0
C  C110  1  0.66786713  0.93183418  0.97413655  1  -0.005386  0  -0.08286  -0.160439  0  3.93077  0
C  C111  1  0.66786784  0.56816737  0.52586270  1  -0.00538  0  -0.082873  -0.160421  0  3.930759  0
C  C112  1  0.42022518  0.83124111  0.53064361  1  0.027044  0  -0.091927  -0.150719  0  3.977422  0
C  C113  1  0.42022804  0.66876092  0.96935474  1  0.026958  0  -0.091928  -0.150714  0  3.977419  0
C  C114  1  0.07977290  0.16876057  0.03064490  1  0.027002  0  -0.091934  -0.150674  0  3.977385  0
C  C115  1  0.07977200  0.33123936  0.46935501  1  0.026971  0  -0.091939  -0.150705  0  3.97738  0
C  C116  1  0.57977513  0.16875974  0.46935619  1  0.027001  0  -0.091918  -0.150729  0  3.977481  0
C  C117  1  0.57977227  0.33123924  0.03064551  1  0.026975  0  -0.091941  -0.150656  0  3.977346  0
C  C118  1  0.92022740  0.83123959  0.96935490  1  0.026986  0  -0.09192  -0.15069  0  3.977412  0
C  C119  1  0.92022728  0.66876079  0.53064524  1  0.026978  0  -0.09193  -0.150709  0  3.977408  0
C  C120  1  0.00649167  0.11475770  0.23666573  1  1.004743  0  0.143658  0.145354  0  3.938008  0
C  C121  1  0.00649193  0.38524216  0.26333463  1  1.004743  0  0.143669  0.145322  0  3.938089  0
C  C122  1  0.49350841  0.88524148  0.73666500  1  1.004741  0  0.143659  0.145328  0  3.938054  0
C  C123  1  0.49350815  0.61475853  0.76333425  1  1.004733  0  0.143647  0.145368  0  3.938027  0
C  C124  1  0.99350863  0.88524176  0.76333452  1  1.004736  0  0.143674  0.145347  0  3.938056  0
C  C125  1  0.99350838  0.61475799  0.73666562  1  1.004744  0  0.143659  0.145395  0  3.937975  0
C  C126  1  0.50649190  0.11475798  0.26333480  1  1.004749  0  0.143683  0.145359  0  3.938022  0
C  C127  1  0.50649114  0.38524162  0.23666555  1  1.004728  0  0.143649  0.145349  0  3.938068  0
C  C128  1  0.17612266  0.02217268  0.25808917  1  0.414564  0  -0.006814  -0.045898  0  3.997269  0
C  C129  1  0.17612309  0.47782734  0.24191073  1  0.413985  0  -0.006799  -0.045941  0  3.997293  0
C  C130  1  0.32387640  0.97782730  0.75808954  1  0.413974  0  -0.006798  -0.045977  0  3.997174  0
C  C131  1  0.32387597  0.52217326  0.74191017  1  0.414374  0  -0.006797  -0.045941  0  3.997189  0
C  C132  1  0.82387764  0.97782748  0.74191063  1  0.414585  0  -0.006807  -0.045914  0  3.997282  0
C  C133  1  0.82387721  0.52217213  0.75808952  1  0.414574  0  -0.006786  -0.045916  0  3.997311  0
C  C134  1  0.67612391  0.02217286  0.24191071  1  0.413957  0  -0.006786  -0.045881  0  3.997397  0
C  C135  1  0.67612332  0.47782620  0.25809008  1  0.41458  0  -0.006798  -0.045934  0  3.997163  0
C  C136  1  0.13706132  0.00376030  0.19964565  1  0.295424  0  0.002659  -0.049291  0  3.948062  0
C  C137  1  0.13706280  0.49623968  0.30035470  1  0.296015  0  0.002625  -0.049281  0  3.948013  0
C  C138  1  0.36293775  0.99623940  0.69964516  1  0.296026  0  0.002592  -0.049324  0  3.94796  0
C  C139  1  0.36293829  0.50376119  0.80035365  1  0.295626  0  0.002581  -0.049366  0  3.947991  0
C  C140  1  0.86293797  0.99623917  0.80035460  1  0.295404  0  0.002632  -0.049278  0  3.948005  0
C  C141  1  0.86293751  0.50376047  0.69964600  1  0.295409  0  0.002646  -0.049304  0  3.948067  0
C  C142  1  0.63706256  0.00376006  0.30035418  1  0.29602  0  0.002612  -0.04932  0  3.948145  0
C  C143  1  0.63706100  0.49623827  0.19964615  1  0.295449  0  0.002617  -0.049298  0  3.947954  0
N  N144  1  0.09358254  0.09181128  0.28072252  1  -1.257448  0  -0.366925  -0.28948  0  3.61506  0
N  N145  1  0.09358183  0.40818867  0.21927738  1  -1.257438  0  -0.366943  -0.289524  0  3.615169  0
N  N146  1  0.40641753  0.90818811  0.78072275  1  -1.257435  0  -0.3669  -0.289435  0  3.615005  0
N  N147  1  0.40641723  0.59181251  0.71927696  1  -1.257463  0  -0.366936  -0.289478  0  3.614998  0
N  N148  1  0.90641776  0.90818888  0.71927727  1  -1.257443  0  -0.36695  -0.289545  0  3.615151  0
N  N149  1  0.90641746  0.59181149  0.78072287  1  -1.257463  0  -0.366942  -0.289495  0  3.615082  0
N  N150  1  0.59358379  0.09181135  0.21927750  1  -1.257438  0  -0.366936  -0.289498  0  3.615135  0
N  N151  1  0.59358307  0.40818764  0.28072284  1  -1.257463  0  -0.366912  -0.289461  0  3.615034  0
N  N152  1  0.11208092  0.83078726  0.61629978  1  -0.743117  0  -0.239777  -0.230576  0  3.533446  0
N  N153  1  0.11208075  0.66921450  0.88369904  1  -0.743076  0  -0.239794  -0.23061  0  3.533395  0
N  N154  1  0.38791918  0.16921482  0.11630106  1  -0.743075  0  -0.239782  -0.230554  0  3.533408  0
N  N155  1  0.38791829  0.33078537  0.38369884  1  -0.743069  0  -0.239789  -0.230541  0  3.533464  0
N  N156  1  0.88791938  0.16921290  0.38370002  1  -0.743123  0  -0.239779  -0.230577  0  3.533403  0
N  N157  1  0.88791854  0.33078565  0.11630121  1  -0.743097  0  -0.239795  -0.230583  0  3.533428  0
N  N158  1  0.61208113  0.83078533  0.88369874  1  -0.743076  0  -0.239797  -0.230617  0  3.533446  0
N  N159  1  0.61208099  0.66921478  0.61630096  1  -0.743065  0  -0.239778  -0.230519  0  3.533403  0
N  N160  1  0.17996033  0.76399168  0.64497492  1  -0.098325  0  -0.092971  -0.04426  0  3.216417  0
N  N161  1  0.17996029  0.73600945  0.85502434  1  -0.098382  0  -0.092928  -0.044252  0  3.216394  0
N  N162  1  0.32003875  0.23600915  0.14497589  1  -0.098396  0  -0.092938  -0.04428  0  3.2164  0
N  N163  1  0.32003977  0.26399029  0.35502401  1  -0.098397  0  -0.092943  -0.044309  0  3.216405  0
N  N164  1  0.82003896  0.23600779  0.35502578  1  -0.098299  0  -0.093027  -0.044342  0  3.216493  0
N  N165  1  0.82003900  0.26399140  0.14497591  1  -0.098382  0  -0.092939  -0.044286  0  3.216404  0
N  N166  1  0.67996054  0.76399031  0.85502391  1  -0.098414  0  -0.092962  -0.044317  0  3.216425  0
N  N167  1  0.67996155  0.73600917  0.64497579  1  -0.098398  0  -0.092943  -0.044319  0  3.216444  0
N  N168  1  0.30208746  0.75257356  0.61943508  1  -0.717117  0  -0.246902  -0.235512  0  3.562787  0
N  N169  1  0.30208947  0.74742836  0.88056328  1  -0.717164  0  -0.24687  -0.235451  0  3.562549  0
N  N170  1  0.19791061  0.24742853  0.11943652  1  -0.717171  0  -0.246858  -0.235413  0  3.562494  0
N  N171  1  0.19790957  0.25257219  0.38056338  1  -0.717179  0  -0.246858  -0.235385  0  3.562527  0
N  N172  1  0.69791285  0.24742659  0.38056517  1  -0.717114  0  -0.246846  -0.235367  0  3.56266  0
N  N173  1  0.69791084  0.25257179  0.11943652  1  -0.717171  0  -0.246853  -0.235393  0  3.562519  0
N  N174  1  0.80208868  0.75257162  0.88056327  1  -0.717159  0  -0.246855  -0.235379  0  3.562514  0
N  N175  1  0.80208971  0.74742796  0.61943687  1  -0.717173  0  -0.246861  -0.235386  0  3.562528  0
N  N176  1  0.03082820  0.06296974  0.18721679  1  -1.280831  0  -0.373202  -0.202131  0  3.68599  0
N  N177  1  0.03082854  0.43703015  0.31278312  1  -1.280823  0  -0.373165  -0.202068  0  3.685972  0
N  N178  1  0.46917088  0.93702990  0.68721662  1  -1.280797  0  -0.373178  -0.20207  0  3.685925  0
N  N179  1  0.46917255  0.56297009  0.81278263  1  -1.280816  0  -0.373121  -0.202088  0  3.686081  0
N  N180  1  0.96917109  0.93702972  0.81278301  1  -1.28078  0  -0.373162  -0.202054  0  3.685943  0
N  N181  1  0.96917075  0.56296932  0.68721668  1  -1.280818  0  -0.373186  -0.202143  0  3.685986  0
N  N182  1  0.53082841  0.06296956  0.31278317  1  -1.280818  0  -0.373188  -0.202117  0  3.685995  0
N  N183  1  0.53082776  0.43702937  0.18721717  1  -1.280838  0  -0.373158  -0.202074  0  3.686116  0
O  O184  1  0.12655993  0.04941383  0.42932329  1  -1.182403  0  -0.330863  -0.537535  0  2.3469  0
O  O185  1  0.12656237  0.45058684  0.07067571  1  -1.182415  0  -0.330871  -0.537577  0  2.346938  0
O  O186  1  0.37343910  0.95058696  0.92932406  1  -1.182389  0  -0.330844  -0.537486  0  2.346953  0
O  O187  1  0.37343875  0.54941364  0.57067610  1  -1.182381  0  -0.330875  -0.53753  0  2.346932  0
O  O188  1  0.87344037  0.95058564  0.57067651  1  -1.182416  0  -0.330867  -0.53756  0  2.346878  0
O  O189  1  0.87343895  0.54941262  0.92932454  1  -1.182334  0  -0.330836  -0.537511  0  2.346917  0
O  O190  1  0.62656120  0.04941320  0.07067619  1  -1.182388  0  -0.330867  -0.537574  0  2.346912  0
O  O191  1  0.62656054  0.45058652  0.42932370  1  -1.18237  0  -0.330873  -0.537566  0  2.346935  0
O  O192  1  0.34215363  0.03322541  0.39689355  1  -1.210058  0  -0.325298  -0.578514  0  2.238097  0
O  O193  1  0.34215508  0.46677822  0.10310589  1  -1.210015  0  -0.325335  -0.578564  0  2.238043  0
O  O194  1  0.15784642  0.96677661  0.89689346  1  -1.210048  0  -0.325293  -0.578519  0  2.2381  0
O  O195  1  0.15784604  0.53322380  0.60310671  1  -1.210049  0  -0.325309  -0.578553  0  2.238176  0
O  O196  1  0.65784769  0.96677544  0.60310670  1  -1.21005  0  -0.325342  -0.578615  0  2.23803  0
O  O197  1  0.65784522  0.53322194  0.89689436  1  -1.21  0  -0.325315  -0.578553  0  2.238072  0
O  O198  1  0.84215286  0.03322285  0.10310634  1  -1.210036  0  -0.325359  -0.578608  0  2.238008  0
O  O199  1  0.84215325  0.46677635  0.39689399  1  -1.210033  0  -0.325345  -0.5786  0  2.238027  0
