# generated using pymatgen
data_ZnH20C20N2O7
_symmetry_space_group_name_H-M   'P 1'
_cell_length_a   5.48136599
_cell_length_b   8.21587121
_cell_length_c   22.66443185
_cell_angle_alpha   85.43466254
_cell_angle_beta   83.06132218
_cell_angle_gamma   70.54052794
_symmetry_Int_Tables_number   1
_chemical_formula_structural   ZnH20C20N2O7
_chemical_formula_sum   'Zn2 H40 C40 N4 O14'
_cell_volume   954.47783302
_cell_formula_units_Z   2
loop_
 _symmetry_equiv_pos_site_id
 _symmetry_equiv_pos_as_xyz
  1  'x, y, z'
loop_
 _atom_site_type_symbol
 _atom_site_label
 _atom_site_symmetry_multiplicity
 _atom_site_fract_x
 _atom_site_fract_y
 _atom_site_fract_z
 _atom_site_occupancy
 _atom_site_hle17_bader_spin_density
 _atom_site_hle17_ddec_charge
 _atom_site_hle17_ddec_spin_density
 _atom_site_hle17_ddec_sum_bond_order
 _atom_site_hle17_magmom
 _atom_site_hse06_10hf_bader_spin_density
 _atom_site_hse06_10hf_ddec_charge
 _atom_site_hse06_10hf_ddec_spin_density
 _atom_site_hse06_10hf_ddec_sum_bond_order
 _atom_site_hse06_10hf_magmom
 _atom_site_hse06_bader_spin_density
 _atom_site_hse06_ddec_charge
 _atom_site_hse06_ddec_spin_density
 _atom_site_hse06_ddec_sum_bond_order
 _atom_site_hse06_magmom
 _atom_site_pbe_bader_spin_density
 _atom_site_pbe_cm5_charge
 _atom_site_pbe_ddec_charge
 _atom_site_pbe_ddec_spin_density
 _atom_site_pbe_ddec_sum_bond_order
 _atom_site_pbe_magmom
Zn  Zn0  1  0.96269038  0.74916708  0.24999925  1  0  1.068503  0  1.7845  0  0  0.885575  0  2.241599  0  0  0.934402  0  2.183882  0  0  0.691559  0.851327  0  2.281366  0
Zn  Zn1  1  0.03725319  0.25091507  0.75000023  1  0  1.068371  0  1.784507  0  0  0.885347  0  2.24164  0  0  0.934186  0  2.183933  0  0  0.6914  0.851089  0  2.281393  0
H  H2  1  0.19303641  0.04574424  0.24842192  1  0  0.076149  0  0.956302  0  0  0.083224  0  1.024894  0  0  0.085553  0  1.023025  0  0  0.114257  0.081431  0  1.026373  0
H  H3  1  0.48795899  0.45272874  0.25175455  1  0  0.075525  0  0.957174  0  0  0.082791  0  1.025806  0  0  0.085086  0  1.023936  0  0  0.11407  0.081046  0  1.027227  0
H  H4  1  0.80701493  0.95428272  0.75155724  1  0  0.076032  0  0.956427  0  0  0.083174  0  1.024918  0  0  0.085472  0  1.023098  0  0  0.114323  0.081378  0  1.026398  0
H  H5  1  0.51194538  0.54735777  0.74822474  1  0  0.075909  0  0.95677  0  0  0.083038  0  1.025521  0  0  0.085334  0  1.023652  0  0  0.114102  0.081286  0  1.026942  0
H  H6  1  0.12573000  0.33800956  0.19670574  1  0  0.109944  0  0.982741  0  0  0.1157  0  1.048618  0  0  0.118557  0  1.049227  0  0  0.104132  0.113641  0  1.048355  0
H  H7  1  0.66037173  0.16042800  0.30351020  1  0  0.110313  0  0.982061  0  0  0.116102  0  1.047844  0  0  0.118877  0  1.048587  0  0  0.104206  0.114094  0  1.047516  0
H  H8  1  0.87432210  0.66201486  0.80327393  1  0  0.109817  0  0.983048  0  0  0.115645  0  1.048842  0  0  0.118502  0  1.049458  0  0  0.104124  0.113586  0  1.048582  0
H  H9  1  0.33956280  0.83965637  0.69646103  1  0  0.11048  0  0.98191  0  0  0.116124  0  1.047841  0  0  0.118912  0  1.048558  0  0  0.104164  0.114111  0  1.04752  0
H  H10  1  0.80652368  0.43818897  0.12168349  1  0  0.109541  0  0.939009  0  0  0.119204  0  0.997828  0  0  0.122516  0  0.995125  0  0  0.112383  0.11673  0  0.999898  0
H  H11  1  0.36590980  0.06047856  0.37846704  1  0  0.109613  0  0.940208  0  0  0.119305  0  0.998893  0  0  0.122596  0  0.996192  0  0  0.112513  0.11683  0  1.000963  0
H  H12  1  0.19349691  0.56185162  0.87830221  1  0  0.109354  0  0.938974  0  0  0.119067  0  0.997758  0  0  0.122376  0  0.995056  0  0  0.112332  0.116598  0  0.999811  0
H  H13  1  0.63406241  0.93956845  0.62150590  1  0  0.109823  0  0.940189  0  0  0.119364  0  0.999046  0  0  0.122647  0  0.99634  0  0  0.112461  0.116894  0  1.001107  0
H  H14  1  0.56977365  0.23613968  0.09792121  1  0  0.101243  0  0.971112  0  0  0.110654  0  1.032344  0  0  0.112747  0  1.033591  0  0  0.105452  0.109115  0  1.031674  0
H  H15  1  0.90386612  0.26279192  0.40219222  1  0  0.101039  0  0.971152  0  0  0.109949  0  1.033205  0  0  0.112006  0  1.034474  0  0  0.105312  0.10845  0  1.032499  0
H  H16  1  0.43023694  0.76389957  0.90206415  1  0  0.101091  0  0.971201  0  0  0.11054  0  1.032377  0  0  0.112503  0  1.033777  0  0  0.105429  0.109027  0  1.031687  0
H  H17  1  0.09608315  0.73723828  0.59778097  1  0  0.101141  0  0.971213  0  0  0.110032  0  1.033242  0  0  0.11209  0  1.034508  0  0  0.105305  0.108533  0  1.032536  0
H  H18  1  0.65615003  0.95204628  0.15312181  1  0  0.096463  0  0.94559  0  0  0.104788  0  1.008929  0  0  0.107354  0  1.007057  0  0  0.121017  0.102853  0  1.010381  0
H  H19  1  0.76195642  0.54683703  0.34694084  1  0  0.096609  0  0.943808  0  0  0.105022  0  1.007051  0  0  0.107584  0  1.005213  0  0  0.120925  0.103117  0  1.00846  0
H  H20  1  0.34385784  0.04799636  0.84687120  1  0  0.096316  0  0.945761  0  0  0.104717  0  1.008989  0  0  0.107304  0  1.007119  0  0  0.120959  0.102775  0  1.010451  0
H  H21  1  0.23796128  0.45321651  0.65304518  1  0  0.09674  0  0.943676  0  0  0.10492  0  1.007196  0  0  0.107506  0  1.005301  0  0  0.120997  0.103004  0  1.008631  0
H  H22  1  0.87486587  0.99857666  0.43602735  1  0  0.098584  0  0.933417  0  0  0.10793  0  1.000405  0  0  0.110071  0  0.998202  0  0  0.113788  0.106404  0  1.002072  0
H  H23  1  0.30969073  0.50095657  0.06388567  1  0  0.098494  0  0.933546  0  0  0.10764  0  1.000732  0  0  0.109839  0  0.998431  0  0  0.113614  0.106056  0  1.002439  0
H  H24  1  0.12515157  0.00142102  0.56398151  1  0  0.098588  0  0.933529  0  0  0.107894  0  1.000509  0  0  0.110027  0  0.998286  0  0  0.113737  0.10636  0  1.002179  0
H  H25  1  0.69032455  0.49893995  0.93613414  1  0  0.098634  0  0.933596  0  0  0.107769  0  1.000789  0  0  0.10996  0  0.998475  0  0  0.113714  0.1062  0  1.002486  0
H  H26  1  0.86748087  0.78454854  0.44543560  1  0  0.088543  0  0.934901  0  0  0.099506  0  1.00045  0  0  0.10126  0  0.998794  0  0  0.108042  0.09828  0  1.001723  0
H  H27  1  0.09742800  0.71494960  0.05464432  1  0  0.088001  0  0.935481  0  0  0.098918  0  1.001181  0  0  0.100654  0  0.99954  0  0  0.107762  0.097673  0  1.00243  0
H  H28  1  0.13251932  0.21544836  0.55456579  1  0  0.088592  0  0.934926  0  0  0.099519  0  1.000455  0  0  0.101262  0  0.998786  0  0  0.108015  0.098289  0  1.001725  0
H  H29  1  0.90263450  0.28496326  0.94535826  1  0  0.088068  0  0.935419  0  0  0.098964  0  1.001129  0  0  0.1007  0  0.999489  0  0  0.107798  0.097714  0  1.002389  0
H  H30  1  0.14462851  0.53025434  0.43703101  1  0  0.095646  0  0.98707  0  0  0.105786  0  1.051119  0  0  0.107726  0  1.05203  0  0  0.097272  0.104387  0  1.050584  0
H  H31  1  0.11160535  0.96946446  0.06273827  1  0  0.095152  0  0.988481  0  0  0.105799  0  1.051956  0  0  0.107747  0  1.052667  0  0  0.097379  0.104393  0  1.051547  0
H  H32  1  0.85536117  0.46972383  0.56297705  1  0  0.095516  0  0.987191  0  0  0.105666  0  1.05125  0  0  0.10758  0  1.052187  0  0  0.097187  0.104264  0  1.050708  0
H  H33  1  0.88847579  0.03040588  0.93729100  1  0  0.095293  0  0.988463  0  0  0.105939  0  1.051929  0  0  0.107888  0  1.052667  0  0  0.097448  0.10457  0  1.051401  0
H  H34  1  0.57551669  0.75908457  0.53215451  1  0  0.103236  0  0.953739  0  0  0.114948  0  1.013645  0  0  0.118186  0  1.011668  0  0  0.102163  0.112583  0  1.015198  0
H  H35  1  0.86667463  0.74095197  0.96792143  1  0  0.102569  0  0.955266  0  0  0.114775  0  1.014593  0  0  0.118029  0  1.012601  0  0  0.102052  0.112421  0  1.016142  0
H  H36  1  0.42447901  0.24088054  0.46785251  1  0  0.103166  0  0.953769  0  0  0.114954  0  1.013592  0  0  0.118193  0  1.011615  0  0  0.102162  0.112575  0  1.015163  0
H  H37  1  0.13342063  0.25890558  0.03210938  1  0  0.102435  0  0.95569  0  0  0.114683  0  1.014966  0  0  0.117926  0  1.012994  0  0  0.102021  0.112342  0  1.01648  0
H  H38  1  0.52550483  0.73776043  0.21223578  1  0  0.423097  0  0.892572  0  0  0.387529  0  0.964928  0  0  0.39994  0  0.946653  0  0  0.283414  0.378792  0  0.977785  0
H  H39  1  0.47625056  0.76079951  0.28768367  1  0  0.423719  0  0.891804  0  0  0.388257  0  0.963945  0  0  0.400659  0  0.945683  0  0  0.283712  0.379517  0  0.976811  0
H  H40  1  0.47446555  0.26225949  0.78777531  1  0  0.423392  0  0.892159  0  0  0.387813  0  0.964568  0  0  0.400228  0  0.94629  0  0  0.283536  0.37908  0  0.977422  0
H  H41  1  0.52370571  0.23927857  0.71232636  1  0  0.423791  0  0.89164  0  0  0.388286  0  0.963871  0  0  0.400702  0  0.945586  0  0  0.283631  0.379547  0  0.976739  0
C  C42  1  0.05588177  0.09409571  0.21494639  1  0  0.123445  0  3.709629  0  0  0.092991  0  3.958313  0  0  0.099835  0  3.976878  0  0  0.047005  0.088636  0  3.945702  0
C  C43  1  0.36548649  0.40441818  0.28519560  1  0  0.12389  0  3.707096  0  0  0.093353  0  3.956257  0  0  0.100269  0  3.974779  0  0  0.047086  0.088962  0  3.943638  0
C  C44  1  0.94414965  0.90593945  0.78503701  1  0  0.123847  0  3.70943  0  0  0.093378  0  3.958182  0  0  0.100248  0  3.97674  0  0  0.046952  0.08902  0  3.945581  0
C  C45  1  0.63444986  0.59565470  0.71478953  1  0  0.123585  0  3.707034  0  0  0.09309  0  3.956144  0  0  0.100001  0  3.974674  0  0  0.046942  0.088705  0  3.943522  0
C  C46  1  0.01897987  0.25537457  0.18621989  1  0  -0.118941  0  3.710943  0  0  -0.128773  0  3.957553  0  0  -0.136457  0  3.980113  0  0  -0.082184  -0.123832  0  3.942389  0
C  C47  1  0.46064867  0.24314270  0.31393899  1  0  -0.120685  0  3.712455  0  0  -0.130365  0  3.959062  0  0  -0.138033  0  3.981662  0  0  -0.083008  -0.125453  0  3.94387  0
C  C48  1  0.98105996  0.74464626  0.81376258  1  0  -0.119248  0  3.711035  0  0  -0.129124  0  3.957662  0  0  -0.136809  0  3.980216  0  0  -0.082329  -0.124185  0  3.942503  0
C  C49  1  0.53928142  0.75692801  0.68603771  1  0  -0.120631  0  3.712675  0  0  -0.130183  0  3.959179  0  0  -0.137851  0  3.981773  0  0  -0.082859  -0.125267  0  3.943992  0
C  C50  1  0.84078618  0.31079494  0.14377558  1  0  0.000501  0  3.688805  0  0  -0.017115  0  3.932723  0  0  -0.013803  0  3.950803  0  0  -0.061814  -0.019001  0  3.920388  0
C  C51  1  0.29523521  0.18791563  0.35638286  1  0  0.000403  0  3.69102  0  0  -0.017183  0  3.934748  0  0  -0.01384  0  3.952815  0  0  -0.061988  -0.019076  0  3.922427  0
C  C52  1  0.15923627  0.68923913  0.85620980  1  0  0.001035  0  3.688721  0  0  -0.016638  0  3.932703  0  0  -0.013317  0  3.950751  0  0  -0.06159  -0.018523  0  3.92038  0
C  C53  1  0.70471912  0.81213974  0.64359576  1  0  -0.000126  0  3.691584  0  0  -0.017612  0  3.935318  0  0  -0.014256  0  3.953369  0  0  -0.062102  -0.019508  0  3.923007  0
C  C54  1  0.70803886  0.20120356  0.13124038  1  0  -0.121014  0  3.723776  0  0  -0.130307  0  3.969568  0  0  -0.138334  0  3.993227  0  0  -0.08197  -0.125131  0  3.953626  0
C  C55  1  0.04056113  0.29762616  0.36886940  1  0  -0.120708  0  3.723198  0  0  -0.129883  0  3.96917  0  0  -0.137856  0  3.992838  0  0  -0.082452  -0.124755  0  3.953232  0
C  C56  1  0.29198867  0.79883073  0.86874700  1  0  -0.121171  0  3.723755  0  0  -0.1305  0  3.969633  0  0  -0.138425  0  3.993353  0  0  -0.082113  -0.125354  0  3.953695  0
C  C57  1  0.95938558  0.70242132  0.63110811  1  0  -0.120723  0  3.723587  0  0  -0.12982  0  3.969491  0  0  -0.137796  0  3.993154  0  0  -0.082292  -0.12469  0  3.953553  0
C  C58  1  0.75561545  0.04147526  0.16182917  1  0  0.119896  0  3.680689  0  0  0.091423  0  3.923636  0  0  0.097754  0  3.942704  0  0  0.048625  0.087434  0  3.910604  0
C  C59  1  0.95934301  0.45728600  0.33824797  1  0  0.118237  0  3.677741  0  0  0.090321  0  3.920302  0  0  0.096617  0  3.939437  0  0  0.048532  0.08632  0  3.907289  0
C  C60  1  0.24438053  0.95856729  0.83816296  1  0  0.120274  0  3.680934  0  0  0.091812  0  3.923842  0  0  0.098118  0  3.942916  0  0  0.04879  0.087819  0  3.910831  0
C  C61  1  0.04059603  0.54276342  0.66173565  1  0  0.118535  0  3.677588  0  0  0.090635  0  3.920332  0  0  0.096938  0  3.939467  0  0  0.048467  0.086628  0  3.907321  0
C  C62  1  0.09622768  0.83150123  0.36574247  1  0  0.652353  0  3.910464  0  0  0.598172  0  4.223035  0  0  0.630721  0  4.216651  0  0  0.200914  0.576132  0  4.22657  0
C  C63  1  0.29442529  0.66788241  0.13418244  1  0  0.651738  0  3.91034  0  0  0.597564  0  4.223182  0  0  0.63009  0  4.216789  0  0  0.200503  0.575499  0  4.226713  0
C  C64  1  0.90380377  0.16849478  0.63426279  1  0  0.653455  0  3.909799  0  0  0.599102  0  4.222583  0  0  0.631633  0  4.216176  0  0  0.20133  0.577052  0  4.226132  0
C  C65  1  0.70556021  0.33203455  0.86583474  1  0  0.652126  0  3.91009  0  0  0.598139  0  4.222704  0  0  0.630667  0  4.2163  0  0  0.200861  0.576069  0  4.226259  0
C  C66  1  0.99486791  0.86276246  0.43121306  1  0  -0.068886  0  3.631255  0  0  -0.127553  0  3.899663  0  0  -0.123863  0  3.898955  0  0  -0.070049  -0.130299  0  3.900316  0
C  C67  1  0.28899623  0.63679272  0.06873095  1  0  -0.067053  0  3.632049  0  0  -0.12554  0  3.899646  0  0  -0.12181  0  3.898957  0  0  -0.069283  -0.128165  0  3.900106  0
C  C68  1  0.00514229  0.13722853  0.56879378  1  0  -0.069406  0  3.631453  0  0  -0.127772  0  3.89972  0  0  -0.123997  0  3.898904  0  0  -0.070052  -0.130497  0  3.900355  0
C  C69  1  0.71103626  0.36311379  0.93128526  1  0  -0.067492  0  3.63219  0  0  -0.125967  0  3.899868  0  0  -0.122115  0  3.899151  0  0  -0.069539  -0.128653  0  3.90035  0
C  C70  1  0.34136228  0.66586810  0.48268980  1  0  0.244297  0  3.831965  0  0  0.233779  0  4.09605  0  0  0.243094  0  4.111734  0  0  0.066943  0.227171  0  4.08551  0
C  C71  1  0.48978755  0.83399623  0.01724500  1  0  0.245811  0  3.830856  0  0  0.235603  0  4.094271  0  0  0.244949  0  4.109901  0  0  0.067293  0.228981  0  4.083775  0
C  C72  1  0.65864362  0.33411291  0.51732064  1  0  0.243922  0  3.831989  0  0  0.233686  0  4.095818  0  0  0.243001  0  4.111509  0  0  0.066984  0.227085  0  4.085267  0
C  C73  1  0.51029119  0.16587046  0.98278650  1  0  0.245176  0  3.831599  0  0  0.234833  0  4.095261  0  0  0.24427  0  4.110921  0  0  0.066784  0.228164  0  4.084761  0
C  C74  1  0.29888676  0.51936048  0.46463315  1  0  -0.172569  0  3.790988  0  0  -0.192772  0  4.043494  0  0  -0.196241  0  4.064763  0  0  -0.112305  -0.190353  0  4.029162  0
C  C75  1  0.28272647  0.98041439  0.03523681  1  0  -0.173254  0  3.793905  0  0  -0.194297  0  4.046673  0  0  -0.197648  0  4.06798  0  0  -0.112611  -0.191945  0  4.032312  0
C  C76  1  0.70110524  0.48062325  0.53537860  1  0  -0.172241  0  3.791074  0  0  -0.192512  0  4.043434  0  0  -0.195961  0  4.064717  0  0  -0.112216  -0.190087  0  4.029095  0
C  C77  1  0.71735946  0.01945338  0.96479266  1  0  -0.173142  0  3.794355  0  0  -0.194076  0  4.047026  0  0  -0.197447  0  4.068354  0  0  -0.112501  -0.191705  0  4.032671  0
C  C78  1  0.54324715  0.64475495  0.51797842  1  0  -0.176439  0  3.789236  0  0  -0.197134  0  4.047051  0  0  -0.199862  0  4.064869  0  0  -0.11086  -0.195212  0  4.035144  0
C  C79  1  0.70597975  0.85525396  0.98206730  1  0  -0.175996  0  3.790209  0  0  -0.197397  0  4.048104  0  0  -0.200143  0  4.065916  0  0  -0.111278  -0.195487  0  4.036191  0
C  C80  1  0.45674270  0.35522495  0.48203374  1  0  -0.176366  0  3.789208  0  0  -0.197181  0  4.046932  0  0  -0.19991  0  4.064761  0  0  -0.110876  -0.195249  0  4.035029  0
C  C81  1  0.29411976  0.14461319  0.01796860  1  0  -0.175721  0  3.790866  0  0  -0.197079  0  4.048781  0  0  -0.199814  0  4.066564  0  0  -0.111189  -0.195166  0  4.036866  0
N  N82  1  0.92541477  0.98927944  0.20334881  1  0  -0.341866  0  3.313797  0  0  -0.257035  0  3.574161  0  0  -0.276467  0  3.590766  0  0  -0.325643  -0.243895  0  3.562697  0
N  N83  1  0.11875115  0.50929660  0.29674374  1  0  -0.33843  0  3.308119  0  0  -0.254442  0  3.569154  0  0  -0.273887  0  3.585799  0  0  -0.324536  -0.241302  0  3.557688  0
N  N84  1  0.07460862  0.01075646  0.79664161  1  0  -0.341945  0  3.314167  0  0  -0.257227  0  3.574652  0  0  -0.27667  0  3.591281  0  0  -0.325485  -0.244088  0  3.563194  0
N  N85  1  0.88117646  0.49076743  0.70324345  1  0  -0.338835  0  3.307867  0  0  -0.254574  0  3.568614  0  0  -0.274017  0  3.585253  0  0  -0.324522  -0.241435  0  3.557152  0
O  O86  1  0.60032875  0.74789947  0.25003377  1  0  -0.879618  0  1.950712  0  0  -0.80883  0  2.194964  0  0  -0.831406  0  2.153462  0  0  -0.595611  -0.792855  0  2.223737  0
O  O87  1  0.39954546  0.25234460  0.74996627  1  0  -0.879889  0  1.950317  0  0  -0.809071  0  2.194474  0  0  -0.831663  0  2.152952  0  0  -0.595658  -0.793051  0  2.223149  0
O  O88  1  0.91867005  0.86956789  0.33034031  1  0  -0.655088  0  2.042259  0  0  -0.587862  0  2.312539  0  0  -0.616183  0  2.300106  0  0  -0.327992  -0.567892  0  2.320199  0
O  O89  1  0.12071053  0.62882619  0.16970679  1  0  -0.654504  0  2.04195  0  0  -0.587515  0  2.312206  0  0  -0.615933  0  2.300022  0  0  -0.327565  -0.567525  0  2.319818  0
O  O90  1  0.08136585  0.13048454  0.66965955  1  0  -0.655511  0  2.042368  0  0  -0.588183  0  2.312645  0  0  -0.61655  0  2.300311  0  0  -0.328166  -0.568213  0  2.320304  0
O  O91  1  0.87913785  0.37120748  0.83029981  1  0  -0.654561  0  2.041562  0  0  -0.587613  0  2.311701  0  0  -0.616038  0  2.299524  0  0  -0.327784  -0.56763  0  2.319323  0
O  O92  1  0.33781401  0.77262684  0.35207786  1  0  -0.613167  0  2.023688  0  0  -0.56039  0  2.258136  0  0  -0.584873  0  2.248699  0  0  -0.309982  -0.54333  0  2.264118  0
O  O93  1  0.46270854  0.72768432  0.14775094  1  0  -0.613098  0  2.022588  0  0  -0.560363  0  2.256977  0  0  -0.584946  0  2.247772  0  0  -0.310279  -0.543258  0  2.26287  0
O  O94  1  0.66221244  0.22733743  0.64793348  1  0  -0.613749  0  2.023272  0  0  -0.560913  0  2.257826  0  0  -0.58541  0  2.248398  0  0  -0.310235  -0.543862  0  2.263824  0
O  O95  1  0.53737315  0.27213868  0.85227147  1  0  -0.613327  0  2.022784  0  0  -0.560618  0  2.257047  0  0  -0.585147  0  2.247707  0  0  -0.310326  -0.543525  0  2.262953  0
O  O96  1  0.19348488  0.83386580  0.46975257  1  0  -0.270141  0  2.345143  0  0  -0.205664  0  2.585523  0  0  -0.221249  0  2.586002  0  0  -0.190443  -0.1945  0  2.584836  0
O  O97  1  0.49680163  0.66595914  0.03008738  1  0  -0.271158  0  2.346238  0  0  -0.206259  0  2.585848  0  0  -0.221915  0  2.586368  0  0  -0.190075  -0.195107  0  2.585112  0
O  O98  1  0.80651717  0.16610221  0.53025739  1  0  -0.269648  0  2.3449  0  0  -0.205466  0  2.585276  0  0  -0.221083  0  2.58574  0  0  -0.190289  -0.194309  0  2.584583  0
O  O99  1  0.50328291  0.33390982  0.96994110  1  0  -0.27071  0  2.345886  0  0  -0.205934  0  2.58569  0  0  -0.221867  0  2.586363  0  0  -0.189828  -0.19467  0  2.584909  0
