# generated using pymatgen
data_HgH8C6SNO4
_symmetry_space_group_name_H-M   'P 1'
_cell_length_a   7.57141783
_cell_length_b   10.38578727
_cell_length_c   11.99482154
_cell_angle_alpha   107.73990765
_cell_angle_beta   90.00005027
_cell_angle_gamma   90.00001533
_symmetry_Int_Tables_number   1
_chemical_formula_structural   HgH8C6SNO4
_chemical_formula_sum   'Hg4 H32 C24 S4 N4 O16'
_cell_volume   898.36407884
_cell_formula_units_Z   4
loop_
 _symmetry_equiv_pos_site_id
 _symmetry_equiv_pos_as_xyz
  1  'x, y, z'
loop_
 _atom_site_type_symbol
 _atom_site_label
 _atom_site_symmetry_multiplicity
 _atom_site_fract_x
 _atom_site_fract_y
 _atom_site_fract_z
 _atom_site_occupancy
 _atom_site_hle17_bader_spin_density
 _atom_site_hle17_ddec_charge
 _atom_site_hle17_ddec_spin_density
 _atom_site_hle17_ddec_sum_bond_order
 _atom_site_hle17_magmom
 _atom_site_hse06_10hf_bader_spin_density
 _atom_site_hse06_10hf_ddec_charge
 _atom_site_hse06_10hf_ddec_spin_density
 _atom_site_hse06_10hf_ddec_sum_bond_order
 _atom_site_hse06_10hf_magmom
 _atom_site_hse06_bader_spin_density
 _atom_site_hse06_ddec_charge
 _atom_site_hse06_ddec_spin_density
 _atom_site_hse06_ddec_sum_bond_order
 _atom_site_hse06_magmom
 _atom_site_pbe_bader_spin_density
 _atom_site_pbe_cm5_charge
 _atom_site_pbe_ddec_charge
 _atom_site_pbe_ddec_spin_density
 _atom_site_pbe_ddec_sum_bond_order
 _atom_site_pbe_magmom
Hg  Hg0  1  0.88122768  0.40554113  0.47489523  1  0  0.518878  0  1.636812  0  0  0.421591  0  2.037554  0  0  0.446026  0  2.016207  0  0  0.416804  0.403377  0  2.05297  0
Hg  Hg1  1  0.38122718  0.09445906  0.02510329  1  0  0.518875  0  1.636783  0  0  0.421586  0  2.037494  0  0  0.44602  0  2.016148  0  0  0.416796  0.403378  0  2.05291  0
Hg  Hg2  1  0.11876950  0.59445800  0.52510438  1  0  0.518866  0  1.63681  0  0  0.421569  0  2.037536  0  0  0.446004  0  2.016187  0  0  0.416782  0.403356  0  2.05295  0
Hg  Hg3  1  0.61877000  0.90554106  0.97489573  1  0  0.518876  0  1.63679  0  0  0.421568  0  2.03751  0  0  0.446003  0  2.016161  0  0  0.416797  0.403357  0  2.052928  0
H  H4  1  0.60042813  0.23530108  0.37839080  1  0  0.326581  0  0.888094  0  0  0.312101  0  0.945371  0  0  0.319036  0  0.940466  0  0  0.301433  0.306943  0  0.949231  0
H  H5  1  0.10042650  0.26469901  0.12160836  1  0  0.3266  0  0.888073  0  0  0.312104  0  0.945357  0  0  0.319037  0  0.940455  0  0  0.301434  0.306946  0  0.949219  0
H  H6  1  0.39956905  0.76469704  0.62160856  1  0  0.326611  0  0.888058  0  0  0.312119  0  0.945343  0  0  0.319054  0  0.940437  0  0  0.30141  0.30696  0  0.949201  0
H  H7  1  0.89957200  0.73530214  0.87839175  1  0  0.326605  0  0.888064  0  0  0.312102  0  0.945354  0  0  0.319037  0  0.940448  0  0  0.30142  0.306945  0  0.949212  0
H  H8  1  0.69299362  0.62626025  0.66530184  1  0  0.404959  0  0.903636  0  0  0.375572  0  0.966724  0  0  0.385066  0  0.952874  0  0  0.278309  0.369404  0  0.975702  0
H  H9  1  0.19299364  0.87374084  0.83469798  1  0  0.405011  0  0.903578  0  0  0.375622  0  0.966666  0  0  0.385113  0  0.952821  0  0  0.278323  0.369457  0  0.97564  0
H  H10  1  0.30700356  0.37374088  0.33469743  1  0  0.404981  0  0.903619  0  0  0.375597  0  0.966702  0  0  0.385089  0  0.952854  0  0  0.278321  0.369427  0  0.975683  0
H  H11  1  0.80700354  0.12625928  0.16530103  1  0  0.404977  0  0.903629  0  0  0.375584  0  0.966725  0  0  0.385077  0  0.952876  0  0  0.278298  0.369415  0  0.975706  0
H  H12  1  0.78791611  0.14853383  0.37271734  1  0  0.32187  0  0.8786  0  0  0.30769  0  0.936737  0  0  0.314975  0  0.931113  0  0  0.301113  0.302356  0  0.940918  0
H  H13  1  0.28791320  0.35146831  0.12727993  1  0  0.321854  0  0.878645  0  0  0.307682  0  0.936754  0  0  0.314967  0  0.931132  0  0  0.301116  0.302347  0  0.940938  0
H  H14  1  0.21208239  0.85146724  0.62727941  1  0  0.321861  0  0.878639  0  0  0.307695  0  0.93674  0  0  0.314982  0  0.931113  0  0  0.301105  0.302358  0  0.940926  0
H  H15  1  0.71208530  0.64853285  0.87272018  1  0  0.321894  0  0.878584  0  0  0.30771  0  0.936704  0  0  0.314995  0  0.931082  0  0  0.301113  0.302373  0  0.940892  0
H  H16  1  0.56466361  0.51353358  0.67214480  1  0  0.415157  0  0.890642  0  0  0.385435  0  0.953315  0  0  0.395131  0  0.939264  0  0  0.281002  0.378811  0  0.962743  0
H  H17  1  0.06466498  0.98646847  0.82785518  1  0  0.415133  0  0.89068  0  0  0.385407  0  0.95336  0  0  0.395102  0  0.93931  0  0  0.28099  0.37878  0  0.962793  0
H  H18  1  0.43533357  0.48646657  0.32785506  1  0  0.415134  0  0.890681  0  0  0.385406  0  0.953364  0  0  0.395102  0  0.939313  0  0  0.280981  0.378782  0  0.962791  0
H  H19  1  0.93533352  0.01353266  0.17214409  1  0  0.415137  0  0.890675  0  0  0.385411  0  0.953355  0  0  0.395108  0  0.939305  0  0  0.28098  0.378788  0  0.96278  0
H  H20  1  0.85061249  0.02983413  0.50919145  1  0  0.126188  0  0.948274  0  0  0.136547  0  1.007163  0  0  0.14007  0  1.005158  0  0  0.11115  0.13392  0  1.008897  0
H  H21  1  0.35060483  0.47016868  0.99080654  1  0  0.126199  0  0.948289  0  0  0.136592  0  1.00713  0  0  0.140114  0  1.005128  0  0  0.111185  0.133972  0  1.00886  0
H  H22  1  0.14939129  0.97016595  0.49080589  1  0  0.126199  0  0.948292  0  0  0.136578  0  1.007151  0  0  0.1401  0  1.005149  0  0  0.111172  0.133954  0  1.008884  0
H  H23  1  0.64939235  0.52983247  0.00919357  1  0  0.126197  0  0.948305  0  0  0.136591  0  1.007142  0  0  0.140113  0  1.005141  0  0  0.111179  0.133971  0  1.008872  0
H  H24  1  0.45449664  0.05280140  0.77389509  1  0  0.094734  0  0.99593  0  0  0.101167  0  1.070385  0  0  0.103946  0  1.06885  0  0  0.091712  0.099101  0  1.071574  0
H  H25  1  0.95448758  0.44719948  0.72610415  1  0  0.094716  0  0.995939  0  0  0.101163  0  1.070392  0  0  0.103932  0  1.068863  0  0  0.091697  0.099102  0  1.071569  0
H  H26  1  0.54550979  0.94719571  0.22610402  1  0  0.094719  0  0.995981  0  0  0.101176  0  1.070419  0  0  0.103939  0  1.068901  0  0  0.091706  0.099115  0  1.071594  0
H  H27  1  0.04550828  0.55279967  0.27389629  1  0  0.094734  0  0.995992  0  0  0.101215  0  1.070403  0  0  0.103967  0  1.06889  0  0  0.091728  0.099153  0  1.071581  0
H  H28  1  0.30007245  0.23335810  0.71549898  1  0  0.093578  0  0.967566  0  0  0.104819  0  1.024845  0  0  0.106415  0  1.026335  0  0  0.10001  0.103498  0  1.024144  0
H  H29  1  0.80007133  0.26664172  0.78450074  1  0  0.093551  0  0.967723  0  0  0.104792  0  1.024985  0  0  0.106388  0  1.026477  0  0  0.10001  0.103466  0  1.024286  0
H  H30  1  0.69992869  0.76664110  0.28450314  1  0  0.093583  0  0.967633  0  0  0.10484  0  1.024888  0  0  0.106437  0  1.026378  0  0  0.10002  0.103514  0  1.024187  0
H  H31  1  0.19992717  0.73335644  0.21550030  1  0  0.093583  0  0.96773  0  0  0.104805  0  1.025014  0  0  0.106401  0  1.026505  0  0  0.100001  0.103483  0  1.024307  0
H  H32  1  0.41683385  0.31058344  0.55404970  1  0  0.117158  0  0.94743  0  0  0.12861  0  1.005567  0  0  0.131955  0  1.003364  0  0  0.107667  0.126188  0  1.007039  0
H  H33  1  0.91683290  0.18941435  0.94594708  1  0  0.117173  0  0.947429  0  0  0.128618  0  1.005569  0  0  0.131963  0  1.003364  0  0  0.107665  0.126201  0  1.007034  0
H  H34  1  0.58316729  0.68941266  0.44594916  1  0  0.117128  0  0.947462  0  0  0.128571  0  1.005606  0  0  0.131917  0  1.003401  0  0  0.107641  0.126152  0  1.007072  0
H  H35  1  0.08316824  0.81058478  0.05405252  1  0  0.117176  0  0.947405  0  0  0.128625  0  1.005542  0  0  0.131971  0  1.003337  0  0  0.107656  0.126207  0  1.007005  0
C  C36  1  0.64178110  0.17624234  0.52256744  1  0  0.266175  0  3.754238  0  0  0.26352  0  4.000919  0  0  0.269182  0  4.02482  0  0  0.081955  0.259498  0  3.984167  0
C  C37  1  0.14176940  0.32375939  0.97743099  1  0  0.266112  0  3.754224  0  0  0.26348  0  4.000832  0  0  0.269142  0  4.024731  0  0  0.081961  0.259461  0  3.984085  0
C  C38  1  0.35822664  0.82375677  0.47743132  1  0  0.266121  0  3.75414  0  0  0.263535  0  4.000703  0  0  0.269197  0  4.024601  0  0  0.081955  0.259519  0  3.98394  0
C  C39  1  0.85822910  0.67624075  0.02256887  1  0  0.266135  0  3.754221  0  0  0.263502  0  4.000818  0  0  0.269164  0  4.024718  0  0  0.08197  0.25948  0  3.984067  0
C  C40  1  0.73173123  0.07601910  0.55545580  1  0  -0.162705  0  3.705726  0  0  -0.190102  0  3.948284  0  0  -0.193442  0  3.969836  0  0  -0.087189  -0.188144  0  3.934507  0
C  C41  1  0.23172217  0.42398680  0.94454704  1  0  -0.162733  0  3.705717  0  0  -0.190193  0  3.948246  0  0  -0.193534  0  3.969805  0  0  -0.087269  -0.18824  0  3.934481  0
C  C42  1  0.26827387  0.92398309  0.44454539  1  0  -0.162682  0  3.705685  0  0  -0.190132  0  3.94823  0  0  -0.193471  0  3.969783  0  0  -0.087247  -0.188178  0  3.934455  0
C  C43  1  0.76827633  0.57601438  0.05545390  1  0  -0.162717  0  3.705705  0  0  -0.190161  0  3.948247  0  0  -0.193501  0  3.969805  0  0  -0.087256  -0.188209  0  3.934482  0
C  C44  1  0.66370439  0.03369377  0.64646286  1  0  -0.111211  0  3.788971  0  0  -0.082853  0  4.033447  0  0  -0.089071  0  4.057144  0  0  -0.020778  -0.078981  0  4.01752  0
C  C45  1  0.16369126  0.46631003  0.85353776  1  0  -0.111175  0  3.788889  0  0  -0.082756  0  4.033274  0  0  -0.088978  0  4.056981  0  0  -0.0207  -0.078889  0  4.017366  0
C  C46  1  0.33630467  0.96630841  0.35353833  1  0  -0.111162  0  3.788839  0  0  -0.082789  0  4.033312  0  0  -0.08901  0  4.057019  0  0  -0.020705  -0.078924  0  4.017399  0
C  C47  1  0.83630591  0.53369011  0.14646210  1  0  -0.111148  0  3.78881  0  0  -0.082779  0  4.033289  0  0  -0.089001  0  4.056996  0  0  -0.020715  -0.078916  0  4.017387  0
C  C48  1  0.50945196  0.08978904  0.70552588  1  0  -0.088631  0  3.759632  0  0  -0.117422  0  4.011468  0  0  -0.118799  0  4.032667  0  0  -0.096559  -0.115944  0  3.996695  0
C  C49  1  0.00944533  0.41021673  0.79447597  1  0  -0.088679  0  3.759573  0  0  -0.117508  0  4.011401  0  0  -0.118873  0  4.032607  0  0  -0.096587  -0.116034  0  3.996634  0
C  C50  1  0.49055446  0.91021316  0.29447615  1  0  -0.088627  0  3.759594  0  0  -0.117457  0  4.011452  0  0  -0.11882  0  4.032659  0  0  -0.096578  -0.115982  0  3.996691  0
C  C51  1  0.99055316  0.58978343  0.20552472  1  0  -0.088676  0  3.7596  0  0  -0.117525  0  4.011437  0  0  -0.118875  0  4.032652  0  0  -0.096608  -0.116046  0  3.99667  0
C  C52  1  0.42225957  0.19021974  0.67195168  1  0  -0.039606  0  3.743903  0  0  -0.048556  0  3.990968  0  0  -0.049851  0  4.011903  0  0  -0.08634  -0.047576  0  3.976305  0
C  C53  1  0.92225059  0.30978114  0.82804837  1  0  -0.039485  0  3.743871  0  0  -0.048441  0  3.990932  0  0  -0.049735  0  4.011862  0  0  -0.086323  -0.047459  0  3.976276  0
C  C54  1  0.57774685  0.80977947  0.32805128  1  0  -0.03963  0  3.744032  0  0  -0.048605  0  3.991108  0  0  -0.049898  0  4.012037  0  0  -0.08638  -0.047626  0  3.976447  0
C  C55  1  0.07774790  0.69021801  0.17195207  1  0  -0.039571  0  3.743959  0  0  -0.04851  0  3.991024  0  0  -0.049805  0  4.011952  0  0  -0.086337  -0.047529  0  3.976352  0
C  C56  1  0.48777037  0.23391578  0.58100003  1  0  -0.142417  0  3.69495  0  0  -0.167354  0  3.948832  0  0  -0.169925  0  3.967686  0  0  -0.090564  -0.164709  0  3.934438  0
C  C57  1  0.98776546  0.26608612  0.91899947  1  0  -0.142405  0  3.695122  0  0  -0.167349  0  3.948975  0  0  -0.169919  0  3.96783  0  0  -0.090522  -0.164707  0  3.934577  0
C  C58  1  0.51223474  0.76608439  0.41900066  1  0  -0.14229  0  3.695188  0  0  -0.167238  0  3.949014  0  0  -0.169807  0  3.967867  0  0  -0.090461  -0.164596  0  3.93461  0
C  C59  1  0.01223436  0.73391303  0.08100097  1  0  -0.142376  0  3.695109  0  0  -0.167322  0  3.948962  0  0  -0.169893  0  3.967818  0  0  -0.090503  -0.164673  0  3.934555  0
S  S60  1  0.77451475  0.90468490  0.68848625  1  0  1.305412  0  5.61512  0  0  1.205087  0  6.130926  0  0  1.25277  0  6.107587  0  0  0.510066  1.172755  0  6.145133  0
S  S61  1  0.27451330  0.59531932  0.81151689  1  0  1.305543  0  5.614793  0  0  1.205202  0  6.130582  0  0  1.252875  0  6.107246  0  0  0.510144  1.172872  0  6.144789  0
S  S62  1  0.22548639  0.09531625  0.31151386  1  0  1.305538  0  5.614876  0  0  1.2052  0  6.130681  0  0  1.252879  0  6.107343  0  0  0.510131  1.172863  0  6.1449  0
S  S63  1  0.72548387  0.40468083  0.18848296  1  0  1.305424  0  5.614854  0  0  1.205088  0  6.130661  0  0  1.25276  0  6.107328  0  0  0.510082  1.172746  0  6.144887  0
N  N64  1  0.70574000  0.21918032  0.42710896  1  0  -0.565125  0  3.121755  0  0  -0.492231  0  3.34369  0  0  -0.513531  0  3.344478  0  0  -0.57013  -0.477422  0  3.343278  0
N  N65  1  0.20573832  0.28082083  0.07289053  1  0  -0.565183  0  3.121567  0  0  -0.492252  0  3.343408  0  0  -0.513552  0  3.344198  0  0  -0.570174  -0.477439  0  3.342996  0
N  N66  1  0.29425717  0.78081879  0.57288981  1  0  -0.565278  0  3.121684  0  0  -0.492372  0  3.343523  0  0  -0.513671  0  3.344309  0  0  -0.57016  -0.477564  0  3.343112  0
N  N67  1  0.79426018  0.71918034  0.92711042  1  0  -0.565276  0  3.12162  0  0  -0.492314  0  3.343444  0  0  -0.513614  0  3.344232  0  0  -0.570161  -0.477502  0  3.343035  0
O  O68  1  0.83309040  0.96875312  0.81099215  1  0  -0.692054  0  2.020743  0  0  -0.624756  0  2.271158  0  0  -0.648023  0  2.256916  0  0  -0.34289  -0.608198  0  2.280083  0
O  O69  1  0.33308612  0.53124702  0.68900751  1  0  -0.692145  0  2.020571  0  0  -0.624839  0  2.270961  0  0  -0.648112  0  2.25673  0  0  -0.342962  -0.60828  0  2.279885  0
O  O70  1  0.16691074  0.03124502  0.18900804  1  0  -0.692089  0  2.020671  0  0  -0.624795  0  2.27108  0  0  -0.648067  0  2.256845  0  0  -0.342893  -0.608236  0  2.280005  0
O  O71  1  0.66691105  0.46875413  0.31099259  1  0  -0.692055  0  2.020663  0  0  -0.624748  0  2.271071  0  0  -0.648022  0  2.256841  0  0  -0.342882  -0.608182  0  2.279994  0
O  O72  1  0.64076038  0.79908404  0.68422802  1  0  -0.694928  0  2.000779  0  0  -0.632106  0  2.246028  0  0  -0.65377  0  2.231134  0  0  -0.341123  -0.617562  0  2.255785  0
O  O73  1  0.14075899  0.70092311  0.81577410  1  0  -0.694989  0  2.00068  0  0  -0.632147  0  2.245922  0  0  -0.653804  0  2.231041  0  0  -0.341095  -0.617605  0  2.255686  0
O  O74  1  0.35923944  0.20091909  0.31577091  1  0  -0.695004  0  2.000715  0  0  -0.632208  0  2.246012  0  0  -0.653866  0  2.231124  0  0  -0.341185  -0.61767  0  2.255784  0
O  O75  1  0.85923951  0.29907705  0.18422659  1  0  -0.694972  0  2.000638  0  0  -0.632119  0  2.245862  0  0  -0.653774  0  2.230983  0  0  -0.341124  -0.617577  0  2.255632  0
O  O76  1  0.92099716  0.85810149  0.60669262  1  0  -0.667238  0  1.972837  0  0  -0.617922  0  2.231489  0  0  -0.638455  0  2.216379  0  0  -0.345858  -0.603514  0  2.241283  0
O  O77  1  0.42099452  0.64189770  0.89330770  1  0  -0.667236  0  1.972919  0  0  -0.617938  0  2.231591  0  0  -0.638462  0  2.216469  0  0  -0.34589  -0.603531  0  2.241391  0
O  O78  1  0.07900398  0.14189768  0.39330867  1  0  -0.667277  0  1.972811  0  0  -0.617917  0  2.231425  0  0  -0.638443  0  2.216302  0  0  -0.34586  -0.603506  0  2.241222  0
O  O79  1  0.57900398  0.35810244  0.10669216  1  0  -0.667235  0  1.972904  0  0  -0.617928  0  2.231577  0  0  -0.63845  0  2.216455  0  0  -0.345872  -0.603516  0  2.241379  0
O  O80  1  0.69225134  0.53139512  0.66630735  1  0  -0.826725  0  1.84851  0  0  -0.768804  0  2.019904  0  0  -0.789672  0  1.992658  0  0  -0.599782  -0.753768  0  2.03719  0
O  O81  1  0.19225139  0.96860595  0.83369163  1  0  -0.826746  0  1.848448  0  0  -0.768824  0  2.019858  0  0  -0.789691  0  1.992614  0  0  -0.59979  -0.753796  0  2.037166  0
O  O82  1  0.30774716  0.46860500  0.33369167  1  0  -0.826725  0  1.848486  0  0  -0.768802  0  2.019889  0  0  -0.789669  0  1.992645  0  0  -0.599777  -0.753766  0  2.037179  0
O  O83  1  0.80774711  0.03139518  0.16630763  1  0  -0.826727  0  1.848488  0  0  -0.768796  0  2.019888  0  0  -0.789666  0  1.992645  0  0  -0.599759  -0.753761  0  2.037174  0
