# generated using pymatgen
data_ZnH22C16N3O8
_symmetry_space_group_name_H-M   'P 1'
_cell_length_a   6.79897965
_cell_length_b   9.74062797
_cell_length_c   15.07747107
_cell_angle_alpha   96.29850174
_cell_angle_beta   93.61068135
_cell_angle_gamma   105.15270647
_symmetry_Int_Tables_number   1
_chemical_formula_structural   ZnH22C16N3O8
_chemical_formula_sum   'Zn2 H44 C32 N6 O16'
_cell_volume   953.61025495
_cell_formula_units_Z   2
loop_
 _symmetry_equiv_pos_site_id
 _symmetry_equiv_pos_as_xyz
  1  'x, y, z'
loop_
 _atom_site_type_symbol
 _atom_site_label
 _atom_site_symmetry_multiplicity
 _atom_site_fract_x
 _atom_site_fract_y
 _atom_site_fract_z
 _atom_site_occupancy
 _atom_site_pbe_bader_spin_density
 _atom_site_pbe_cm5_charge
 _atom_site_pbe_ddec_charge
 _atom_site_pbe_ddec_spin_density
 _atom_site_pbe_ddec_sum_bond_order
 _atom_site_pbe_magmom
Zn  Zn0  1  0.87151040  0.29729860  0.12670916  1  0  0.67927  0.881132  0  2.281428  0
Zn  Zn1  1  0.12849151  0.70268596  0.87329432  1  0  0.67921  0.881088  0  2.281439  0
H  H2  1  0.64413095  0.20860232  0.97808697  1  0  0.325734  0.408942  0  0.866938  0
H  H3  1  0.35587130  0.79139492  0.02191067  1  0  0.325784  0.408994  0  0.86688  0
H  H4  1  0.66800095  0.38088631  0.00908785  1  0  0.287791  0.379352  0  0.967471  0
H  H5  1  0.33200554  0.61911005  0.99091647  1  0  0.287774  0.379371  0  0.967449  0
H  H6  1  0.23112130  0.36936446  0.08234178  1  0  0.290668  0.384712  0  0.952456  0
H  H7  1  0.76887893  0.63062748  0.91765747  1  0  0.290666  0.384734  0  0.952409  0
H  H8  1  0.18709738  0.22653499  0.13618280  1  0  0.282705  0.366734  0  0.990046  0
H  H9  1  0.81291125  0.77345584  0.86381592  1  0  0.282667  0.366674  0  0.990062  0
H  H10  1  0.71916249  0.81188940  0.03465240  1  0  0.105431  0.121783  0  1.032525  0
H  H11  1  0.28084671  0.18809509  0.96534927  1  0  0.105437  0.121884  0  1.032525  0
H  H12  1  0.09827009  0.79179922  0.15088200  1  0  0.105564  0.120768  0  1.025472  0
H  H13  1  0.90174551  0.20818642  0.84912254  1  0  0.105572  0.120755  0  1.025728  0
H  H14  1  0.46915453  0.15828277  0.19015542  1  0  0.125862  0.107301  0  1.005134  0
H  H15  1  0.53084756  0.84171775  0.80984440  1  0  0.125847  0.107308  0  1.005099  0
H  H16  1  0.31729280  0.13779463  0.33516118  1  0  0.11795  0.131637  0  0.999978  0
H  H17  1  0.68269225  0.86220790  0.66483306  1  0  0.118003  0.131643  0  0.999946  0
H  H18  1  0.90744019  0.38662224  0.46659855  1  0  0.11405  0.122004  0  1.039652  0
H  H19  1  0.09256423  0.61336536  0.53339921  1  0  0.114003  0.121897  0  1.039715  0
H  H20  1  0.03647278  0.39693773  0.31670439  1  0  0.12237  0.100146  0  1.020427  0
H  H21  1  0.96351872  0.60304676  0.68329619  1  0  0.122349  0.100151  0  1.02027  0
H  H22  1  0.07014823  0.98361462  0.61584884  1  0  0.093905  0.137111  0  1.020246  0
H  H23  1  0.92984649  0.01638931  0.38415699  1  0  0.093889  0.137097  0  1.020199  0
H  H24  1  0.15899624  0.09151987  0.72074380  1  0  0.094028  0.141924  0  0.998595  0
H  H25  1  0.84099920  0.90848953  0.27926569  1  0  0.094058  0.141974  0  0.998612  0
H  H26  1  0.31788240  0.99469525  0.66769581  1  0  0.08712  0.121248  0  1.063119  0
H  H27  1  0.68212786  0.00531834  0.33231164  1  0  0.087111  0.121154  0  1.063229  0
H  H28  1  0.18361830  0.34791425  0.54767001  1  0  0.088717  0.121073  0  1.047143  0
H  H29  1  0.81636805  0.65208740  0.45233084  1  0  0.088731  0.121071  0  1.046959  0
H  H30  1  0.06032425  0.29213520  0.64350667  1  0  0.09741  0.147578  0  0.997461  0
H  H31  1  0.93967056  0.70787294  0.35649676  1  0  0.097474  0.147642  0  0.997417  0
H  H32  1  0.99856797  0.17673035  0.54009434  1  0  0.094045  0.142487  0  1.033143  0
H  H33  1  0.00142125  0.82326711  0.45990964  1  0  0.094051  0.142486  0  1.033271  0
H  H34  1  0.66785074  0.13683895  0.65670890  1  0  0.092566  0.132662  0  1.042996  0
H  H35  1  0.33214053  0.86317138  0.34329591  1  0  0.092541  0.132597  0  1.042968  0
H  H36  1  0.57119701  0.17946577  0.76042782  1  0  0.095929  0.142945  0  0.984263  0
H  H37  1  0.42880246  0.82054670  0.23957731  1  0  0.095896  0.142923  0  0.984294  0
H  H38  1  0.78060129  0.30584064  0.72491734  1  0  0.095149  0.139761  0  1.015759  0
H  H39  1  0.21940452  0.69417705  0.27508362  1  0  0.09513  0.139743  0  1.015763  0
H  H40  1  0.59760955  0.48886268  0.74881580  1  0  0.094303  0.149797  0  1.019392  0
H  H41  1  0.40240315  0.51115801  0.25117887  1  0  0.094294  0.149764  0  1.01937  0
H  H42  1  0.36518014  0.37113133  0.77213926  1  0  0.092632  0.139658  0  1.001021  0
H  H43  1  0.63481850  0.62889408  0.22786864  1  0  0.092612  0.139658  0  1.001091  0
H  H44  1  0.36458094  0.47710542  0.68377322  1  0  0.087227  0.121827  0  1.054131  0
H  H45  1  0.63542119  0.52291094  0.31621895  1  0  0.087221  0.121758  0  1.054128  0
C  C46  1  0.94392967  0.00587550  0.10451691  1  0  0.198806  0.61451  0  4.211278  0
C  C47  1  0.05607788  0.99411226  0.89548625  1  0  0.198827  0.614801  0  4.211084  0
C  C48  1  0.86329932  0.84804597  0.07748148  1  0  -0.085183  -0.17656  0  3.917613  0
C  C49  1  0.13673070  0.15193113  0.92252486  1  0  -0.085171  -0.176851  0  3.917634  0
C  C50  1  0.95787101  0.75382080  0.10558354  1  0  -0.092429  -0.216137  0  3.962953  0
C  C51  1  0.04214335  0.24616575  0.89441571  1  0  -0.092489  -0.216046  0  3.963078  0
C  C52  1  0.87362889  0.59589410  0.08313392  1  0  0.206752  0.607559  0  4.203721  0
C  C53  1  0.12638602  0.40409365  0.91686940  1  0  0.206812  0.60774  0  4.203865  0
C  C54  1  0.56076854  0.20798407  0.25295508  1  0  0.058372  0.104268  0  3.903961  0
C  C55  1  0.43923640  0.79202050  0.74703710  1  0  0.058421  0.104181  0  3.903889  0
C  C56  1  0.47664469  0.19653646  0.33426955  1  0  -0.067752  -0.147404  0  3.902184  0
C  C57  1  0.52333870  0.80346590  0.66571933  1  0  -0.067929  -0.147474  0  3.902276  0
C  C58  1  0.60131086  0.26039987  0.41382998  1  0  0.02118  0.085283  0  4.015529  0
C  C59  1  0.39869530  0.73959694  0.58615379  1  0  0.021329  0.085473  0  4.015831  0
C  C60  1  0.80568411  0.33448687  0.40727678  1  0  -0.070879  -0.150809  0  3.917815  0
C  C61  1  0.19432153  0.66550806  0.59271549  1  0  -0.070866  -0.150675  0  3.917653  0
C  C62  1  0.87807394  0.34055856  0.32345390  1  0  0.052157  0.097143  0  3.91531  0
C  C63  1  0.12192418  0.65943212  0.67653926  1  0  0.052167  0.097051  0  3.915161  0
C  C64  1  0.52204778  0.25012376  0.50074889  1  0  0.219756  0.078253  0  3.940129  0
C  C65  1  0.47793432  0.74988217  0.49925146  1  0  0.219551  0.077957  0  3.939767  0
C  C66  1  0.29082561  0.18352693  0.60824837  1  0  0.084887  0.196312  0  3.749151  0
C  C67  1  0.70915979  0.81647660  0.39174395  1  0  0.084865  0.196245  0  3.749312  0
C  C68  1  0.48834187  0.29401360  0.65544081  1  0  0.084762  0.194907  0  3.75905  0
C  C69  1  0.51167398  0.70600385  0.34455307  1  0  0.084793  0.194789  0  3.759226  0
C  C70  1  0.20586348  0.05486925  0.65596777  1  0  -0.24395  -0.428602  0  3.885455  0
C  C71  1  0.79413127  0.94514638  0.34403546  1  0  -0.243939  -0.428492  0  3.885336  0
C  C72  1  0.12296496  0.25524851  0.58291036  1  0  -0.245604  -0.450095  0  3.862763  0
C  C73  1  0.87701733  0.74476172  0.41709026  1  0  -0.245714  -0.450151  0  3.862674  0
C  C74  1  0.63691002  0.22374326  0.70160822  1  0  -0.241039  -0.447986  0  3.875096  0
C  C75  1  0.36309453  0.77626708  0.29839757  1  0  -0.240977  -0.447861  0  3.875104  0
C  C76  1  0.45210702  0.41575488  0.71818217  1  0  -0.245856  -0.43307  0  3.886523  0
C  C77  1  0.54789225  0.58425742  0.28181765  1  0  -0.245799  -0.432857  0  3.886576  0
N  N78  1  0.75766886  0.27855745  0.24765200  1  0  -0.329686  -0.234756  0  3.567825  0
N  N79  1  0.24233224  0.72143325  0.75234189  1  0  -0.329714  -0.234747  0  3.567543  0
N  N80  1  0.36869129  0.13942304  0.52051986  1  0  -0.101263  0.188961  0  3.805693  0
N  N81  1  0.63130867  0.86061391  0.47948015  1  0  -0.101304  0.189095  0  3.805535  0
N  N82  1  0.58603561  0.34932757  0.57408815  1  0  -0.106258  0.190625  0  3.8162  0
N  N83  1  0.41395298  0.65065768  0.42590180  1  0  -0.105944  0.190865  0  3.816117  0
O  O84  1  0.81526902  0.07791011  0.08834718  1  0  -0.335206  -0.58228  0  2.268964  0
O  O85  1  0.18473142  0.92207446  0.91165627  1  0  -0.335164  -0.582319  0  2.268991  0
O  O86  1  0.12659450  0.05732684  0.13977389  1  0  -0.324712  -0.559236  0  2.145642  0
O  O87  1  0.87341509  0.94265871  0.86022718  1  0  -0.324733  -0.559329  0  2.145554  0
O  O88  1  0.93064286  0.52108570  0.13880860  1  0  -0.317929  -0.548379  0  2.270296  0
O  O89  1  0.06935679  0.47889676  0.86119604  1  0  -0.317939  -0.548502  0  2.270643  0
O  O90  1  0.75074959  0.54543374  0.01222653  1  0  -0.305761  -0.541273  0  2.213315  0
O  O91  1  0.24926186  0.45455626  0.98778017  1  0  -0.305759  -0.541343  0  2.213193  0
O  O92  1  0.27852829  0.02441721  0.46853408  1  0  -0.169218  -0.360196  0  1.981184  0
O  O93  1  0.72141768  0.97558665  0.53146663  1  0  -0.169004  -0.360009  0  1.981867  0
O  O94  1  0.71983833  0.47064114  0.57873144  1  0  -0.182349  -0.370831  0  1.939033  0
O  O95  1  0.28017039  0.52936143  0.42126601  1  0  -0.182325  -0.370696  0  1.939452  0
O  O96  1  0.63660378  0.27934907  0.02770288  1  0  -0.558453  -0.728676  0  2.127718  0
O  O97  1  0.36340092  0.72064290  0.97229781  1  0  -0.558465  -0.728684  0  2.127694  0
O  O98  1  0.18201633  0.33026667  0.13799801  1  0  -0.573734  -0.744361  0  2.165831  0
O  O99  1  0.81799041  0.66972309  0.86200060  1  0  -0.573681  -0.744273  0  2.165774  0
