# generated using pymatgen
data_CdH14C18N2O7
_symmetry_space_group_name_H-M   'P 1'
_cell_length_a   8.94012796
_cell_length_b   11.03229430
_cell_length_c   11.03226871
_cell_angle_alpha   99.36243320
_cell_angle_beta   113.56892527
_cell_angle_gamma   113.56898483
_symmetry_Int_Tables_number   1
_chemical_formula_structural   CdH14C18N2O7
_chemical_formula_sum   'Cd2 H28 C36 N4 O14'
_cell_volume   844.07960892
_cell_formula_units_Z   2
loop_
 _symmetry_equiv_pos_site_id
 _symmetry_equiv_pos_as_xyz
  1  'x, y, z'
loop_
 _atom_site_type_symbol
 _atom_site_label
 _atom_site_symmetry_multiplicity
 _atom_site_fract_x
 _atom_site_fract_y
 _atom_site_fract_z
 _atom_site_occupancy
 _atom_site_hle17_bader_spin_density
 _atom_site_hle17_ddec_charge
 _atom_site_hle17_ddec_spin_density
 _atom_site_hle17_ddec_sum_bond_order
 _atom_site_hle17_magmom
 _atom_site_hse06_10hf_bader_spin_density
 _atom_site_hse06_10hf_ddec_charge
 _atom_site_hse06_10hf_ddec_spin_density
 _atom_site_hse06_10hf_ddec_sum_bond_order
 _atom_site_hse06_10hf_magmom
 _atom_site_hse06_bader_spin_density
 _atom_site_hse06_ddec_charge
 _atom_site_hse06_ddec_spin_density
 _atom_site_hse06_ddec_sum_bond_order
 _atom_site_hse06_magmom
 _atom_site_pbe_bader_spin_density
 _atom_site_pbe_cm5_charge
 _atom_site_pbe_ddec_charge
 _atom_site_pbe_ddec_spin_density
 _atom_site_pbe_ddec_sum_bond_order
 _atom_site_pbe_magmom
Cd  Cd0  1  0.75000050  0.88007150  0.11992818  1  0  1.237037  0  1.584744  0  0  1.066027  0  2.031124  0  0  1.124269  0  1.97013  0  0  0.767573  1.023589  0  2.073519  0
Cd  Cd1  1  0.24999864  0.11992817  0.88007113  1  0  1.237009  0  1.584766  0  0  1.066002  0  2.03115  0  0  1.124242  0  1.970162  0  0  0.76757  1.023563  0  2.073547  0
H  H2  1  0.72457963  0.43966449  0.03466333  1  0  0.108919  0  0.993466  0  0  0.112437  0  1.06525  0  0  0.117469  0  1.061318  0  0  0.100056  0.108923  0  1.06787  0
H  H3  1  0.77542123  0.96533751  0.56033710  1  0  0.108926  0  0.993477  0  0  0.112462  0  1.065245  0  0  0.117475  0  1.061334  0  0  0.10005  0.108942  0  1.067868  0
H  H4  1  0.27542147  0.56033624  0.96533950  1  0  0.108917  0  0.9934  0  0  0.112414  0  1.065222  0  0  0.117442  0  1.061295  0  0  0.100041  0.108896  0  1.067846  0
H  H5  1  0.22458109  0.03466325  0.43966432  1  0  0.108954  0  0.993454  0  0  0.112479  0  1.065228  0  0  0.117501  0  1.061308  0  0  0.100069  0.108963  0  1.06785  0
H  H6  1  0.21023930  0.74870406  0.03439272  1  0  0.096368  0  0.977886  0  0  0.106239  0  1.040775  0  0  0.109318  0  1.039476  0  0  0.103977  0.10372  0  1.042254  0
H  H7  1  0.28976042  0.96560739  0.25129445  1  0  0.096372  0  0.977874  0  0  0.106237  0  1.040768  0  0  0.109319  0  1.039469  0  0  0.103968  0.103719  0  1.042248  0
H  H8  1  0.78976108  0.25129560  0.96560970  1  0  0.096385  0  0.977915  0  0  0.106238  0  1.040819  0  0  0.109313  0  1.039523  0  0  0.103975  0.103718  0  1.0423  0
H  H9  1  0.71023873  0.03439227  0.74870577  1  0  0.09639  0  0.977892  0  0  0.106258  0  1.040776  0  0  0.109338  0  1.039479  0  0  0.103973  0.103739  0  1.042257  0
H  H10  1  0.46765244  0.46498835  0.84997546  1  0  0.135973  0  0.919131  0  0  0.142603  0  0.981711  0  0  0.147018  0  0.977108  0  0  0.138006  0.139565  0  0.984625  0
H  H11  1  0.03234672  0.15002383  0.53501176  1  0  0.135983  0  0.919156  0  0  0.142615  0  0.981726  0  0  0.14703  0  0.977123  0  0  0.138005  0.139577  0  0.98464  0
H  H12  1  0.53234720  0.53501027  0.15002201  1  0  0.136  0  0.919184  0  0  0.142628  0  0.981759  0  0  0.147042  0  0.977157  0  0  0.138025  0.13959  0  0.984672  0
H  H13  1  0.96765437  0.84997692  0.46498926  1  0  0.136008  0  0.91913  0  0  0.142635  0  0.981705  0  0  0.147049  0  0.977103  0  0  0.138012  0.139597  0  0.984619  0
H  H14  1  0.48434875  0.35846930  0.64428223  1  0  0.12334  0  0.948438  0  0  0.132363  0  1.006646  0  0  0.136261  0  1.004813  0  0  0.114418  0.12963  0  1.008008  0
H  H15  1  0.01565070  0.35571671  0.64153091  1  0  0.123379  0  0.948466  0  0  0.132412  0  1.006656  0  0  0.136307  0  1.004825  0  0  0.11445  0.129679  0  1.008018  0
H  H16  1  0.51564894  0.64152825  0.35571354  1  0  0.123365  0  0.948497  0  0  0.132402  0  1.006679  0  0  0.136293  0  1.004855  0  0  0.114448  0.129671  0  1.00804  0
H  H17  1  0.98434968  0.64428296  0.35847060  1  0  0.123369  0  0.948465  0  0  0.132396  0  1.006664  0  0  0.136292  0  1.004832  0  0  0.114432  0.129664  0  1.008025  0
H  H18  1  0.49966980  0.71885792  0.52611646  1  0  0.112417  0  0.963141  0  0  0.123784  0  1.01967  0  0  0.126595  0  1.019231  0  0  0.111973  0.12181  0  1.019913  0
H  H19  1  0.00033159  0.47388250  0.28114218  1  0  0.112422  0  0.963153  0  0  0.123787  0  1.019687  0  0  0.126599  0  1.019245  0  0  0.111964  0.121814  0  1.019931  0
H  H20  1  0.50033302  0.28114179  0.47388221  1  0  0.112439  0  0.963151  0  0  0.123812  0  1.019666  0  0  0.126623  0  1.019228  0  0  0.111982  0.121839  0  1.01991  0
H  H21  1  0.99966562  0.52611608  0.71885814  1  0  0.112426  0  0.963179  0  0  0.123798  0  1.019699  0  0  0.126609  0  1.019261  0  0  0.111976  0.121824  0  1.019942  0
H  H22  1  0.48139044  0.80813635  0.73836080  1  0  0.119421  0  0.952521  0  0  0.123098  0  1.021949  0  0  0.127165  0  1.017936  0  0  0.129548  0.120174  0  1.024739  0
H  H23  1  0.01861005  0.26163870  0.19186331  1  0  0.119404  0  0.952546  0  0  0.123078  0  1.021976  0  0  0.127145  0  1.017963  0  0  0.129533  0.120156  0  1.024765  0
H  H24  1  0.51861187  0.19186442  0.26163789  1  0  0.11944  0  0.95255  0  0  0.123125  0  1.021966  0  0  0.127188  0  1.017959  0  0  0.129551  0.120203  0  1.024754  0
H  H25  1  0.98138787  0.73836096  0.80813651  1  0  0.119418  0  0.952517  0  0  0.123072  0  1.021955  0  0  0.127138  0  1.017944  0  0  0.129543  0.12015  0  1.024743  0
H  H26  1  0.86177281  0.07521409  0.97945025  1  0  0.436168  0  0.866676  0  0  0.405363  0  0.930315  0  0  0.416608  0  0.913763  0  0  0.2891  0.39737  0  0.942152  0
H  H27  1  0.63822724  0.02054985  0.92478580  1  0  0.436181  0  0.866663  0  0  0.405375  0  0.930303  0  0  0.416619  0  0.913753  0  0  0.289102  0.397381  0  0.942141  0
H  H28  1  0.13822755  0.92478560  0.02054945  1  0  0.436161  0  0.866692  0  0  0.405369  0  0.930308  0  0  0.416608  0  0.913764  0  0  0.289103  0.397381  0  0.942141  0
H  H29  1  0.36177190  0.97944983  0.07521350  1  0  0.436172  0  0.866675  0  0  0.405367  0  0.930316  0  0  0.416609  0  0.913767  0  0  0.289099  0.397373  0  0.942154  0
C  C30  1  0.91241396  0.71726724  0.07517510  1  0  0.625255  0  3.946303  0  0  0.573177  0  4.244195  0  0  0.606648  0  4.239565  0  0  0.19515  0.55059  0  4.246015  0
C  C31  1  0.58758680  0.92482492  0.28273324  1  0  0.625139  0  3.946389  0  0  0.573063  0  4.244279  0  0  0.606534  0  4.23965  0  0  0.195097  0.550475  0  4.246098  0
C  C32  1  0.08758397  0.28273239  0.92482744  1  0  0.625117  0  3.946468  0  0  0.573038  0  4.24436  0  0  0.606509  0  4.239735  0  0  0.195132  0.550447  0  4.246179  0
C  C33  1  0.41241357  0.07517476  0.71726736  1  0  0.625243  0  3.946334  0  0  0.573164  0  4.244223  0  0  0.606636  0  4.239593  0  0  0.195157  0.550577  0  4.246042  0
C  C34  1  0.96175060  0.60723896  0.03865526  1  0  -0.066739  0  3.774501  0  0  -0.043549  0  4.007162  0  0  -0.050355  0  4.030601  0  0  -0.022459  -0.038972  0  3.991037  0
C  C35  1  0.53825021  0.96134583  0.39276103  1  0  -0.066676  0  3.774466  0  0  -0.043488  0  4.007126  0  0  -0.050291  0  4.03056  0  0  -0.022452  -0.03891  0  3.990999  0
C  C36  1  0.03825051  0.39276177  0.96134849  1  0  -0.066708  0  3.774474  0  0  -0.043517  0  4.007134  0  0  -0.050322  0  4.030571  0  0  -0.022472  -0.038923  0  3.990982  0
C  C37  1  0.46175088  0.03865493  0.60723908  1  0  -0.066697  0  3.774481  0  0  -0.043505  0  4.007141  0  0  -0.05031  0  4.030577  0  0  -0.022448  -0.038927  0  3.991015  0
C  C38  1  0.84494499  0.46616701  0.01883636  1  0  -0.089948  0  3.737778  0  0  -0.110531  0  3.984412  0  0  -0.112155  0  4.003914  0  0  -0.092482  -0.10937  0  3.970946  0
C  C39  1  0.65505743  0.98116721  0.53383533  1  0  -0.089962  0  3.737829  0  0  -0.110556  0  3.98445  0  0  -0.112167  0  4.003967  0  0  -0.09246  -0.109389  0  3.970979  0
C  C40  1  0.15505756  0.53383585  0.98117002  1  0  -0.089902  0  3.737698  0  0  -0.110469  0  3.984335  0  0  -0.112092  0  4.003843  0  0  -0.092453  -0.10931  0  3.970862  0
C  C41  1  0.34494437  0.01883461  0.46616519  1  0  -0.089982  0  3.737819  0  0  -0.110573  0  3.984452  0  0  -0.11219  0  4.003962  0  0  -0.092476  -0.109409  0  3.970984  0
C  C42  1  0.11724755  0.64011500  0.01950076  1  0  -0.07937  0  3.733634  0  0  -0.098805  0  3.976148  0  0  -0.100558  0  3.997838  0  0  -0.090621  -0.097127  0  3.961378  0
C  C43  1  0.38275525  0.98050231  0.35988582  1  0  -0.079396  0  3.733639  0  0  -0.098828  0  3.976161  0  0  -0.100581  0  3.997846  0  0  -0.090627  -0.097153  0  3.961396  0
C  C44  1  0.88275479  0.35988573  0.98050428  1  0  -0.079441  0  3.733653  0  0  -0.098868  0  3.976198  0  0  -0.100615  0  3.997882  0  0  -0.09064  -0.097199  0  3.961435  0
C  C45  1  0.61724657  0.01949951  0.64011561  1  0  -0.079439  0  3.733695  0  0  -0.098874  0  3.97622  0  0  -0.100629  0  3.99791  0  0  -0.090643  -0.097197  0  3.96145  0
C  C46  1  0.48021310  0.51636260  0.77564053  1  0  0.018468  0  3.575164  0  0  -0.02535  0  3.84204  0  0  -0.018735  0  3.853758  0  0  0.042696  -0.029792  0  3.834614  0
C  C47  1  0.01978513  0.22435695  0.48363589  1  0  0.018377  0  3.575209  0  0  -0.025429  0  3.842081  0  0  -0.018813  0  3.853797  0  0  0.042653  -0.029871  0  3.834655  0
C  C48  1  0.51978530  0.48363603  0.22435565  1  0  0.018296  0  3.575261  0  0  -0.025515  0  3.842137  0  0  -0.018898  0  3.853849  0  0  0.042601  -0.029956  0  3.834709  0
C  C49  1  0.98021452  0.77564165  0.51636430  1  0  0.018357  0  3.575221  0  0  -0.025441  0  3.842081  0  0  -0.018825  0  3.853798  0  0  0.042666  -0.029883  0  3.834655  0
C  C50  1  0.48875300  0.46009555  0.65892040  1  0  -0.125027  0  3.708789  0  0  -0.144033  0  3.962253  0  0  -0.149099  0  3.98086  0  0  -0.075738  -0.141318  0  3.950347  0
C  C51  1  0.01124525  0.34107788  0.53990493  1  0  -0.12501  0  3.708725  0  0  -0.144034  0  3.962198  0  0  -0.149097  0  3.980808  0  0  -0.075738  -0.14132  0  3.950292  0
C  C52  1  0.51124418  0.53990307  0.34107448  1  0  -0.124923  0  3.708805  0  0  -0.143951  0  3.962243  0  0  -0.149011  0  3.980854  0  0  -0.075708  -0.141238  0  3.950337  0
C  C53  1  0.98875461  0.65892286  0.46009569  1  0  -0.125049  0  3.708668  0  0  -0.144093  0  3.962105  0  0  -0.149157  0  3.980713  0  0  -0.075774  -0.141379  0  3.950201  0
C  C54  1  0.49647850  0.52918574  0.56296451  1  0  0.062681  0  3.782232  0  0  0.069697  0  4.02283  0  0  0.073113  0  4.043762  0  0  -0.001657  0.067598  0  4.008574  0
C  C55  1  0.00351948  0.43703386  0.47081357  1  0  0.06262  0  3.782202  0  0  0.06963  0  4.022781  0  0  0.073048  0  4.043713  0  0  -0.001679  0.067534  0  4.008525  0
C  C56  1  0.50352042  0.47081182  0.43703164  1  0  0.062526  0  3.782215  0  0  0.069605  0  4.022763  0  0  0.07302  0  4.043696  0  0  -0.001688  0.06751  0  4.008507  0
C  C57  1  0.99647773  0.56296471  0.52918765  1  0  0.062635  0  3.782172  0  0  0.069766  0  4.022643  0  0  0.073182  0  4.043575  0  0  -0.001622  0.067669  0  4.008387  0
C  C58  1  0.49436506  0.65729448  0.59350082  1  0  -0.120436  0  3.719665  0  0  -0.140763  0  3.972333  0  0  -0.144913  0  3.990245  0  0  -0.076475  -0.138099  0  3.960138  0
C  C59  1  0.00563596  0.40649911  0.34270503  1  0  -0.120393  0  3.719578  0  0  -0.14072  0  3.972231  0  0  -0.144872  0  3.990142  0  0  -0.07645  -0.138058  0  3.960037  0
C  C60  1  0.50563653  0.34270522  0.40649746  1  0  -0.120316  0  3.719633  0  0  -0.140637  0  3.972263  0  0  -0.14479  0  3.990177  0  0  -0.076413  -0.137975  0  3.960071  0
C  C61  1  0.99436195  0.59350055  0.65729479  1  0  -0.120361  0  3.71969  0  0  -0.140726  0  3.972311  0  0  -0.144879  0  3.990223  0  0  -0.076415  -0.138063  0  3.960116  0
C  C62  1  0.48524379  0.71081418  0.71054602  1  0  0.015915  0  3.589249  0  0  -0.025717  0  3.852952  0  0  -0.019042  0  3.864163  0  0  0.041481  -0.029899  0  3.845511  0
C  C63  1  0.01475622  0.28945260  0.28918473  1  0  0.015883  0  3.589273  0  0  -0.025742  0  3.852971  0  0  -0.019068  0  3.864185  0  0  0.041476  -0.029923  0  3.84553  0
C  C64  1  0.51475584  0.28918446  0.28945055  1  0  0.015695  0  3.58925  0  0  -0.025969  0  3.853014  0  0  -0.019289  0  3.864218  0  0  0.041343  -0.030151  0  3.845574  0
C  C65  1  0.98524169  0.71054706  0.71081419  1  0  0.01581  0  3.589321  0  0  -0.025784  0  3.853022  0  0  -0.019104  0  3.86423  0  0  0.041411  -0.029965  0  3.84558  0
N  N66  1  0.47919501  0.64115899  0.80150118  1  0  0.276709  0  3.713424  0  0  0.329001  0  3.975035  0  0  0.329572  0  3.997515  0  0  -0.110592  0.327899  0  3.960113  0
N  N67  1  0.02080467  0.19849801  0.35884015  1  0  0.276745  0  3.713461  0  0  0.329033  0  3.975066  0  0  0.329603  0  3.997548  0  0  -0.110603  0.32793  0  3.960145  0
N  N68  1  0.52080463  0.35883964  0.19849629  1  0  0.276799  0  3.713207  0  0  0.329096  0  3.974823  0  0  0.329666  0  3.997306  0  0  -0.110558  0.327993  0  3.959902  0
N  N69  1  0.97919447  0.80150166  0.64116007  1  0  0.276769  0  3.713472  0  0  0.329055  0  3.975066  0  0  0.329626  0  3.997545  0  0  -0.11058  0.327953  0  3.960144  0
O  O70  1  0.82238323  0.69937258  0.14218744  1  0  -0.638774  0  1.962424  0  0  -0.577126  0  2.208394  0  0  -0.607008  0  2.199789  0  0  -0.323177  -0.555576  0  2.21262  0
O  O71  1  0.67761549  0.85781121  0.30062783  1  0  -0.638707  0  1.962467  0  0  -0.577074  0  2.208453  0  0  -0.606955  0  2.199846  0  0  -0.323136  -0.555523  0  2.212677  0
O  O72  1  0.17761612  0.30062923  0.85781140  1  0  -0.638716  0  1.96237  0  0  -0.577075  0  2.208348  0  0  -0.60696  0  2.199743  0  0  -0.323151  -0.555523  0  2.212574  0
O  O73  1  0.32238488  0.14218847  0.69937278  1  0  -0.638758  0  1.962413  0  0  -0.577107  0  2.208376  0  0  -0.606988  0  2.19977  0  0  -0.323182  -0.555556  0  2.212601  0
O  O74  1  0.95401389  0.82211939  0.03457008  1  0  -0.64868  0  1.968525  0  0  -0.581651  0  2.1937  0  0  -0.609516  0  2.183335  0  0  -0.322207  -0.561764  0  2.200239  0
O  O75  1  0.54598478  0.96542851  0.17787985  1  0  -0.64864  0  1.968522  0  0  -0.581606  0  2.193707  0  0  -0.609471  0  2.183339  0  0  -0.322197  -0.561718  0  2.200243  0
O  O76  1  0.04598689  0.17788457  0.96542868  1  0  -0.648581  0  1.968683  0  0  -0.581561  0  2.193895  0  0  -0.609417  0  2.183512  0  0  -0.322198  -0.561674  0  2.200433  0
O  O77  1  0.45401437  0.03457116  0.82211946  1  0  -0.648684  0  1.968572  0  0  -0.581652  0  2.193756  0  0  -0.609515  0  2.183388  0  0  -0.322208  -0.561763  0  2.200293  0
O  O78  1  0.46714217  0.69226474  0.91125720  1  0  -0.538529  0  1.79362  0  0  -0.490921  0  2.035307  0  0  -0.516637  0  2.032799  0  0  -0.234989  -0.473156  0  2.036823  0
O  O79  1  0.03285794  0.08874236  0.30773554  1  0  -0.538512  0  1.793616  0  0  -0.490921  0  2.035318  0  0  -0.516636  0  2.032809  0  0  -0.234968  -0.473157  0  2.036834  0
O  O80  1  0.53285747  0.30773389  0.08874027  1  0  -0.538459  0  1.793549  0  0  -0.490845  0  2.035221  0  0  -0.516567  0  2.032722  0  0  -0.234917  -0.473081  0  2.036736  0
O  O81  1  0.96714243  0.91125732  0.69226507  1  0  -0.53847  0  1.793618  0  0  -0.490895  0  2.035345  0  0  -0.516611  0  2.032833  0  0  -0.234966  -0.47313  0  2.03686  0
O  O82  1  0.74999942  0.01400404  0.98599454  1  0  -0.885267  0  1.904062  0  0  -0.824652  0  2.118968  0  0  -0.847756  0  2.081129  0  0  -0.59958  -0.807996  0  2.146118  0
O  O83  1  0.25000094  0.98599564  0.01400516  1  0  -0.885251  0  1.904093  0  0  -0.824648  0  2.118991  0  0  -0.847746  0  2.081164  0  0  -0.599588  -0.807997  0  2.146127  0
