# generated using pymatgen
data_Mg2H12C21O8
_symmetry_space_group_name_H-M   'P 1'
_cell_length_a   6.83318812
_cell_length_b   34.98988433
_cell_length_c   34.99390174
_cell_angle_alpha   119.58571184
_cell_angle_beta   93.72409530
_cell_angle_gamma   93.72470526
_symmetry_Int_Tables_number   1
_chemical_formula_structural   Mg2H12C21O8
_chemical_formula_sum   'Mg6 H36 C63 O24'
_cell_volume   7215.00713832
_cell_formula_units_Z   3
loop_
 _symmetry_equiv_pos_site_id
 _symmetry_equiv_pos_as_xyz
  1  'x, y, z'
loop_
 _atom_site_type_symbol
 _atom_site_label
 _atom_site_symmetry_multiplicity
 _atom_site_fract_x
 _atom_site_fract_y
 _atom_site_fract_z
 _atom_site_occupancy
 _atom_site_pbe_bader_charge
 _atom_site_pbe_bader_spin_density
 _atom_site_pbe_cm5_charge
 _atom_site_pbe_ddec_charge
 _atom_site_pbe_ddec_spin_density
 _atom_site_pbe_ddec_sum_bond_order
 _atom_site_pbe_magmom
Mg  Mg0  1  0.07129998  0.30702398  0.63398467  1  1.681917  0  0.910761  1.40899  0  1.330028  0
Mg  Mg1  1  0.42278444  0.63419737  0.30659692  1  1.681753  0  0.909936  1.408981  0  1.328614  0
Mg  Mg2  1  0.76446925  0.32699007  0.69299051  1  1.682765  0  0.910991  1.409491  0  1.330594  0
Mg  Mg3  1  0.78842799  0.67235632  0.36579017  1  1.683345  0  0.909886  1.409111  0  1.329162  0
Mg  Mg4  1  0.43727703  0.36599381  0.67297268  1  1.683346  0  0.910921  1.409885  0  1.329672  0
Mg  Mg5  1  0.11599819  0.69340915  0.32762399  1  1.683878  0  0.909989  1.409995  0  1.327252  0
H  H6  1  0.08429098  0.61586609  0.43437107  1  0.095755  0  0.106001  0.109103  0  1.013033  0
H  H7  1  0.63343415  0.56342992  0.43951668  1  0.070107  0  0.10813  0.106794  0  0.99099  0
H  H8  1  0.75600956  0.58783286  0.38927993  1  0.063991  0  0.106877  0.123555  0  1.007366  0
H  H9  1  0.11140204  0.58060442  0.47558990  1  0.064909  0  0.103577  0.099143  0  1.004758  0
H  H10  1  0.49616344  0.54071265  0.47993203  1  0.065119  0  0.105648  0.113088  0  1.014809  0
H  H11  1  0.96092433  0.54231235  0.49336602  1  0.053256  0  0.093858  0.11748  0  1.043732  0
H  H12  1  0.15309139  0.47776133  0.54264123  1  0.096618  0  0.099877  0.115986  0  1.065711  0
H  H13  1  0.75429906  0.47625346  0.57829024  1  0.064639  0  0.104564  0.103641  0  0.990953  0
H  H14  1  0.72680962  0.43402354  0.61583924  1  0.088375  0  0.106349  0.109694  0  1.012854  0
H  H15  1  0.40470976  0.39198405  0.58995557  1  0.089761  0  0.106564  0.123152  0  1.009203  0
H  H16  1  0.27877037  0.44166640  0.56544287  1  0.060188  0  0.110681  0.111267  0  0.990447  0
H  H17  1  0.50470661  0.51765190  0.52745436  1  0.67094  0  0.305266  0.372203  0  0.973225  0
H  H18  1  0.46854646  0.81862864  0.38425336  1  0.087117  0  0.106029  0.108746  0  1.012796  0
H  H19  1  0.07041142  0.87598748  0.43651674  1  0.054668  0  0.108051  0.106644  0  0.990733  0
H  H20  1  0.16799409  0.80128620  0.41212500  1  0.091919  0  0.107084  0.123389  0  1.007788  0
H  H21  1  0.53144830  0.89509977  0.41952073  1  0.05211  0  0.103744  0.099081  0  1.004856  0
H  H22  1  0.95642406  0.93926552  0.45908259  1  0.037948  0  0.105544  0.112841  0  1.01548  0
H  H23  1  0.41970897  0.95107305  0.45762481  1  0.09432  0  0.094278  0.117961  0  1.044266  0
H  H24  1  0.67598078  0.06489926  0.52218777  1  0.07261  0  0.099872  0.116128  0  1.066183  0
H  H25  1  0.27858555  0.10204014  0.52380738  1  0.068341  0  0.104539  0.103397  0  0.99128  0
H  H26  1  0.29335156  0.18183737  0.56605114  1  0.097148  0  0.106373  0.109523  0  1.012757  0
H  H27  1  0.01301766  0.19799413  0.60815123  1  0.087109  0  0.106586  0.122437  0  1.010003  0
H  H28  1  0.83764616  0.12381000  0.55847950  1  0.089354  0  0.110551  0.111429  0  0.990279  0
H  H29  1  0.98799915  0.00988237  0.48227663  1  0.663126  0  0.305086  0.371489  0  0.974297  0
H  H30  1  0.65030038  0.56553591  0.18136406  1  0.073662  0  0.106058  0.109171  0  1.0122  0
H  H31  1  0.19496562  0.56049467  0.12404519  1  0.064635  0  0.108029  0.106541  0  0.98989  0
H  H32  1  0.36700209  0.61079415  0.19874079  1  0.073868  0  0.107288  0.123939  0  1.007517  0
H  H33  1  0.63710452  0.52431979  0.10489999  1  0.044563  0  0.10328  0.098234  0  1.005018  0
H  H34  1  0.01786536  0.51994846  0.06076109  1  0.056058  0  0.105905  0.11352  0  1.014558  0
H  H35  1  0.46938011  0.50655394  0.04891428  1  0.048917  0  0.093824  0.116942  0  1.044505  0
H  H36  1  0.61167637  0.45727534  0.93505800  1  0.071674  0  0.099483  0.115829  0  1.066198  0
H  H37  1  0.17707818  0.42184923  0.89797164  1  0.06128  0  0.104287  0.102936  0  0.991169  0
H  H38  1  0.11171534  0.38431045  0.81824097  1  0.102328  0  0.106185  0.109538  0  1.01334  0
H  H39  1  0.81518783  0.40994178  0.80179894  1  0.094972  0  0.106447  0.122563  0  1.010224  0
H  H40  1  0.71428324  0.43460260  0.87605777  1  0.072345  0  0.110576  0.111091  0  0.990268  0
H  H41  1  0.97900865  0.47239901  0.99014865  1  0.664451  0  0.304905  0.371741  0  0.973912  0
C  C42  1  0.49094501  0.61412538  0.38163825  1  0.612651  0  0.099471  0.373121  0  4.065957  0
C  C43  1  0.29738860  0.62227738  0.39516412  1  -0.038436  0  -0.041254  -0.20753  0  3.974108  0
C  C44  1  0.23177412  0.60888215  0.42441980  1  -0.086464  0  -0.076931  -0.109645  0  3.94755  0
C  C45  1  0.34627097  0.58722716  0.44069425  1  0.047742  0  -0.022921  0.073732  0  4.077612  0
C  C46  1  0.53841033  0.58003199  0.42750170  1  -0.015158  0  -0.072424  -0.072454  0  3.95297  0
C  C47  1  0.60798347  0.59331037  0.39924334  1  -0.057361  0  -0.1033  -0.21433  0  3.981743  0
C  C48  1  0.26106898  0.57209714  0.46847475  1  -0.014566  0  -0.078773  -0.085143  0  3.990455  0
C  C49  1  0.34388988  0.54832570  0.48490365  1  -0.049055  0  -0.097936  -0.204973  0  3.967424  0
C  C50  1  0.24482466  0.53037098  0.50933948  1  0.549382  0  0.105912  0.383665  0  4.05255  0
C  C51  1  0.04236508  0.52839369  0.51047097  1  -0.015595  0  -0.13945  -0.396816  0  3.914239  0
C  C52  1  0.91765014  0.51048575  0.53088781  1  0.861306  0  0.123474  0.454687  0  4.088595  0
C  C53  1  0.00181037  0.48434052  0.54884528  1  -0.035928  0  -0.11093  -0.224812  0  3.939497  0
C  C54  1  0.90530996  0.46855774  0.57159700  1  -0.073715  0  -0.072305  -0.065729  0  3.96843  0
C  C55  1  0.98857017  0.44109872  0.58756545  1  0.003304  0  -0.021728  0.070935  0  4.066802  0
C  C56  1  0.87525734  0.42464319  0.60918727  1  -0.043139  0  -0.076413  -0.108431  0  3.946656  0
C  C57  1  0.94395722  0.39594234  0.62308920  1  0.001627  0  -0.041904  -0.209657  0  3.974  0
C  C58  1  0.13858677  0.38296066  0.61528330  1  0.577539  0  0.100516  0.376148  0  4.065175  0
C  C59  1  0.25519203  0.40114448  0.59492720  1  -0.03368  0  -0.104326  -0.217129  0  3.985214  0
C  C60  1  0.18316904  0.42900009  0.58140704  1  -0.00925  0  -0.070187  -0.069469  0  3.944302  0
C  C61  1  0.81107189  0.38087670  0.64569569  1  1.491115  0  0.238063  0.679234  0  4.121009  0
C  C62  1  0.16261761  0.64472005  0.38019199  1  1.513454  0  0.239188  0.680979  0  4.116979  0
C  C63  1  0.87651810  0.76746419  0.38587253  1  0.593609  0  0.100028  0.374377  0  4.064392  0
C  C64  1  0.67488438  0.77289565  0.37776298  1  0.001484  0  -0.041496  -0.207837  0  3.972758  0
C  C65  1  0.62293254  0.81558393  0.39119800  1  -0.065371  0  -0.07686  -0.109427  0  3.946661  0
C  C66  1  0.75933780  0.85348106  0.41282025  1  0.030447  0  -0.022875  0.074984  0  4.076474  0
C  C67  1  0.95860876  0.84740540  0.41994755  1  -0.026481  0  -0.072151  -0.072007  0  3.95333  0
C  C68  1  0.01460007  0.80584495  0.40667134  1  -0.046324  0  -0.104206  -0.215714  0  3.984109  0
C  C69  1  0.68964407  0.89643441  0.42794737  1  -0.082574  0  -0.078789  -0.085777  0  3.989836  0
C  C70  1  0.79646854  0.93662524  0.45158028  1  0.049608  0  -0.098147  -0.205092  0  3.966542  0
C  C71  1  0.71539696  0.97902132  0.46949238  1  0.523421  0  0.106751  0.385662  0  4.051248  0
C  C72  1  0.51493858  0.98210703  0.47150469  1  -0.057192  0  -0.139867  -0.39812  0  3.915319  0
C  C73  1  0.40794376  0.02039338  0.48953461  1  0.826853  0  0.123416  0.454985  0  4.087343  0
C  C74  1  0.51810768  0.06450851  0.51563686  1  0.04302  0  -0.11125  -0.225609  0  3.940134  0
C  C75  1  0.43729482  0.10304238  0.53148688  1  -0.104262  0  -0.071844  -0.064763  0  3.968733  0
C  C76  1  0.54794364  0.14646961  0.55901480  1  -0.004999  0  -0.021795  0.070205  0  4.067047  0
C  C77  1  0.45108384  0.18454784  0.57549038  1  -0.001596  0  -0.076965  -0.107982  0  3.9464  0
C  C78  1  0.54831897  0.22716054  0.60421632  1  -0.030128  0  -0.041845  -0.209987  0  3.973031  0
C  C79  1  0.75593396  0.23236667  0.61719098  1  0.576642  0  0.100288  0.375967  0  4.066006  0
C  C80  1  0.85432132  0.19381346  0.59901708  1  -0.073228  0  -0.10453  -0.21671  0  3.98606  0
C  C81  1  0.75456229  0.15243014  0.57114883  1  -0.008155  0  -0.069831  -0.069215  0  3.94399  0
C  C82  1  0.43035603  0.26482889  0.61920100  1  1.513569  0  0.238332  0.678998  0  4.121686  0
C  C83  1  0.51769135  0.73548656  0.35530057  1  1.515963  0  0.23861  0.680035  0  4.11751  0
C  C84  1  0.10930522  0.61835805  0.23255076  1  0.576099  0  0.099933  0.373982  0  4.066979  0
C  C85  1  0.90223824  0.60479476  0.22710380  1  0.001714  0  -0.041316  -0.207367  0  3.973402  0
C  C86  1  0.80772083  0.57553480  0.18442070  1  -0.054024  0  -0.076732  -0.110233  0  3.946317  0
C  C87  1  0.90635477  0.55928105  0.14653476  1  0.020715  0  -0.022991  0.074841  0  4.076334  0
C  C88  1  0.11164464  0.57250176  0.15262030  1  -0.036583  0  -0.072164  -0.071992  0  3.953039  0
C  C89  1  0.20903559  0.60079030  0.19418111  1  -0.016527  0  -0.104239  -0.215933  0  3.985775  0
C  C90  1  0.79391274  0.53146120  0.10356911  1  -0.061165  0  -0.078267  -0.083837  0  3.988734  0
C  C91  1  0.86056793  0.51500026  0.06338235  1  0.015734  0  -0.098593  -0.206593  0  3.965695  0
C  C92  1  0.73725435  0.49055110  0.02097997  1  0.539689  0  0.105977  0.384386  0  4.052271  0
C  C93  1  0.53370753  0.48945386  0.01788683  1  -0.010699  0  -0.139571  -0.396503  0  3.914971  0
C  C94  1  0.38837146  0.46906440  0.97961114  1  0.854999  0  0.123735  0.455366  0  4.08889  0
C  C95  1  0.45419912  0.45112147  0.93546802  1  -0.064788  0  -0.110639  -0.225396  0  3.941052  0
C  C96  1  0.33481193  0.42847535  0.89694414  1  0.034951  0  -0.07193  -0.06448  0  3.96765  0
C  C97  1  0.40190763  0.41252599  0.85349004  1  -0.091095  0  -0.021331  0.070808  0  4.066354  0
C  C98  1  0.26674377  0.39095184  0.81545484  1  0.038032  0  -0.076685  -0.108804  0  3.946953  0
C  C99  1  0.32113511  0.37702619  0.77281147  1  -0.056987  0  -0.041817  -0.208957  0  3.973795  0
C  C100  1  0.52354841  0.38474380  0.76756527  1  0.588089  0  0.100968  0.37635  0  4.065554  0
C  C101  1  0.66073334  0.40506115  0.80606569  1  -0.037611  0  -0.104609  -0.217126  0  3.984872  0
C  C102  1  0.60253432  0.41863963  0.84747057  1  -0.020928  0  -0.070294  -0.06912  0  3.944413  0
C  C103  1  0.16556361  0.35437807  0.73516697  1  1.498385  0  0.237579  0.678216  0  4.122671  0
C  C104  1  0.78221347  0.61975264  0.26449064  1  1.524004  0  0.23869  0.679825  0  4.117598  0
O  O105  1  0.64635201  0.39616060  0.65574578  1  -1.239343  0  -0.35557  -0.64367  0  2.151587  0
O  O106  1  0.86486117  0.35118139  0.65483718  1  -1.294373  0  -0.403621  -0.77067  0  2.413463  0
O  O107  1  0.21614034  0.35494381  0.62613292  1  -1.305707  0  -0.444141  -0.771755  0  2.308871  0
O  O108  1  0.99748947  0.65433623  0.39540026  1  -1.242107  0  -0.35343  -0.641904  0  2.15003  0
O  O109  1  0.21539747  0.65415850  0.35063635  1  -1.297593  0  -0.403049  -0.771602  0  2.412192  0
O  O110  1  0.56749963  0.62504057  0.35355496  1  -1.308733  0  -0.445364  -0.772562  0  2.310003  0
O  O111  1  0.73678048  0.51647368  0.53150192  1  -1.167903  0  -0.318008  -0.521531  0  2.167031  0
O  O112  1  0.35895496  0.51475173  0.52984274  1  -1.17467  0  -0.330914  -0.436513  0  2.334846  0
O  O113  1  0.25039958  0.25959223  0.60390305  1  -1.244794  0  -0.355066  -0.642761  0  2.152747  0
O  O114  1  0.51388839  0.30368098  0.64882534  1  -1.310063  0  -0.40385  -0.771405  0  2.414093  0
O  O115  1  0.86153170  0.27124230  0.64513654  1  -1.311131  0  -0.444261  -0.771356  0  2.309322  0
O  O116  1  0.34305215  0.74106512  0.34560773  1  -1.243222  0  -0.352966  -0.641486  0  2.149923  0
O  O117  1  0.56099120  0.69649736  0.34592180  1  -1.299026  0  -0.402787  -0.771029  0  2.412138  0
O  O118  1  0.94207416  0.72844561  0.37491957  1  -1.308103  0  -0.445489  -0.772936  0  2.309873  0
O  O119  1  0.22106591  0.01496253  0.48372397  1  -1.162323  0  -0.318114  -0.52148  0  2.166829  0
O  O120  1  0.84500907  0.01514205  0.48502196  1  -1.159443  0  -0.331001  -0.436374  0  2.334416  0
O  O121  1  0.99087236  0.34432003  0.74042495  1  -1.239519  0  -0.35469  -0.642453  0  2.152621  0
O  O122  1  0.21009912  0.34517611  0.69631095  1  -1.297178  0  -0.403606  -0.770918  0  2.413534  0
O  O123  1  0.59013674  0.37383505  0.72868363  1  -1.305992  0  -0.444536  -0.771743  0  2.311856  0
O  O124  1  0.60196999  0.60450145  0.25889611  1  -1.240425  0  -0.353053  -0.641065  0  2.149342  0
O  O125  1  0.86438178  0.64936643  0.30348876  1  -1.308423  0  -0.402578  -0.77138  0  2.411322  0
O  O126  1  0.21373127  0.64643471  0.27156246  1  -1.311042  0  -0.445716  -0.772978  0  2.311301  0
O  O127  1  0.20701173  0.46848986  0.98510150  1  -1.173551  0  -0.318089  -0.521808  0  2.166984  0
O  O128  1  0.83085296  0.47002269  0.98485936  1  -1.162604  0  -0.330505  -0.436078  0  2.334648  0
