# generated using pymatgen
data_FeH16PdC20(SN6)2
_symmetry_space_group_name_H-M   'P 1'
_cell_length_a   7.12070588
_cell_length_b   7.41150694
_cell_length_c   12.39982142
_cell_angle_alpha   103.81385468
_cell_angle_beta   100.05226169
_cell_angle_gamma   87.54870305
_symmetry_Int_Tables_number   1
_chemical_formula_structural   FeH16PdC20(SN6)2
_chemical_formula_sum   'Fe1 H16 Pd1 C20 S2 N12'
_cell_volume   625.71938946
_cell_formula_units_Z   1
loop_
 _symmetry_equiv_pos_site_id
 _symmetry_equiv_pos_as_xyz
  1  'x, y, z'
loop_
 _atom_site_type_symbol
 _atom_site_label
 _atom_site_symmetry_multiplicity
 _atom_site_fract_x
 _atom_site_fract_y
 _atom_site_fract_z
 _atom_site_occupancy
 _atom_site_hle17_bader_spin_density
 _atom_site_hle17_ddec_charge
 _atom_site_hle17_ddec_spin_density
 _atom_site_hle17_ddec_sum_bond_order
 _atom_site_hle17_magmom
 _atom_site_hse06_10hf_bader_spin_density
 _atom_site_hse06_10hf_ddec_charge
 _atom_site_hse06_10hf_ddec_spin_density
 _atom_site_hse06_10hf_ddec_sum_bond_order
 _atom_site_hse06_10hf_magmom
 _atom_site_hse06_bader_spin_density
 _atom_site_hse06_ddec_charge
 _atom_site_hse06_ddec_spin_density
 _atom_site_hse06_ddec_sum_bond_order
 _atom_site_hse06_magmom
 _atom_site_pbe_bader_spin_density
 _atom_site_pbe_cm5_charge
 _atom_site_pbe_ddec_charge
 _atom_site_pbe_ddec_spin_density
 _atom_site_pbe_ddec_sum_bond_order
 _atom_site_pbe_magmom
Fe  Fe0  1  0.98940783  0.49159520  0.00067518  1  0  0.628076  0  3.128404  0  0  0.590513  0  3.62457  0  0  0.635677  0  3.563346  0  0  0.804761  0.567313  0  3.659613  0
H  H1  1  0.13076455  0.59662993  0.43067207  1  0  0.088126  0  0.976495  0  0  0.091738  0  1.05311  0  0  0.093709  0  1.050091  0  0  0.125944  0.090222  0  1.054777  0
H  H2  1  0.86585359  0.40241959  0.57195690  1  0  0.08986  0  0.974917  0  0  0.092948  0  1.051549  0  0  0.09488  0  1.048646  0  0  0.1263  0.09145  0  1.053216  0
H  H3  1  0.23015647  0.85373580  0.54421775  1  0  0.079312  0  0.931066  0  0  0.09544  0  0.98935  0  0  0.09785  0  0.985982  0  0  0.119367  0.093404  0  0.992113  0
H  H4  1  0.77071774  0.14295409  0.45421855  1  0  0.080036  0  0.928664  0  0  0.096743  0  0.986072  0  0  0.099067  0  0.982789  0  0  0.120153  0.094897  0  0.988659  0
H  H5  1  0.11381949  0.89181101  0.17499687  1  0  0.134124  0  0.90415  0  0  0.144906  0  0.9593  0  0  0.146663  0  0.956316  0  0  0.158265  0.143245  0  0.961554  0
H  H6  1  0.88136935  0.09521905  0.82153195  1  0  0.133288  0  0.900649  0  0  0.144798  0  0.955298  0  0  0.146795  0  0.951757  0  0  0.158926  0.142945  0  0.958036  0
H  H7  1  0.46089072  0.39551071  0.85304168  1  0  0.139341  0  0.928566  0  0  0.151631  0  0.981906  0  0  0.15319  0  0.983765  0  0  0.116032  0.150357  0  0.980899  0
H  H8  1  0.53055801  0.60093037  0.14601146  1  0  0.13965  0  0.927114  0  0  0.151544  0  0.980522  0  0  0.153027  0  0.982795  0  0  0.11624  0.150318  0  0.979205  0
H  H9  1  0.34901748  0.05588264  0.74946539  1  0  0.106948  0  0.957931  0  0  0.115429  0  1.027901  0  0  0.118064  0  1.024948  0  0  0.103535  0.113235  0  1.030559  0
H  H10  1  0.64826741  0.93906312  0.24787276  1  0  0.105696  0  0.958642  0  0  0.114953  0  1.027629  0  0  0.117466  0  1.024743  0  0  0.103001  0.112859  0  1.030249  0
H  H11  1  0.35277374  0.74666913  0.75990749  1  0  0.121185  0  0.946225  0  0  0.142353  0  1.007565  0  0  0.143003  0  1.007613  0  0  0.091902  0.141652  0  1.007858  0
H  H12  1  0.63684666  0.24951180  0.23769107  1  0  0.117625  0  0.9523  0  0  0.136292  0  1.019633  0  0  0.137285  0  1.018447  0  0  0.087817  0.135282  0  1.020897  0
H  H13  1  0.47781891  0.71583759  0.64323223  1  0  0.095927  0  0.991351  0  0  0.109575  0  1.068035  0  0  0.110955  0  1.067776  0  0  0.077248  0.108648  0  1.068177  0
H  H14  1  0.52330459  0.28224425  0.35899257  1  0  0.093977  0  0.993513  0  0  0.10751  0  1.07016  0  0  0.109088  0  1.069787  0  0  0.075993  0.10642  0  1.070414  0
H  H15  1  0.59935976  0.69276440  0.77678000  1  0  0.137775  0  0.950762  0  0  0.156548  0  1.012605  0  0  0.157675  0  1.012813  0  0  0.097255  0.155533  0  1.012696  0
H  H16  1  0.39098713  0.30530859  0.22800022  1  0  0.137412  0  0.950285  0  0  0.156371  0  1.011002  0  0  0.15765  0  1.011197  0  0  0.097098  0.155266  0  1.011079  0
Pd  Pd17  1  0.51657952  0.01704794  0.00269531  1  0  0.158582  0  3.577995  0  0  0.145406  0  4.137349  0  0  0.148425  0  4.09323  0  0  0.635133  0.144319  0  4.169903  0
C  C18  1  0.70977078  0.81699593  0.99726472  1  0  0.034538  0  3.466558  0  0  0.016695  0  3.812887  0  0  0.030166  0  3.814124  0  0  -0.02743  0.007468  0  3.812621  0
C  C19  1  0.31021816  0.20367496  0.00609571  1  0  0.038622  0  3.475612  0  0  0.021917  0  3.820593  0  0  0.035044  0  3.822853  0  0  -0.025171  0.012964  0  3.819551  0
C  C20  1  0.32803353  0.82261907  0.98663436  1  0  0.020816  0  3.562785  0  0  0.011825  0  3.908121  0  0  0.01694  0  3.917395  0  0  -0.029007  0.008448  0  3.901924  0
C  C21  1  0.70623695  0.21317373  0.01706100  1  0  0.020089  0  3.448392  0  0  -0.00564  0  3.805008  0  0  0.009447  0  3.805252  0  0  -0.033683  -0.016203  0  3.80562  0
C  C22  1  0.11430257  0.62936795  0.34904271  1  0  0.084868  0  3.706731  0  0  0.015295  0  3.989247  0  0  0.033538  0  4.008457  0  0  0.137133  0.010649  0  3.977623  0
C  C23  1  0.88061255  0.36672466  0.65271607  1  0  0.082871  0  3.701565  0  0  0.015296  0  3.983931  0  0  0.03258  0  4.003046  0  0  0.137485  0.010755  0  3.972242  0
C  C24  1  0.30626736  0.14213295  0.59018090  1  0  -0.061914  0  3.840294  0  0  -0.047062  0  4.113463  0  0  -0.054668  0  4.140647  0  0  -0.034359  -0.041961  0  4.095151  0
C  C25  1  0.69332499  0.85423656  0.40767310  1  0  -0.06315  0  3.842053  0  0  -0.047881  0  4.115015  0  0  -0.05542  0  4.141849  0  0  -0.034322  -0.042812  0  4.097111  0
C  C26  1  0.24150436  0.97534646  0.50969030  1  0  0.090289  0  3.775819  0  0  0.049033  0  4.05968  0  0  0.061707  0  4.066799  0  0  0.057429  0.040547  0  4.05282  0
C  C27  1  0.75923936  0.02070694  0.48814329  1  0  0.09193  0  3.770533  0  0  0.049872  0  4.054235  0  0  0.062791  0  4.061348  0  0  0.057754  0.040954  0  4.047731  0
C  C28  1  0.10456621  0.78118242  0.21717195  1  0  0.141385  0  3.581819  0  0  0.067647  0  3.846642  0  0  0.091089  0  3.862375  0  0  0.170249  0.058292  0  3.839284  0
C  C29  1  0.88974032  0.20888738  0.78159532  1  0  0.14127  0  3.575947  0  0  0.069502  0  3.838476  0  0  0.092136  0  3.853822  0  0  0.170247  0.060076  0  3.831296  0
C  C30  1  0.41787443  0.34883890  0.76227241  1  0  -0.133102  0  3.693454  0  0  -0.160058  0  3.953238  0  0  -0.166487  0  3.97623  0  0  -0.100811  -0.155957  0  3.938167  0
C  C31  1  0.57659735  0.64735260  0.23657623  1  0  -0.130803  0  3.68773  0  0  -0.157679  0  3.9462  0  0  -0.164124  0  3.969431  0  0  -0.099968  -0.153551  0  3.93101  0
C  C32  1  0.41586098  0.46463140  0.68947687  1  0  0.120093  0  3.668915  0  0  0.140203  0  3.93705  0  0  0.143914  0  3.959655  0  0  0.00382  0.137518  0  3.921942  0
C  C33  1  0.57943179  0.53244822  0.30998923  1  0  0.11684  0  3.672098  0  0  0.138663  0  3.938194  0  0  0.142025  0  3.961205  0  0  0.003115  0.136179  0  3.922811  0
C  C34  1  0.35644093  0.16682726  0.70645635  1  0  -0.077146  0  3.726253  0  0  -0.110307  0  3.996252  0  0  -0.106675  0  4.015215  0  0  -0.090131  -0.112602  0  3.983591  0
C  C35  1  0.64065229  0.82898935  0.29153070  1  0  -0.072176  0  3.721557  0  0  -0.105394  0  3.989287  0  0  -0.101591  0  4.00824  0  0  -0.088994  -0.107851  0  3.976569  0
C  C36  1  0.46392961  0.66581772  0.71786128  1  0  -0.347265  0  3.743794  0  0  -0.427067  0  3.979719  0  0  -0.429589  0  3.990076  0  0  -0.246742  -0.42493  0  3.972692  0
C  C37  1  0.53014594  0.33169532  0.28319793  1  0  -0.345383  0  3.74794  0  0  -0.425191  0  3.984274  0  0  -0.427734  0  3.99429  0  0  -0.248285  -0.423034  0  3.977502  0
S  S38  1  0.33851413  0.34750733  0.55153292  1  0  0.051152  0  2.582839  0  0  0.05982  0  2.904778  0  0  0.055973  0  2.913604  0  0  0.07902  0.061897  0  2.899444  0
S  S39  1  0.66007063  0.65005243  0.44739874  1  0  0.050353  0  2.586361  0  0  0.058021  0  2.908222  0  0  0.054291  0  2.916942  0  0  0.07795  0.059922  0  2.903004  0
N  N40  1  0.81004839  0.68686295  0.99326747  1  0  -0.333547  0  3.305289  0  0  -0.301423  0  3.621391  0  0  -0.319205  0  3.630287  0  0  -0.38895  -0.290717  0  3.614181  0
N  N41  1  0.18691084  0.31357352  0.00804774  1  0  -0.333518  0  3.316905  0  0  -0.301889  0  3.633259  0  0  -0.320186  0  3.642807  0  0  -0.388998  -0.290781  0  3.625504  0
N  N42  1  0.05798134  0.60570036  0.16945329  1  0  -0.150721  0  3.252569  0  0  -0.110678  0  3.557003  0  0  -0.131288  0  3.571211  0  0  -0.218218  -0.097254  0  3.544846  0
N  N43  1  0.93102280  0.38467068  0.83173800  1  0  -0.145562  0  3.255492  0  0  -0.105926  0  3.560114  0  0  -0.126673  0  3.574618  0  0  -0.218089  -0.092593  0  3.548102  0
N  N44  1  0.06314350  0.50927851  0.25216022  1  0  -0.187377  0  2.887037  0  0  -0.1712  0  3.169714  0  0  -0.177544  0  3.182715  0  0  -0.209504  -0.166467  0  3.158296  0
N  N45  1  0.92636422  0.48493773  0.75094376  1  0  -0.186955  0  2.881572  0  0  -0.172985  0  3.166748  0  0  -0.178697  0  3.179191  0  0  -0.210033  -0.168741  0  3.15602  0
N  N46  1  0.14256731  0.80240399  0.33125434  1  0  0.012432  0  3.661847  0  0  0.130359  0  3.848183  0  0  0.086869  0  3.912684  0  0  -0.125294  0.139185  0  3.829882  0
N  N47  1  0.85545212  0.19118556  0.66782741  1  0  0.016218  0  3.660671  0  0  0.131018  0  3.849835  0  0  0.090283  0  3.911412  0  0  -0.125461  0.139724  0  3.831562  0
N  N48  1  0.22025945  0.70353271  0.97815116  1  0  -0.349493  0  2.92047  0  0  -0.318592  0  3.194613  0  0  -0.335345  0  3.210554  0  0  -0.325466  -0.307023  0  3.183189  0
N  N49  1  0.81395647  0.32911714  0.01804146  1  0  -0.317781  0  3.377674  0  0  -0.2839  0  3.701598  0  0  -0.304388  0  3.711271  0  0  -0.396042  -0.271278  0  3.693673  0
N  N50  1  0.20001159  0.97078626  0.40275106  1  0  -0.231168  0  2.967216  0  0  -0.232847  0  3.24259  0  0  -0.228717  0  3.260128  0  0  -0.221871  -0.228425  0  3.23432  0
N  N51  1  0.80044419  0.02360936  0.59484865  1  0  -0.233643  0  2.972903  0  0  -0.234148  0  3.249909  0  0  -0.23093  0  3.266893  0  0  -0.222347  -0.229761  0  3.2419  0
