# generated using pymatgen
data_MnH2(CO2)2
_symmetry_space_group_name_H-M   'P 1'
_cell_length_a   5.74687979
_cell_length_b   7.56090910
_cell_length_c   9.50151924
_cell_angle_alpha   89.99998415
_cell_angle_beta   89.99993852
_cell_angle_gamma   90.00130454
_symmetry_Int_Tables_number   1
_chemical_formula_structural   MnH2(CO2)2
_chemical_formula_sum   'Mn4 H8 C8 O16'
_cell_volume   412.85655280
_cell_formula_units_Z   4
loop_
 _symmetry_equiv_pos_site_id
 _symmetry_equiv_pos_as_xyz
  1  'x, y, z'
loop_
 _atom_site_type_symbol
 _atom_site_label
 _atom_site_symmetry_multiplicity
 _atom_site_fract_x
 _atom_site_fract_y
 _atom_site_fract_z
 _atom_site_occupancy
 _atom_site_hle17_ddec_charge
 _atom_site_hle17_ddec_spin_density
 _atom_site_hle17_ddec_sum_bond_order
 _atom_site_hle17_magmom
 _atom_site_hse06_10hf_ddec_charge
 _atom_site_hse06_10hf_ddec_spin_density
 _atom_site_hse06_10hf_ddec_sum_bond_order
 _atom_site_hse06_10hf_magmom
 _atom_site_hse06_ddec_charge
 _atom_site_hse06_ddec_spin_density
 _atom_site_hse06_ddec_sum_bond_order
 _atom_site_hse06_magmom
 _atom_site_pbe_cm5_charge
 _atom_site_pbe_ddec_charge
 _atom_site_pbe_ddec_spin_density
 _atom_site_pbe_ddec_sum_bond_order
 _atom_site_pbe_magmom
Mn  Mn0  1  0.25000003  0.50000021  0.39111101  1  1.228271  4.807918  1.663493  4.699  1.063384  4.74184  2.145938  4.57  1.123903  4.775947  2.077074  4.623  0.603742  1.015391  4.708426  2.19663  4.52
Mn  Mn1  1  0.75000167  0.99999999  0.10889287  1  1.228275  4.80791  1.663601  4.699  1.063461  4.741807  2.146055  4.57  1.123994  4.77592  2.077191  4.623  0.603725  1.015471  4.708378  2.196754  4.52
Mn  Mn2  1  0.74999811  0.49999929  0.60888865  1  1.228314  4.807914  1.663446  4.699  1.063439  4.741835  2.145882  4.57  1.123959  4.775943  2.077016  4.623  0.603765  1.015443  4.708422  2.196579  4.52
Mn  Mn3  1  0.24999920  0.00000072  0.89110689  1  1.228271  4.807909  1.663591  4.699  1.063457  4.741806  2.146051  4.57  1.12399  4.775923  2.077187  4.623  0.603728  1.015466  4.70838  2.196747  4.52
H  H4  1  0.31980962  0.83614952  0.58974234  1  0.0099  -6.5e-05  0.949329  0.001  0.018545  0.000576  1.020278  0.001  0.018418  5e-05  1.015779  0.001  0.118547  0.018439  0.001175  1.023825  0.001
H  H5  1  0.81981204  0.66385978  0.91026252  1  0.009817  -7.8e-05  0.949132  0.001  0.018342  0.000577  1.02023  0.001  0.018217  5e-05  1.015724  0.001  0.118465  0.018237  0.001176  1.023772  0.001
H  H6  1  0.18019182  0.16384818  0.58974140  1  0.009871  -9.4e-05  0.949316  0.001  0.018515  0.000577  1.020272  0.001  0.018387  5.1e-05  1.015772  0.001  0.118533  0.018409  0.001176  1.023817  0.001
H  H7  1  0.68018712  0.33614002  0.91026260  1  0.0098  -8.7e-05  0.949127  0.001  0.018336  0.000577  1.020218  0.001  0.018212  5e-05  1.015709  0.001  0.118464  0.018232  0.001176  1.023758  0.001
H  H8  1  0.68019200  0.16385131  0.41025732  1  0.009882  -6.4e-05  0.94934  0.001  0.018517  0.000576  1.020308  0.001  0.018387  5.1e-05  1.015811  0.001  0.118538  0.018411  0.001175  1.023856  0.001
H  H9  1  0.18019132  0.33614105  0.08973714  1  0.00987  -7.3e-05  0.949194  0.001  0.018398  0.000577  1.020279  0.001  0.018273  5e-05  1.015775  0.001  0.118485  0.018294  0.001176  1.023818  0.001
H  H10  1  0.81980980  0.83615132  0.41025615  1  0.009878  -0.000104  0.949312  0.001  0.018535  0.000577  1.020255  0.001  0.018408  5.1e-05  1.015755  0.001  0.118525  0.018427  0.001176  1.023803  0.001
H  H11  1  0.31981102  0.66385949  0.08973916  1  0.009822  -9e-05  0.949135  0.001  0.018353  0.000577  1.020226  0.001  0.018228  5e-05  1.015719  0.001  0.118465  0.018249  0.001176  1.023768  0.001
C  C12  1  0.34657676  0.21652320  0.62939500  1  0.612847  0.006774  3.860992  0.008  0.533844  0.014837  4.169981  0.014  0.570383  0.010583  4.161224  0.011  0.17009  0.508025  0.019126  4.175309  0.017
C  C13  1  0.84659494  0.28348116  0.87059206  1  0.612767  0.006756  3.860879  0.008  0.533808  0.014834  4.169869  0.014  0.570357  0.010581  4.161104  0.011  0.170047  0.507994  0.01912  4.175176  0.017
C  C14  1  0.15342461  0.78347713  0.62939501  1  0.612776  0.006691  3.861033  0.008  0.533776  0.014835  4.17002  0.014  0.570317  0.010581  4.161263  0.011  0.170058  0.507958  0.019124  4.17535  0.017
C  C15  1  0.65340602  0.71651733  0.87059102  1  0.612829  0.006734  3.860937  0.008  0.533887  0.014833  4.169904  0.014  0.570427  0.01058  4.161149  0.011  0.17009  0.508069  0.019119  4.17522  0.017
C  C16  1  0.65342312  0.78347630  0.37060466  1  0.612841  0.006812  3.860985  0.008  0.533835  0.014835  4.169968  0.014  0.570372  0.010584  4.161211  0.011  0.170097  0.508019  0.019125  4.175298  0.017
C  C17  1  0.15340668  0.71651834  0.12940866  1  0.612831  0.006776  3.860939  0.008  0.533874  0.014834  4.169916  0.014  0.570423  0.010581  4.161151  0.011  0.170088  0.508059  0.01912  4.175229  0.017
C  C18  1  0.84657353  0.21652370  0.37060360  1  0.612811  0.006717  3.86111  0.008  0.533812  0.014833  4.170098  0.014  0.570349  0.010582  4.16134  0.011  0.170046  0.507993  0.019123  4.17543  0.017
C  C19  1  0.34659386  0.28348482  0.12940864  1  0.612772  0.006735  3.861104  0.008  0.533792  0.014832  4.170084  0.014  0.570335  0.010581  4.161329  0.011  0.170085  0.507976  0.019118  4.175398  0.017
O  O20  1  0.43413928  0.34581400  0.55996922  1  -0.640234  0.056016  2.161159  0.034  -0.553094  0.070796  2.450167  0.044  -0.588613  0.064022  2.434275  0.038  -0.294343  -0.526408  0.077393  2.460257  0.049
O  O21  1  0.93414832  0.15418001  0.94003988  1  -0.64015  0.05603  2.160623  0.034  -0.553011  0.070798  2.449608  0.044  -0.588561  0.064026  2.433734  0.038  -0.294264  -0.526317  0.077395  2.459682  0.049
O  O22  1  0.06586048  0.65418636  0.55996931  1  -0.640195  0.056031  2.161176  0.034  -0.553054  0.070796  2.450189  0.044  -0.588578  0.064022  2.434299  0.038  -0.294319  -0.526364  0.077392  2.460265  0.049
O  O23  1  0.56585426  0.84581713  0.94003888  1  -0.640195  0.056035  2.160735  0.034  -0.55306  0.070795  2.449678  0.044  -0.588589  0.064025  2.43379  0.038  -0.294313  -0.526377  0.077394  2.459792  0.049
O  O24  1  0.56585886  0.65418683  0.44003044  1  -0.640215  0.056022  2.161161  0.034  -0.553092  0.070797  2.450197  0.044  -0.588601  0.064022  2.434293  0.038  -0.294324  -0.526393  0.077393  2.460255  0.049
O  O25  1  0.06585156  0.84581817  0.05996188  1  -0.640205  0.056024  2.160701  0.034  -0.553073  0.070798  2.449694  0.044  -0.588621  0.064025  2.433817  0.038  -0.294328  -0.526372  0.077394  2.459758  0.049
O  O26  1  0.93413766  0.34581182  0.44002930  1  -0.640185  0.056034  2.161185  0.034  -0.553041  0.070795  2.450194  0.044  -0.588547  0.064019  2.434286  0.038  -0.294296  -0.526344  0.077391  2.460259  0.049
O  O27  1  0.43414562  0.15418502  0.05996078  1  -0.640288  0.056029  2.160879  0.034  -0.553045  0.070794  2.449714  0.044  -0.588582  0.064023  2.433834  0.038  -0.294346  -0.526365  0.077393  2.459834  0.049
O  O28  1  0.43927465  0.14755081  0.73615475  1  -0.596623  0.033357  2.079403  0.022  -0.530992  0.042884  2.353836  0.028  -0.562144  0.03738  2.340376  0.023  -0.296161  -0.507765  0.048112  2.362367  0.032
O  O29  1  0.93928113  0.35244196  0.76384593  1  -0.596541  0.033346  2.079918  0.022  -0.530849  0.042877  2.354267  0.028  -0.561993  0.037374  2.340804  0.023  -0.296111  -0.507621  0.048103  2.362782  0.032
O  O30  1  0.06072478  0.85244683  0.73615585  1  -0.596629  0.033376  2.079418  0.022  -0.531011  0.042886  2.353859  0.028  -0.562156  0.037384  2.340392  0.023  -0.296179  -0.507782  0.048113  2.362385  0.032
O  O31  1  0.56071481  0.64755657  0.76384392  1  -0.596592  0.033346  2.079895  0.022  -0.530868  0.042877  2.354198  0.028  -0.56203  0.037373  2.34077  0.023  -0.296098  -0.507642  0.048103  2.36272  0.032
O  O32  1  0.56072523  0.85245001  0.26384491  1  -0.596638  0.033329  2.079388  0.022  -0.53102  0.042886  2.353835  0.028  -0.562167  0.03738  2.340368  0.023  -0.296183  -0.507795  0.048112  2.362365  0.032
O  O33  1  0.06071527  0.64755754  0.23615583  1  -0.596574  0.033338  2.079904  0.022  -0.530853  0.042878  2.354226  0.028  -0.562009  0.037374  2.340789  0.023  -0.296074  -0.507626  0.048103  2.362745  0.032
O  O34  1  0.93927684  0.14755399  0.26384486  1  -0.596642  0.033344  2.079459  0.022  -0.531015  0.042886  2.353892  0.028  -0.562159  0.037382  2.340424  0.023  -0.296159  -0.507786  0.048113  2.362419  0.032
O  O35  1  0.43928507  0.35244294  0.23615469  1  -0.59654  0.033348  2.079879  0.022  -0.530831  0.042876  2.354223  0.028  -0.561987  0.037373  2.340786  0.023  -0.296085  -0.507604  0.048102  2.362745  0.032
