# generated using pymatgen
data_CuH7C9N2
_symmetry_space_group_name_H-M   'P 1'
_cell_length_a   28.04616725
_cell_length_b   29.20565530
_cell_length_c   30.40274565
_cell_angle_alpha   88.38706205
_cell_angle_beta   88.28757972
_cell_angle_gamma   85.05816237
_symmetry_Int_Tables_number   1
_chemical_formula_structural   CuH7C9N2
_chemical_formula_sum   'Cu12 H84 C108 N24'
_cell_volume   24791.26042000
_cell_formula_units_Z   12
loop_
 _symmetry_equiv_pos_site_id
 _symmetry_equiv_pos_as_xyz
  1  'x, y, z'
loop_
 _atom_site_type_symbol
 _atom_site_label
 _atom_site_symmetry_multiplicity
 _atom_site_fract_x
 _atom_site_fract_y
 _atom_site_fract_z
 _atom_site_occupancy
 _atom_site_pbe_bader_charge
 _atom_site_pbe_bader_spin_density
 _atom_site_pbe_cm5_charge
 _atom_site_pbe_ddec_charge
 _atom_site_pbe_ddec_spin_density
 _atom_site_pbe_ddec_sum_bond_order
 _atom_site_pbe_magmom
Cu  Cu0  1  0.75665522  0.23126765  0.15756718  1  0.539263  0  0.485984  0.204146  0  2.122206  0
Cu  Cu1  1  0.83054085  0.23166578  0.23335825  1  0.546928  0  0.489374  0.207637  0  2.126145  0
Cu  Cu2  1  0.76560832  0.14829730  0.22814924  1  0.535955  0  0.483741  0.202747  0  2.113597  0
Cu  Cu3  1  0.79412791  0.80310676  0.84595094  1  0.545427  0  0.48448  0.205656  0  2.11349  0
Cu  Cu4  1  0.88425557  0.79439115  0.77975221  1  0.5434  0  0.485623  0.204571  0  2.117763  0
Cu  Cu5  1  0.82144872  0.88902088  0.78878464  1  0.538135  0  0.485425  0.203146  0  2.129415  0
Cu  Cu6  1  0.20495052  0.21507635  0.83490761  1  0.544127  0  0.485409  0.206993  0  2.117441  0
Cu  Cu7  1  0.12348838  0.20233474  0.76852019  1  0.532524  0  0.484265  0.203103  0  2.12351  0
Cu  Cu8  1  0.21609836  0.13156162  0.76984082  1  0.543538  0  0.48598  0.205291  0  2.116273  0
Cu  Cu9  1  0.22409790  0.76288374  0.13691669  1  0.541181  0  0.48223  0.202993  0  2.108261  0
Cu  Cu10  1  0.15506227  0.74568007  0.21833431  1  0.544823  0  0.485429  0.205372  0  2.120226  0
Cu  Cu11  1  0.22623549  0.82409576  0.22244906  1  0.543537  0  0.484329  0.207393  0  2.106941  0
H  H12  1  0.79379195  0.31014348  0.09349685  1  0.078863  0  0.120134  0.112112  0  0.988537  0
H  H13  1  0.88869303  0.31532153  0.20282872  1  0.084484  0  0.12081  0.11085  0  0.99159  0
H  H14  1  0.68537969  0.08774761  0.19454710  1  0.096218  0  0.1201  0.111714  0  0.988377  0
H  H15  1  0.66935764  0.20480693  0.10380259  1  0.079968  0  0.12013  0.109471  0  0.991892  0
H  H16  1  0.89299694  0.20037293  0.31474551  1  0.09369  0  0.119879  0.108892  0  0.990793  0
H  H17  1  0.81396267  0.08056135  0.30176121  1  0.082932  0  0.120412  0.112588  0  0.988539  0
H  H18  1  0.81738552  0.71500501  0.90750245  1  0.06254  0  0.119905  0.111527  0  0.98895  0
H  H19  1  0.93901026  0.70259064  0.81604400  1  0.086666  0  0.120078  0.110426  0  0.99227  0
H  H20  1  0.74482976  0.96569127  0.82696725  1  0.108602  0  0.120436  0.111994  0  0.987773  0
H  H21  1  0.69469357  0.84278961  0.88935635  1  0.084914  0  0.12018  0.110136  0  0.991257  0
H  H22  1  0.94714365  0.81613312  0.69348035  1  0.088358  0  0.120286  0.110715  0  0.990165  0
H  H23  1  0.87118313  0.94942825  0.71554403  1  0.078091  0  0.120193  0.112321  0  0.987839  0
H  H24  1  0.16532369  0.30862432  0.87906779  1  0.108016  0  0.120248  0.11073  0  0.990821  0
H  H25  1  0.04379391  0.27842510  0.80346409  1  0.093778  0  0.120161  0.111899  0  0.987461  0
H  H26  1  0.30010809  0.06867093  0.81466527  1  0.05549  0  0.120239  0.110537  0  0.992105  0
H  H27  1  0.28367873  0.18219146  0.90414819  1  0.091226  0  0.11975  0.111624  0  0.988261  0
H  H28  1  0.06810785  0.16324770  0.69010987  1  0.100927  0  0.119983  0.111838  0  0.987981  0
H  H29  1  0.20004885  0.07443852  0.68494879  1  0.089969  0  0.120086  0.109794  0  0.991806  0
H  H30  1  0.19247808  0.68793345  0.07126353  1  0.098029  0  0.119552  0.111859  0  0.990358  0
H  H31  1  0.10564186  0.65905134  0.18737470  1  0.081573  0  0.119851  0.109022  0  0.994205  0
H  H32  1  0.30497842  0.89112374  0.19143413  1  0.101997  0  0.119791  0.111438  0  0.988332  0
H  H33  1  0.29970901  0.80929782  0.07527833  1  0.092341  0  0.11977  0.109513  0  0.993376  0
H  H34  1  0.08450158  0.77325777  0.29812738  1  0.10122  0  0.120764  0.113  0  0.988297  0
H  H35  1  0.18885775  0.87288201  0.31040075  1  0.083249  0  0.120826  0.11198  0  0.989448  0
H  H36  1  0.91884071  0.00388688  0.50295324  1  0.068138  0  0.100763  0.112257  0  1.008266  0
H  H37  1  0.06571779  0.95956576  0.53301947  1  0.026596  0  0.100154  0.080386  0  0.994555  0
H  H38  1  0.01151416  0.09603818  0.48910815  1  0.026589  0  0.101328  0.112596  0  1.015608  0
H  H39  1  0.01535974  0.99684443  0.40289699  1  0.060953  0  0.101462  0.115971  0  1.010883  0
H  H40  1  0.98874424  0.49658767  0.09910801  1  0.057519  0  0.101565  0.110537  0  1.021483  0
H  H41  1  0.03745111  0.53637756  0.96830637  1  0.060005  0  0.100117  0.081528  0  0.982514  0
H  H42  1  0.89250651  0.51123177  0.00942617  1  0.063858  0  0.100506  0.111542  0  1.011052  0
H  H43  1  0.99043041  0.40353874  0.00648050  1  0.077753  0  0.101957  0.116066  0  1.012152  0
H  H44  1  0.47564417  0.10164140  0.01588683  1  0.05045  0  0.101292  0.111668  0  1.015377  0
H  H45  1  0.45576929  0.96338155  0.97643445  1  0.037154  0  0.100154  0.080793  0  0.993286  0
H  H46  1  0.48578951  0.00389238  0.10803002  1  0.033512  0  0.100133  0.11081  0  1.011523  0
H  H47  1  0.58914930  0.00935074  0.01832134  1  0.049571  0  0.101642  0.115572  0  1.012676  0
H  H48  1  0.93233270  0.36951624  0.15653311  1  0.032727  0  0.094637  0.091619  0  0.99791  0
H  H49  1  0.98033341  0.41514598  0.10811516  1  0.063223  0  0.096837  0.094811  0  0.994521  0
H  H50  1  0.86285163  0.37124312  0.08008495  1  0.038397  0  0.098568  0.097558  0  0.997359  0
H  H51  1  0.88899586  0.44150034  0.05646567  1  0.066361  0  0.095024  0.094209  0  1.008647  0
H  H52  1  0.97407799  0.64078823  0.86875098  1  0.04443  0  0.093836  0.091223  0  0.997293  0
H  H53  1  0.00760189  0.58345632  0.92025378  1  0.043686  0  0.092479  0.085206  0  1.017147  0
H  H54  1  0.88297788  0.64384144  0.92783810  1  0.050276  0  0.09787  0.096857  0  1.000766  0
H  H55  1  0.90375835  0.57422384  0.95266076  1  0.028561  0  0.097483  0.097646  0  1.001031  0
H  H56  1  0.11400934  0.38673015  0.89539800  1  0.057457  0  0.097465  0.097792  0  0.989208  0
H  H57  1  0.00659227  0.39816413  0.92512820  1  0.036838  0  0.09595  0.089963  0  1.00116  0
H  H58  1  0.02317205  0.34164454  0.87145997  1  0.046128  0  0.098256  0.097491  0  0.993144  0
H  H59  1  0.08795478  0.45914105  0.94246657  1  0.042753  0  0.095961  0.097732  0  0.998341  0
H  H60  1  0.09449427  0.58670568  0.15191558  1  0.007785  0  0.093288  0.088451  0  1.001471  0
H  H61  1  0.05554351  0.52875652  0.11934160  1  0.022868  0  0.094645  0.089615  0  1.000005  0
H  H62  1  0.12459717  0.62250103  0.06009272  1  0.009974  0  0.098795  0.099549  0  0.994081  0
H  H63  1  0.06646647  0.57784722  0.02922388  1  0.030587  0  0.095885  0.094162  0  1.005243  0
H  H64  1  0.60814762  0.16264503  0.06706020  1  0.046485  0  0.094673  0.091848  0  0.998037  0
H  H65  1  0.56272627  0.11380031  0.02380238  1  0.040614  0  0.096701  0.094853  0  0.992581  0
H  H66  1  0.61976705  0.07906733  0.13079664  1  0.038954  0  0.098693  0.097245  0  0.998435  0
H  H67  1  0.54696294  0.05821537  0.10960118  1  0.068196  0  0.094923  0.093909  0  1.00969  0
H  H68  1  0.35620380  0.86403075  0.03931466  1  0.039422  0  0.09374  0.090637  0  0.99875  0
H  H69  1  0.40755882  0.91804922  0.00569809  1  -0.005493  0  0.092388  0.08565  0  1.017121  0
H  H70  1  0.36406565  0.91690293  0.12451421  1  0.063328  0  0.097617  0.096333  0  1.002211  0
H  H71  1  0.43034895  0.94194924  0.10034027  1  0.003003  0  0.097128  0.096394  0  1.003044  0
H  H72  1  0.61671935  0.89489081  0.90794262  1  0.052909  0  0.097343  0.097874  0  0.989688  0
H  H73  1  0.60456101  0.99587089  0.93918735  1  0.082224  0  0.096457  0.091172  0  1.000707  0
H  H74  1  0.67008341  0.98159890  0.88913528  1  0.030212  0  0.098067  0.096838  0  0.993688  0
H  H75  1  0.53791011  0.91787086  0.95249566  1  0.048235  0  0.096106  0.097997  0  0.999048  0
H  H76  1  0.35564938  0.02866063  0.87236291  1  0.038702  0  0.094311  0.091927  0  0.997079  0
H  H77  1  0.40830867  0.99317169  0.92773548  1  0.061253  0  0.092735  0.085825  0  1.016306  0
H  H78  1  0.34888879  0.11382635  0.93016588  1  0.046329  0  0.097786  0.096102  0  1.00242  0
H  H79  1  0.41708200  0.09198450  0.95722679  1  0.056354  0  0.097667  0.09794  0  1.002505  0
H  H80  1  0.94539424  0.15224753  0.36414962  1  0.059452  0  0.094674  0.091098  0  0.997602  0
H  H81  1  0.99898833  0.10293675  0.40979259  1  0.024747  0  0.097223  0.09585  0  0.99229  0
H  H82  1  0.88366097  0.07017927  0.36499036  1  0.067625  0  0.098745  0.097773  0  0.997231  0
H  H83  1  0.91133231  0.05051198  0.43514620  1  0.037048  0  0.094957  0.093856  0  1.009062  0
H  H84  1  0.15826905  0.02954141  0.62752720  1  0.026646  0  0.0943  0.092319  0  0.996547  0
H  H85  1  0.11142923  0.99041616  0.57505029  1  0.044106  0  0.093439  0.087167  0  1.013994  0
H  H86  1  0.07251536  0.10239312  0.62335794  1  0.056053  0  0.097934  0.097001  0  1.001209  0
H  H87  1  0.07141765  0.08893531  0.55037973  1  0.013762  0  0.097153  0.097512  0  1.001557  0
H  H88  1  0.14603328  0.88488873  0.39088701  1  0.040696  0  0.097363  0.097567  0  0.989303  0
H  H89  1  0.03619150  0.90863464  0.40296246  1  0.063912  0  0.095872  0.090267  0  1.000937  0
H  H90  1  0.05631303  0.84877517  0.35277590  1  0.043997  0  0.098223  0.097754  0  0.991936  0
H  H91  1  0.11858474  0.93446857  0.45952933  1  0.051389  0  0.096609  0.099262  0  0.995438  0
H  H92  1  0.99950624  0.86084168  0.63579322  1  0.05922  0  0.094819  0.093246  0  0.99591  0
H  H93  1  0.03813113  0.90945931  0.57879399  1  0.050904  0  0.094376  0.088927  0  1.011273  0
H  H94  1  0.92979574  0.94765328  0.64274054  1  0.074955  0  0.097627  0.096243  0  1.002489  0
H  H95  1  0.93418777  0.95050814  0.56860988  1  0.023124  0  0.096706  0.096239  0  1.004249  0
C  C96  1  0.81293547  0.30575649  0.12404910  1  0.402336  0  0.006412  -0.058566  0  3.955516  0
C  C97  1  0.85211301  0.32827543  0.13772768  1  0.019368  0  -0.040259  0.012133  0  4.135654  0
C  C98  1  0.86155241  0.30856818  0.17973805  1  0.451217  0  0.008023  -0.051539  0  3.939527  0
C  C99  1  0.68759405  0.11975722  0.17583898  1  0.373899  0  0.006921  -0.057471  0  3.954115  0
C  C100  1  0.66084426  0.13685080  0.13958849  1  0.027202  0  -0.040559  0.010276  0  4.136615  0
C  C101  1  0.67912148  0.17944945  0.12945558  1  0.412847  0  0.008046  -0.049458  0  3.93703  0
C  C102  1  0.86931996  0.17474544  0.30611059  1  0.399914  0  0.008741  -0.049023  0  3.937518  0
C  C103  1  0.86588196  0.12981225  0.32326034  1  0.046497  0  -0.039628  0.011951  0  4.138642  0
C  C104  1  0.82874055  0.11373055  0.29940274  1  0.404869  0  0.006163  -0.058808  0  3.954626  0
C  C105  1  0.84378149  0.71834470  0.88101488  1  0.428144  0  0.005401  -0.059677  0  3.954165  0
C  C106  1  0.88706424  0.69133474  0.87296664  1  0.039486  0  -0.038991  0.015236  0  4.135456  0
C  C107  1  0.90610560  0.71191055  0.83456748  1  0.397144  0  0.007974  -0.052062  0  3.935464  0
C  C108  1  0.73890420  0.93116528  0.83883279  1  0.384654  0  0.006744  -0.056342  0  3.951713  0
C  C109  1  0.70193276  0.91632755  0.86665125  1  0.037056  0  -0.040144  0.012467  0  4.138232  0
C  C110  1  0.71279229  0.86836055  0.87021982  1  0.389529  0  0.00883  -0.049214  0  3.936772  0
C  C111  1  0.92490693  0.84583433  0.70509746  1  0.400693  0  0.00863  -0.051757  0  3.933273  0
C  C112  1  0.92062111  0.89142056  0.68827409  1  0.030345  0  -0.040307  0.015249  0  4.135736  0
C  C113  1  0.88575881  0.91375709  0.71635881  1  0.419203  0  0.006349  -0.058942  0  3.956252  0
C  C114  1  0.14053116  0.29586650  0.85657308  1  0.333324  0  0.008626  -0.049947  0  3.937649  0
C  C115  1  0.09202106  0.31041300  0.84984142  1  0.042932  0  -0.040678  0.013044  0  4.136919  0
C  C116  1  0.07825946  0.27986327  0.81848673  1  0.408811  0  0.00715  -0.055943  0  3.951058  0
C  C117  1  0.29043962  0.10014812  0.83215355  1  0.442076  0  0.007741  -0.052076  0  3.93421  0
C  C118  1  0.30738531  0.11505587  0.87205889  1  0.057391  0  -0.039202  0.014775  0  4.136823  0
C  C119  1  0.28199129  0.15834311  0.87759419  1  0.375826  0  0.006245  -0.058489  0  3.956652  0
C  C120  1  0.10312934  0.14521339  0.69496274  1  0.377228  0  0.006327  -0.057914  0  3.954829  0
C  C121  1  0.12633299  0.10867352  0.67113452  1  -0.010078  0  -0.040162  0.012744  0  4.138743  0
C  C122  1  0.17031536  0.09959012  0.69227844  1  0.442356  0  0.008253  -0.049736  0  3.935293  0
C  C123  1  0.17453448  0.68670320  0.10334662  1  0.389268  0  0.004314  -0.062208  0  3.955077  0
C  C124  1  0.14069517  0.65693727  0.11934826  1  -0.024524  0  -0.038442  0.014354  0  4.132528  0
C  C125  1  0.13066108  0.67138916  0.16279980  1  0.481168  0  0.007424  -0.051373  0  3.938955  0
C  C126  1  0.29802132  0.86665837  0.16665709  1  0.387104  0  0.006518  -0.057692  0  3.953817  0
C  C127  1  0.31778647  0.86225845  0.12367999  1  0.039954  0  -0.039482  0.013651  0  4.139477  0
C  C128  1  0.29543529  0.82512087  0.10717039  1  0.383482  0  0.007219  -0.051824  0  3.935797  0
C  C129  1  0.11469934  0.79415565  0.29536418  1  0.376539  0  0.005434  -0.059429  0  3.954365  0
C  C130  1  0.12489588  0.83141546  0.32085576  1  0.024807  0  -0.039953  0.014503  0  4.134369  0
C  C131  1  0.16848999  0.84445970  0.30228871  1  0.425314  0  0.007407  -0.052292  0  3.938203  0
C  C132  1  0.98199783  0.03121350  0.46436674  1  0.035986  0  -0.003761  0.182243  0  3.894162  0
C  C133  1  0.95776774  0.00199020  0.49946688  1  -0.018516  0  -0.09235  -0.208009  0  3.802105  0
C  C134  1  0.98802881  0.97535107  0.52524568  1  -0.095338  0  -0.017726  0.08507  0  4.012407  0
C  C135  1  0.04087078  0.98109021  0.51258281  1  0.006551  0  -0.064626  -0.070633  0  3.788219  0
C  C136  1  0.01547102  0.05859450  0.49049927  1  -0.00726  0  -0.092599  -0.208357  0  3.796768  0
C  C137  1  0.04582232  0.03284978  0.51687281  1  -0.035184  0  -0.020519  0.078558  0  4.024232  0
C  C138  1  0.01594768  0.99667406  0.43867874  1  -0.071892  0  -0.093492  -0.206974  0  3.800097  0
C  C139  1  0.04673350  0.97004662  0.46359164  1  -0.025588  0  -0.019635  0.082123  0  4.002104  0
C  C140  1  0.95794010  0.46970790  0.03756595  1  0.036562  0  -0.003239  0.182603  0  3.898732  0
C  C141  1  0.99211126  0.49652211  0.06336610  1  -0.062638  0  -0.092757  -0.202888  0  3.792263  0
C  C142  1  0.02154959  0.52155257  0.03844598  1  -0.006814  0  -0.020029  0.076647  0  3.998515  0
C  C143  1  0.01354445  0.51655971  0.98892332  1  -0.019535  0  -0.066031  -0.079411  0  3.800573  0
C  C144  1  0.93150683  0.50638269  0.00829873  1  -0.097999  0  -0.092774  -0.207375  0  3.802212  0
C  C145  1  0.96006757  0.53125165  0.98203164  1  -0.008245  0  -0.018222  0.08063  0  4.020654  0
C  C146  1  0.99061578  0.44079239  0.00544049  1  -0.034854  0  -0.094405  -0.208616  0  3.799109  0
C  C147  1  0.01956733  0.46494398  0.97934039  1  -0.070434  0  -0.018728  0.085671  0  3.999813  0
C  C148  1  0.51704251  0.03854390  0.04673450  1  0.043876  0  -0.003979  0.18247  0  3.896669  0
C  C149  1  0.48143079  0.06429132  0.01555757  1  -0.043918  0  -0.090286  -0.204269  0  3.793413  0
C  C150  1  0.45843960  0.03713386  0.98934218  1  -0.004643  0  -0.017372  0.082266  0  4.014849  0
C  C151  1  0.47383483  0.98575986  0.99753691  1  -0.012708  0  -0.064139  -0.072142  0  3.787811  0
C  C152  1  0.48765927  0.00430840  0.07214965  1  -0.090974  0  -0.094053  -0.209707  0  3.804566  0
C  C153  1  0.46411909  0.97660721  0.04693796  1  0.040399  0  -0.019433  0.079962  0  4.021522  0
C  C154  1  0.55059588  0.00831771  0.01630135  1  -0.074053  0  -0.093487  -0.206297  0  3.795831  0
C  C155  1  0.52846798  0.98109223  0.98982638  1  0.005943  0  -0.018204  0.084359  0  3.999487  0
C  C156  1  0.87704860  0.36192134  0.11256997  1  -0.055629  0  -0.095285  -0.118959  0  4.042713  0
C  C157  1  0.91683809  0.38081151  0.12502194  1  -0.026449  0  -0.108074  -0.105055  0  4.06736  0
C  C158  1  0.94296598  0.41346272  0.09917441  1  -0.089794  0  -0.104634  -0.096237  0  4.088727  0
C  C159  1  0.92649432  0.44094387  0.06558397  1  -0.079971  0  -0.095747  -0.144686  0  3.895505  0
C  C160  1  0.90617343  0.65316455  0.90002322  1  -0.035195  0  -0.097842  -0.123485  0  4.035685  0
C  C161  1  0.95001108  0.62974855  0.89521284  1  -0.058999  0  -0.109059  -0.104512  0  4.074715  0
C  C162  1  0.96895801  0.59215441  0.92320496  1  -0.055153  0  -0.106839  -0.098833  0  4.071778  0
C  C163  1  0.94275367  0.56710914  0.95198484  1  -0.012351  0  -0.098766  -0.137061  0  4.044224  0
C  C164  1  0.06167939  0.34533817  0.87215662  1  -0.040508  0  -0.096554  -0.125049  0  4.042708  0
C  C165  1  0.07602365  0.38056642  0.89547280  1  -0.061504  0  -0.106701  -0.105618  0  4.087737  0
C  C166  1  0.04323200  0.40852499  0.92253549  1  -0.059116  0  -0.10109  -0.087034  0  4.093497  0
C  C167  1  0.05312603  0.44496702  0.94666279  1  0.012937  0  -0.100532  -0.14801  0  4.0196  0
C  C168  1  0.12000073  0.62142839  0.09597239  1  -0.04633  0  -0.097157  -0.123473  0  4.025915  0
C  C169  1  0.09509075  0.58823718  0.11587108  1  0.050958  0  -0.107647  -0.105118  0  4.085958  0
C  C170  1  0.06814374  0.55474248  0.09618963  1  -0.071886  0  -0.102906  -0.087406  0  4.061823  0
C  C171  1  0.05422872  0.55293181  0.05370367  1  -0.01083  0  -0.097155  -0.134686  0  4.005898  0
C  C172  1  0.62539065  0.11349231  0.11760012  1  -0.025723  0  -0.094932  -0.117559  0  4.043319  0
C  C173  1  0.60095271  0.12916695  0.08163162  1  -0.042455  0  -0.108403  -0.105957  0  4.064974  0
C  C174  1  0.56776406  0.10357190  0.05845110  1  -0.043618  0  -0.105077  -0.096853  0  4.088392  0
C  C175  1  0.54423585  0.06820042  0.07474442  1  -0.100324  0  -0.095929  -0.144646  0  3.895732  0
C  C176  1  0.35223449  0.89066666  0.10331926  1  -0.014216  0  -0.097597  -0.122575  0  4.037745  0
C  C177  1  0.36990873  0.88866952  0.06118035  1  -0.084003  0  -0.108866  -0.103888  0  4.073036  0
C  C178  1  0.40449867  0.91766585  0.04164238  1  -0.00394  0  -0.108088  -0.101364  0  4.069067  0
C  C179  1  0.43238950  0.94425578  0.06432673  1  -0.019644  0  -0.098245  -0.134806  0  4.04257  0
C  C180  1  0.66449626  0.94497297  0.88838590  1  -0.023658  0  -0.096561  -0.123505  0  4.042336  0
C  C181  1  0.62453483  0.93091589  0.90936832  1  -0.028898  0  -0.107266  -0.107551  0  4.090579  0
C  C182  1  0.59333028  0.96117186  0.93563064  1  -0.083648  0  -0.101285  -0.087044  0  4.093513  0
C  C183  1  0.55260325  0.95076667  0.95787092  1  -0.055267  0  -0.101145  -0.14902  0  4.020762  0
C  C184  1  0.34174210  0.09322510  0.90197814  1  -0.038375  0  -0.097618  -0.122997  0  4.038856  0
C  C185  1  0.36469887  0.05041728  0.89908661  1  -0.014497  0  -0.108853  -0.104715  0  4.073228  0
C  C186  1  0.40006981  0.03038040  0.92920110  1  -0.0407  0  -0.10629  -0.097969  0  4.070776  0
C  C187  1  0.42389679  0.05449069  0.95793235  1  -0.116437  0  -0.098049  -0.136499  0  4.045219  0
C  C188  1  0.89425188  0.10452469  0.35615110  1  -0.056549  0  -0.095431  -0.119806  0  4.045315  0
C  C189  1  0.93314795  0.11912616  0.37513882  1  -0.082875  0  -0.107717  -0.103624  0  4.066143  0
C  C190  1  0.96212242  0.09353511  0.40777804  1  0.009548  0  -0.105518  -0.097549  0  4.088188  0
C  C191  1  0.94837125  0.05963515  0.43504344  1  -0.07924  0  -0.095015  -0.143462  0  3.89868  0
C  C192  1  0.10701445  0.08668433  0.63457549  1  -0.074329  0  -0.097081  -0.123436  0  4.042318  0
C  C193  1  0.12591007  0.04799907  0.61443345  1  0.028541  0  -0.108404  -0.104899  0  4.072403  0
C  C194  1  0.10415400  0.02760346  0.57810870  1  -0.05419  0  -0.105653  -0.096927  0  4.068576  0
C  C195  1  0.07490461  0.05137154  0.54885277  1  -0.019377  0  -0.09871  -0.139013  0  4.048263  0
C  C196  1  0.09453037  0.85349965  0.35460155  1  -0.019728  0  -0.096344  -0.124782  0  4.040872  0
C  C197  1  0.10796247  0.88121632  0.38638674  1  -0.031914  0  -0.106676  -0.105147  0  4.086696  0
C  C198  1  0.07354964  0.90861464  0.41252645  1  -0.019349  0  -0.102451  -0.089549  0  4.095176  0
C  C199  1  0.08261080  0.93618333  0.44609768  1  -0.098516  0  -0.099493  -0.147336  0  4.019114  0
C  C200  1  0.94401473  0.91249843  0.65103616  1  -0.105742  0  -0.098158  -0.125691  0  4.047307  0
C  C201  1  0.98151432  0.89417698  0.62605614  1  -0.017069  0  -0.108258  -0.104957  0  4.068816  0
C  C202  1  0.00020815  0.91723994  0.58737968  1  -0.06805  0  -0.105707  -0.097243  0  4.062511  0
C  C203  1  0.97282145  0.94715297  0.56147273  1  -0.011138  0  -0.098099  -0.14023  0  4.050685  0
N  N204  1  0.83062671  0.27681470  0.18979250  1  -0.771895  0  -0.338409  -0.139483  0  3.776605  0
N  N205  1  0.80030003  0.27505115  0.15525463  1  -0.791999  0  -0.339645  -0.14212  0  3.77427  0
N  N206  1  0.71405596  0.18662255  0.15724364  1  -0.766198  0  -0.336411  -0.138509  0  3.776234  0
N  N207  1  0.71931045  0.14959938  0.18621844  1  -0.762703  0  -0.339141  -0.140944  0  3.772017  0
N  N208  1  0.81174522  0.14633367  0.27027954  1  -0.78326  0  -0.338479  -0.140757  0  3.771624  0
N  N209  1  0.83706760  0.18420059  0.27450554  1  -0.777384  0  -0.339395  -0.14086  0  3.777779  0
N  N210  1  0.87659732  0.74822128  0.82135070  1  -0.776377  0  -0.33684  -0.138974  0  3.771472  0
N  N211  1  0.83775038  0.75223416  0.85017910  1  -0.76831  0  -0.339207  -0.142595  0  3.770497  0
N  N212  1  0.75296173  0.85598865  0.84653417  1  -0.77969  0  -0.336847  -0.140129  0  3.765592  0
N  N213  1  0.76903726  0.89500679  0.82679213  1  -0.774955  0  -0.341401  -0.143173  0  3.779661  0
N  N214  1  0.87070339  0.88399905  0.74730431  1  -0.779922  0  -0.341381  -0.143184  0  3.781247  0
N  N215  1  0.89507381  0.84176895  0.74029497  1  -0.769747  0  -0.336777  -0.137932  0  3.769395  0
N  N216  1  0.11556755  0.24985110  0.80742540  1  -0.769887  0  -0.339691  -0.141696  0  3.778339  0
N  N217  1  0.15419216  0.25957987  0.83137875  1  -0.76685  0  -0.338277  -0.142959  0  3.763769  0
N  N218  1  0.25240351  0.16826715  0.84391380  1  -0.781078  0  -0.340095  -0.14429  0  3.775548  0
N  N219  1  0.25760994  0.13199116  0.81572358  1  -0.782905  0  -0.336619  -0.138488  0  3.7673  0
N  N220  1  0.17263372  0.12826745  0.72593606  1  -0.783072  0  -0.336852  -0.139656  0  3.773292  0
N  N221  1  0.13088396  0.15669916  0.72761135  1  -0.771632  0  -0.340169  -0.142141  0  3.778021  0
N  N222  1  0.15648931  0.70664304  0.17158763  1  -0.785594  0  -0.337772  -0.14035  0  3.773923  0
N  N223  1  0.18396471  0.71612323  0.13472232  1  -0.785886  0  -0.337956  -0.140036  0  3.766341  0
N  N224  1  0.26495709  0.80913659  0.13785117  1  -0.775363  0  -0.334351  -0.136004  0  3.768362  0
N  N225  1  0.26659902  0.83488385  0.17493824  1  -0.769896  0  -0.339751  -0.145524  0  3.773974  0
N  N226  1  0.18271483  0.81721308  0.26846763  1  -0.783913  0  -0.337434  -0.143182  0  3.76439  0
N  N227  1  0.14947908  0.78565519  0.26442878  1  -0.776878  0  -0.339665  -0.140983  0  3.776869  0
