# generated using pymatgen
data_GdCuH24C34NO10
_symmetry_space_group_name_H-M   'P 1'
_cell_length_a   11.20727169
_cell_length_b   11.54557309
_cell_length_c   12.15410521
_cell_angle_alpha   81.58254523
_cell_angle_beta   84.99165003
_cell_angle_gamma   83.00329586
_symmetry_Int_Tables_number   1
_chemical_formula_structural   GdCuH24C34NO10
_chemical_formula_sum   'Gd2 Cu2 H48 C68 N2 O20'
_cell_volume   1540.27655866
_cell_formula_units_Z   2
loop_
 _symmetry_equiv_pos_site_id
 _symmetry_equiv_pos_as_xyz
  1  'x, y, z'
loop_
 _atom_site_type_symbol
 _atom_site_label
 _atom_site_symmetry_multiplicity
 _atom_site_fract_x
 _atom_site_fract_y
 _atom_site_fract_z
 _atom_site_occupancy
 _atom_site_pbe_bader_charge
 _atom_site_pbe_bader_spin_density
 _atom_site_pbe_cm5_charge
 _atom_site_pbe_ddec_charge
 _atom_site_pbe_ddec_spin_density
 _atom_site_pbe_ddec_sum_bond_order
 _atom_site_pbe_magmom
Gd  Gd0  1  0.41816618  0.98135398  0.66917265  1  2.2153  7e-06  1.5084  2.133456  -0.000186  2.272308  0.0
Gd  Gd1  1  0.58183304  0.01864490  0.33082684  1  2.215296  7e-06  1.508397  2.133462  -0.000186  2.272316  0.0
Cu  Cu2  1  0.50000026  0.99999976  0.99999973  1  1.112986  -0.579592  0.732321  0.922299  -0.769047  2.029732  -0.58
Cu  Cu3  1  0.00000003  0.99999976  0.00000013  1  1.019315  0.553878  0.75624  0.70488  0.746946  2.334238  0.553
H  H4  1  0.27622215  0.64782670  0.60225734  1  0.094033  -1e-06  0.104959  0.105693  -2e-06  1.020024  0.0
H  H5  1  0.72377777  0.35217394  0.39774267  1  0.094145  -1e-06  0.104958  0.105683  -2e-06  1.020026  0.0
H  H6  1  0.23166622  0.45341832  0.55496941  1  0.048849  -2e-06  0.096647  0.092578  -1e-06  1.019018  0.0
H  H7  1  0.76833470  0.54658144  0.44503064  1  0.048811  -2e-06  0.096639  0.092576  -1e-06  1.019015  0.0
H  H8  1  0.32989506  0.38133406  0.38228979  1  0.063597  2e-06  0.098641  0.096975  1e-06  1.027218  0.0
H  H9  1  0.67010586  0.61866570  0.61770943  1  0.063595  2e-06  0.098641  0.096987  1e-06  1.027237  0.0
H  H10  1  0.46912790  0.50143341  0.25728393  1  0.061781  2e-06  0.098489  0.093808  1e-05  1.037107  0.0
H  H11  1  0.53087202  0.49856723  0.74271608  1  0.061777  2e-06  0.098486  0.093803  1e-05  1.037104  0.0
H  H12  1  0.50755918  0.69763830  0.30284501  1  0.11883  -9e-06  0.10757  0.116585  -1.2e-05  1.003417  0.0
H  H13  1  0.49244174  0.30236146  0.69715504  1  0.118836  -9e-06  0.107593  0.116634  -1.2e-05  1.003425  0.0
H  H14  1  0.27258586  0.22144098  0.21846097  1  0.112722  -3.9e-05  0.11135  0.124068  -3.4e-05  0.989594  0.0
H  H15  1  0.72741416  0.77855878  0.78153833  1  0.11273  -3.9e-05  0.111337  0.124055  -3.4e-05  0.989608  0.0
H  H16  1  0.09601446  0.35597254  0.14309717  1  0.064929  3e-06  0.099051  0.096223  2.8e-05  1.028278  0.0
H  H17  1  0.90398557  0.64402722  0.85690295  1  0.064926  3e-06  0.099053  0.096219  2.8e-05  1.028277  0.0
H  H18  1  0.92024122  0.41186631  0.27032668  1  0.062396  -5e-06  0.09736  0.089691  -5e-06  1.02921  0.0
H  H19  1  0.07975871  0.58813433  0.72967416  1  0.062394  -6e-06  0.097365  0.0897  -5e-06  1.029184  0.0
H  H20  1  0.92065174  0.33918700  0.47429222  1  0.064138  -9e-06  0.094418  0.088788  -1e-05  1.04834  0.0
H  H21  1  0.07934918  0.66081275  0.52570865  1  0.064158  -9e-06  0.094406  0.08878  -1e-05  1.048333  0.0
H  H22  1  0.09861864  0.20798495  0.54798299  1  0.096379  1e-05  0.099844  0.096904  4e-06  1.050456  0.0
H  H23  1  0.90138228  0.79201481  0.45201624  1  0.096367  1e-05  0.099854  0.096942  4e-06  1.050458  0.0
H  H24  1  0.35568952  0.69564584  0.76504028  1  0.129751  -1.6e-05  0.109933  0.109695  -9e-06  1.038389  0.0
H  H25  1  0.64430871  0.30435392  0.23495917  1  0.129812  -1.6e-05  0.109918  0.10969  -9e-06  1.038391  0.0
H  H26  1  0.28446153  0.49531476  0.78833463  1  0.056957  -0.000214  0.096985  0.093351  -0.000108  1.018832  0.0
H  H27  1  0.71553849  0.50468499  0.21166550  1  0.056963  -0.000214  0.096987  0.093354  -0.000108  1.018834  0.0
H  H28  1  0.26649770  0.37936950  0.97654507  1  0.077485  -1.8e-05  0.094779  0.095991  8e-06  1.034822  0.0
H  H29  1  0.73350233  0.62063026  0.02345506  1  0.077447  -1.8e-05  0.094783  0.095986  8e-06  1.034822  0.0
H  H30  1  0.31660028  0.46222224  0.14263948  1  0.07674  -2.2e-05  0.098751  0.092487  -7e-06  1.027066  0.0
H  H31  1  0.68339974  0.53777752  0.85736065  1  0.076743  -2.2e-05  0.098749  0.092474  -7e-06  1.027079  0.0
H  H32  1  0.38468813  0.66322317  0.11887423  1  0.116024  -0.000375  0.101978  0.102658  -0.000334  1.029699  0.0
H  H33  1  0.61531100  0.33677659  0.88112515  1  0.116015  -0.000375  0.101969  0.102656  -0.000334  1.029685  0.0
H  H34  1  0.23066727  0.24521371  0.69301288  1  0.081586  -2e-05  0.111534  0.10873  1e-06  1.022455  0.0
H  H35  1  0.76933355  0.75478693  0.30698706  1  0.081612  -2e-05  0.111517  0.108708  1e-06  1.022457  0.0
H  H36  1  0.03198685  0.36642378  0.66439839  1  0.076047  -0.000245  0.100507  0.097593  -0.000129  1.013018  0.0
H  H37  1  0.96801308  0.63357685  0.33560245  1  0.076045  -0.000245  0.100489  0.097556  -0.000129  1.013012  0.0
H  H38  1  0.88573063  0.39468758  0.82695591  1  0.061709  1.1e-05  0.100461  0.096463  1.1e-05  1.023823  0.0
H  H39  1  0.11427020  0.60531306  0.17304402  1  0.06171  1.1e-05  0.10045  0.096464  1.1e-05  1.023829  0.0
H  H40  1  0.93716293  0.30479354  0.01761996  1  0.081148  -7.1e-05  0.103461  0.109563  -3.6e-05  0.998553  0.0
H  H41  1  0.06283709  0.69520623  0.98237934  1  0.081144  -7.1e-05  0.103462  0.109561  -3.6e-05  0.998541  0.0
H  H42  1  0.13872863  0.18766879  0.04562445  1  0.074213  -0.000563  0.102158  0.102477  -0.000467  1.040805  0.0
H  H43  1  0.86127149  0.81233009  0.95437496  1  0.074194  -0.000563  0.102173  0.102497  -0.000467  1.040787  0.0
H  H44  1  0.04789665  0.00394786  0.59629363  1  0.107142  0.001766  0.119482  0.128777  0.000958  1.000148  0.001
H  H45  1  0.95210328  0.99605278  0.40370638  1  0.107134  0.001766  0.119473  0.12875  0.000958  1.000175  0.001
H  H46  1  0.83319092  0.08868128  0.55402873  1  0.123065  2e-05  0.119303  0.120788  1.8e-05  0.976079  0.0
H  H47  1  0.16680911  0.91131848  0.44597139  1  0.123264  2.1e-05  0.119303  0.120776  1.8e-05  0.976094  0.0
H  H48  1  0.68639706  0.13402874  0.71444720  1  0.135867  0.000934  0.119604  0.124326  0.000506  1.019851  0.001
H  H49  1  0.31360206  0.86597102  0.28555218  1  0.135874  0.000934  0.119583  0.124285  0.000506  1.019896  0.001
H  H50  1  0.75616391  0.09729944  0.90774082  1  0.189024  0.00213  0.12518  0.111953  0.001011  1.032872  0.002
H  H51  1  0.24383601  0.90270120  0.09225837  1  0.189022  0.00213  0.125164  0.111937  0.001011  1.032824  0.002
C  C52  1  0.41929409  0.79823857  0.48510067  1  1.567482  2e-06  0.233642  0.646824  8e-06  4.167105  0.0
C  C53  1  0.58070593  0.20176119  0.51489863  1  1.567482  2e-06  0.233657  0.646849  8e-06  4.167089  0.0
C  C54  1  0.39347298  0.68325564  0.45523404  1  -0.045764  3.9e-05  -0.020989  -0.053194  2.9e-05  3.980291  0.0
C  C55  1  0.60652704  0.31674411  0.54476608  1  -0.045773  3.9e-05  -0.020976  -0.053131  2.9e-05  3.98026  0.0
C  C56  1  0.31608402  0.61457087  0.52636756  1  -0.025468  2.1e-05  -0.085259  -0.097099  1e-05  3.978296  0.0
C  C57  1  0.68391610  0.38542801  0.47363268  1  -0.025578  2.1e-05  -0.085233  -0.097084  1e-05  3.978305  0.0
C  C58  1  0.29198208  0.50686732  0.49960841  1  -0.056754  -0.0  -0.095234  -0.093951  0.0  4.020144  0.0
C  C59  1  0.70801884  0.49313244  0.50039164  1  -0.05672  -0.0  -0.09524  -0.093932  0.0  4.020115  0.0
C  C60  1  0.34693463  0.46640451  0.40251452  1  -0.037418  7.7e-05  -0.08591  -0.063186  5.1e-05  3.969079  0.0
C  C61  1  0.65306529  0.53359613  0.59748467  1  -0.037424  7.7e-05  -0.085924  -0.063251  5.1e-05  3.96908  0.0
C  C62  1  0.42472379  0.53435631  0.33176485  1  -0.1008  -1.7e-05  -0.090218  -0.084093  -1e-06  4.001719  0.0
C  C63  1  0.57527514  0.46564522  0.66823430  1  -0.100791  -1.7e-05  -0.090227  -0.084072  -1e-06  4.001696  0.0
C  C64  1  0.44728993  0.64315330  0.35718705  1  -0.036785  6.8e-05  -0.081689  -0.093892  5e-05  3.956054  0.0
C  C65  1  0.55271099  0.35684646  0.64281300  1  -0.036777  6.8e-05  -0.081702  -0.093976  5e-05  3.956122  0.0
C  C66  1  0.30010639  0.12822292  0.43357076  1  1.583395  3.1e-05  0.232762  0.644949  1.9e-05  4.178315  0.0
C  C67  1  0.69989284  0.87177596  0.56642873  1  1.583395  3.1e-05  0.232744  0.64492  1.9e-05  4.17844  0.0
C  C68  1  0.19465992  0.20699134  0.38747125  1  -0.040251  8e-06  -0.021931  -0.052108  -4e-06  3.976925  0.0
C  C69  1  0.80534010  0.79300842  0.61252806  1  -0.040244  8e-06  -0.021917  -0.052067  -4e-06  3.976927  0.0
C  C70  1  0.19456884  0.24820450  0.27299436  1  -0.062074  -4.5e-05  -0.082338  -0.095053  -3.6e-05  3.951359  0.0
C  C71  1  0.80543198  0.75179614  0.72700558  1  -0.061944  -4.5e-05  -0.082354  -0.095074  -3.6e-05  3.951246  0.0
C  C72  1  0.09598864  0.32229439  0.23168718  1  -0.089686  5.5e-05  -0.094699  -0.093522  4.9e-05  4.009348  0.0
C  C73  1  0.90401218  0.67770625  0.76831275  1  -0.089733  5.5e-05  -0.094685  -0.093494  4.9e-05  4.009263  0.0
C  C74  1  0.99709233  0.35452644  0.30373160  1  0.001027  -2.4e-05  -0.087286  -0.06819  -1.8e-05  3.988282  0.0
C  C75  1  0.00290770  0.64547332  0.69626852  1  0.000944  -2.4e-05  -0.087263  -0.068177  -1.8e-05  3.988254  0.0
C  C76  1  0.99735875  0.31390345  0.41787251  1  -0.03385  -9e-06  -0.097075  -0.094393  -1.1e-05  4.019222  0.0
C  C77  1  0.00264128  0.68609631  0.58212762  1  -0.033868  -9e-06  -0.097068  -0.094375  -1.1e-05  4.019219  0.0
C  C78  1  0.09609373  0.24061068  0.45941783  1  -0.103294  5e-06  -0.088193  -0.100396  2e-06  3.9794  0.0
C  C79  1  0.90390629  0.75938908  0.54058147  1  -0.103296  5e-06  -0.088208  -0.100469  2e-06  3.979415  0.0
C  C80  1  0.41987647  0.80819033  0.92715875  1  1.557105  0.001243  0.229037  0.630437  0.000119  4.14571  0.003
C  C81  1  0.58012356  0.19180943  0.07284138  1  1.557313  0.001243  0.229041  0.630465  0.000119  4.145642  0.003
C  C82  1  0.37398631  0.69061802  0.94091821  1  -0.024108  -0.007644  -0.017325  -0.038237  -0.005499  3.957151  -0.006
C  C83  1  0.62601381  0.30938086  0.05908120  1  -0.024331  -0.007644  -0.017354  -0.038289  -0.005499  3.957145  -0.006
C  C84  1  0.34565178  0.64403283  0.84734817  1  -0.067978  -0.0007  -0.079007  -0.090794  -0.000476  3.945108  -0.001
C  C85  1  0.65434735  0.35596692  0.15265204  1  -0.068047  -0.0007  -0.07899  -0.090781  -0.000476  3.945086  -0.001
C  C86  1  0.30576730  0.53260811  0.86084048  1  -0.050159  -0.000762  -0.09516  -0.09679  -0.000507  4.020618  -0.001
C  C87  1  0.69423193  0.46739077  0.13915984  1  -0.050104  -0.000762  -0.09518  -0.096828  -0.000507  4.02066  -0.001
C  C88  1  0.29558521  0.46712706  0.96689420  1  -0.086096  0.000291  -0.089234  -0.071206  0.000204  3.982172  0.0
C  C89  1  0.70441482  0.53287270  0.03310592  1  -0.086199  0.000291  -0.089202  -0.071142  0.000204  3.982123  0.0
C  C90  1  0.32382084  0.51365377  0.06007067  1  -0.049836  -9.7e-05  -0.093568  -0.091006  -1.4e-05  4.024801  0.0
C  C91  1  0.67617928  0.48634511  0.93992874  1  -0.04977  -9.7e-05  -0.093566  -0.090995  -1.4e-05  4.024803  0.0
C  C92  1  0.36203665  0.62549008  0.04732732  1  -0.074148  -9.3e-05  -0.081825  -0.091583  -0.000151  3.966044  0.0
C  C93  1  0.63796338  0.37450968  0.95267280  1  -0.074087  -9.3e-05  -0.081825  -0.091596  -0.000151  3.966044  0.0
C  C94  1  0.31432045  0.13531902  0.88672717  1  1.561333  0.001489  0.224116  0.621954  0.000161  4.153639  0.003
C  C95  1  0.68567948  0.86468162  0.11327284  1  1.561339  0.001489  0.224087  0.621958  0.000161  4.153643  0.003
C  C96  1  0.19608865  0.20948765  0.87106488  1  -0.036456  -0.008833  -0.020018  -0.044327  -0.006335  3.968232  -0.007
C  C97  1  0.80391128  0.79051299  0.12893513  1  -0.036444  -0.008833  -0.020028  -0.044334  -0.006335  3.968193  -0.007
C  C98  1  0.16619485  0.25996829  0.76352783  1  -0.015107  -0.000553  -0.081411  -0.099098  -0.000378  3.956415  -0.001
C  C99  1  0.83380597  0.74003235  0.23647211  1  -0.01513  -0.000553  -0.081397  -0.099074  -0.000378  3.956408  -0.001
C  C100  1  0.05496875  0.32677788  0.74804091  1  -0.110447  -0.001185  -0.091951  -0.089642  -0.00077  4.006652  -0.001
C  C101  1  0.94503118  0.67322276  0.25195911  1  -0.110453  -0.001185  -0.09193  -0.08961  -0.00077  4.00663  -0.001
C  C102  1  0.97277036  0.34307412  0.83927402  1  -0.014412  0.000609  -0.083885  -0.060398  0.000443  3.969912  0.0
C  C103  1  0.02722956  0.65692652  0.16072599  1  -0.014157  0.000609  -0.083862  -0.060379  0.000443  3.969891  0.0
C  C104  1  0.00201725  0.29287904  0.94673008  1  -0.073263  -0.000656  -0.091705  -0.091983  -0.000429  4.011302  0.0
C  C105  1  0.99798277  0.70712071  0.05327005  1  -0.073519  -0.000656  -0.091724  -0.092012  -0.000429  4.011313  0.0
C  C106  1  0.11341981  0.22641984  0.96253742  1  -0.033923  -0.0001  -0.095136  -0.141115  -0.000295  4.041848  0.001
C  C107  1  0.88658111  0.77357992  0.03746263  1  -0.033896  -0.0001  -0.095137  -0.14112  -0.000295  4.041824  0.001
C  C108  1  0.13349010  0.95778797  0.80616502  1  1.621679  -0.0012  0.22649  0.568939  0.000683  4.193538  -0.002
C  C109  1  0.86650883  0.04221355  0.19383496  1  1.621685  -0.001199  0.226485  0.568918  0.000683  4.193581  -0.002
C  C110  1  0.00995596  0.00624955  0.77100321  1  0.449772  0.000174  0.111135  0.08693  0.000461  3.969476  0.0
C  C111  1  0.99004406  0.99375021  0.22899692  1  0.449786  0.000174  0.111163  0.086997  0.000461  3.96944  0.0
C  C112  1  0.97892452  0.02554385  0.66113833  1  0.064158  0.002625  -0.064104  -0.114031  0.00197  3.920859  0.002
C  C113  1  0.02107550  0.97445591  0.33886179  1  0.064159  0.002625  -0.064092  -0.114033  0.00197  3.920877  0.002
C  C114  1  0.86121673  0.07261654  0.63917538  1  -0.128128  -0.00314  -0.053688  -0.019162  -0.002107  3.910048  -0.002
C  C115  1  0.13878329  0.92738322  0.36082474  1  -0.128334  -0.00314  -0.053681  -0.01915  -0.002107  3.910054  -0.002
C  C116  1  0.77929444  0.09858747  0.72778196  1  -0.009087  0.006327  -0.061522  -0.095221  0.004412  3.884935  0.005
C  C117  1  0.22070558  0.90141229  0.27221816  1  -0.009083  0.006327  -0.061501  -0.095132  0.004412  3.88488  0.005
C  C118  1  0.81678257  0.07801590  0.83604730  1  0.471929  -0.0006  0.06394  0.116478  0.000429  3.867969  0.0
C  C119  1  0.18321645  0.92198474  0.16395197  1  0.471941  -0.0006  0.063902  0.116382  0.000429  3.868054  0.0
N  N120  1  0.92992105  0.03245461  0.85592664  1  -1.22922  0.081746  -0.355697  -0.252054  0.056477  3.671995  0.07
N  N121  1  0.07007888  0.96754603  0.14407338  1  -1.229238  0.081744  -0.355673  -0.251996  0.056475  3.672086  0.07
O  O122  1  0.38109481  0.82359411  0.58138177  1  -1.189893  3e-06  -0.393808  -0.660649  -6e-06  2.291995  0.0
O  O123  1  0.61890522  0.17640565  0.41861753  1  -1.189908  3e-06  -0.39383  -0.660694  -6e-06  2.29199  0.0
O  O124  1  0.47696292  0.86515100  0.41213616  1  -1.207221  0.000101  -0.408411  -0.706311  5.3e-05  2.377266  0.0
O  O125  1  0.52303790  0.13484964  0.58786378  1  -1.2072  0.000101  -0.408392  -0.706292  5.3e-05  2.377269  0.0
O  O126  1  0.29194916  0.08777340  0.53683884  1  -1.201394  0.000315  -0.396412  -0.681779  0.000255  2.32129  0.0
O  O127  1  0.70805096  0.91222548  0.46316057  1  -1.201402  0.000315  -0.396422  -0.681806  0.000255  2.32132  0.0
O  O128  1  0.39051137  0.10710790  0.36609877  1  -1.203904  4.5e-05  -0.405873  -0.681451  1.6e-05  2.356867  0.0
O  O129  1  0.60948865  0.89289186  0.63390053  1  -1.203898  4.5e-05  -0.405853  -0.681421  1.6e-05  2.356894  0.0
O  O130  1  0.45562939  0.85490390  0.83099506  1  -1.210212  -0.00037  -0.407968  -0.698697  5.8e-05  2.371169  -0.001
O  O131  1  0.54437063  0.14509586  0.16900425  1  -1.21021  -0.000369  -0.40796  -0.698699  5.8e-05  2.371176  -0.001
O  O132  1  0.42294513  0.85509083  0.01619619  1  -1.103369  -0.094304  -0.313563  -0.534839  -0.062394  2.350536  -0.085
O  O133  1  0.57705489  0.14490893  0.98380311  1  -1.103416  -0.094307  -0.313545  -0.534818  -0.062397  2.350443  -0.085
O  O134  1  0.37995436  0.11165482  0.80028911  1  -1.208539  -0.000653  -0.407113  -0.706657  -0.000132  2.355507  -0.001
O  O135  1  0.62004476  0.88834494  0.19971109  1  -1.208555  -0.000653  -0.407114  -0.706663  -0.000132  2.355539  -0.001
O  O136  1  0.34273154  0.10004316  0.98656265  1  -1.098049  -0.096883  -0.307267  -0.522067  -0.064438  2.299808  -0.088
O  O137  1  0.65726759  0.89995659  0.01343756  1  -1.098051  -0.096882  -0.30725  -0.522066  -0.064437  2.299804  -0.088
O  O138  1  0.21732002  0.94094035  0.73329287  1  -1.172821  0.020118  -0.355164  -0.5883  0.013314  2.307687  0.017
O  O139  1  0.78268071  0.05906117  0.26670778  1  -1.172833  0.020118  -0.35517  -0.588288  0.013314  2.307747  0.017
O  O140  1  0.14460636  0.93792111  0.91207239  1  -1.103805  0.112054  -0.304627  -0.503262  0.074567  2.321306  0.101
O  O141  1  0.85539267  0.06207953  0.08792770  1  -1.103816  0.112053  -0.30462  -0.503281  0.074566  2.321247  0.101
