# generated using pymatgen
data_InH4C8O5
_symmetry_space_group_name_H-M   'P 1'
_cell_length_a   12.44806977
_cell_length_b   12.68641860
_cell_length_c   12.68641054
_cell_angle_alpha   76.07015963
_cell_angle_beta   60.61917707
_cell_angle_gamma   60.61849483
_symmetry_Int_Tables_number   1
_chemical_formula_structural   InH4C8O5
_chemical_formula_sum   'In4 H16 C32 O20'
_cell_volume   1521.21343184
_cell_formula_units_Z   4
loop_
 _symmetry_equiv_pos_site_id
 _symmetry_equiv_pos_as_xyz
  1  'x, y, z'
loop_
 _atom_site_type_symbol
 _atom_site_label
 _atom_site_symmetry_multiplicity
 _atom_site_fract_x
 _atom_site_fract_y
 _atom_site_fract_z
 _atom_site_occupancy
 _atom_site_hle17_bader_spin_density
 _atom_site_hle17_ddec_charge
 _atom_site_hle17_ddec_spin_density
 _atom_site_hle17_ddec_sum_bond_order
 _atom_site_hle17_magmom
 _atom_site_hse06_10hf_bader_spin_density
 _atom_site_hse06_10hf_ddec_charge
 _atom_site_hse06_10hf_ddec_spin_density
 _atom_site_hse06_10hf_ddec_sum_bond_order
 _atom_site_hse06_10hf_magmom
 _atom_site_hse06_bader_spin_density
 _atom_site_hse06_ddec_charge
 _atom_site_hse06_ddec_spin_density
 _atom_site_hse06_ddec_sum_bond_order
 _atom_site_hse06_magmom
 _atom_site_pbe_bader_spin_density
 _atom_site_pbe_cm5_charge
 _atom_site_pbe_ddec_charge
 _atom_site_pbe_ddec_spin_density
 _atom_site_pbe_ddec_sum_bond_order
 _atom_site_pbe_magmom
In  In0  1  0.18596960  0.99999886  0.62804682  1  0  1.816505  0  2.247465  0  0  1.636623  0  2.754714  0  0  1.701913  0  2.689264  0  0  0.783622  1.590436  0  2.799993  0
In  In1  1  0.56402357  0.87196522  0.49999752  1  0  1.816548  0  2.24762  0  0  1.636615  0  2.754936  0  0  1.701904  0  2.689483  0  0  0.783533  1.590409  0  2.800208  0
In  In2  1  0.81402751  0.00000743  0.37194433  1  0  1.816419  0  2.247556  0  0  1.636483  0  2.754823  0  0  1.701779  0  2.689373  0  0  0.783532  1.590288  0  2.800089  0
In  In3  1  0.93597634  0.12804944  0.49999494  1  0  1.816403  0  2.247683  0  0  1.636475  0  2.754953  0  0  1.701763  0  2.689509  0  0  0.783474  1.590259  0  2.800196  0
H  H4  1  0.37499320  0.06541700  0.43458748  1  0  0.433141  0  0.837224  0  0  0.417503  0  0.871812  0  0  0.42675  0  0.858789  0  0  0.320941  0.410927  0  0.881116  0
H  H5  1  0.55961707  0.06537458  0.56547545  1  0  0.433122  0  0.837212  0  0  0.417578  0  0.871698  0  0  0.426835  0  0.858657  0  0  0.320918  0.410994  0  0.881015  0
H  H6  1  0.87499559  0.93457316  0.56542923  1  0  0.432815  0  0.837601  0  0  0.417173  0  0.872192  0  0  0.42641  0  0.859187  0  0  0.320922  0.410592  0  0.881497  0
H  H7  1  0.19038292  0.93452334  0.43462954  1  0  0.433153  0  0.837158  0  0  0.417593  0  0.871666  0  0  0.426851  0  0.858624  0  0  0.320961  0.411006  0  0.880984  0
H  H8  1  0.12569570  0.00000091  0.00000145  1  0  0.125802  0  0.920896  0  0  0.133713  0  0.981092  0  0  0.137893  0  0.9774  0  0  0.119542  0.13047  0  0.984293  0
H  H9  1  0.87569168  0.50000346  0.49999858  1  0  0.125842  0  0.920848  0  0  0.133765  0  0.981013  0  0  0.137948  0  0.977321  0  0  0.119569  0.130513  0  0.984204  0
H  H10  1  0.62431340  0.49999133  0.50000293  1  0  0.125842  0  0.920723  0  0  0.133657  0  0.981028  0  0  0.13784  0  0.977333  0  0  0.119532  0.130404  0  0.984226  0
H  H11  1  0.87429981  0.00000221  0.00000110  1  0  0.125836  0  0.920853  0  0  0.133741  0  0.981047  0  0  0.137921  0  0.977355  0  0  0.119566  0.1305  0  0.984247  0
H  H12  1  0.54654613  0.94106093  0.81327178  1  0  0.104206  0  0.94392  0  0  0.11175  0  1.009053  0  0  0.11584  0  1.005381  0  0  0.107346  0.108752  0  1.011747  0
H  H13  1  0.10981832  0.68672610  0.44105732  1  0  0.104247  0  0.943814  0  0  0.111764  0  1.008983  0  0  0.115853  0  1.005311  0  0  0.107353  0.108759  0  1.011679  0
H  H14  1  0.30086802  0.05892871  0.18673523  1  0  0.104313  0  0.94382  0  0  0.111862  0  1.008931  0  0  0.115952  0  1.005257  0  0  0.107408  0.108862  0  1.011623  0
H  H15  1  0.23761000  0.31326242  0.55894028  1  0  0.104234  0  0.943808  0  0  0.111704  0  1.009011  0  0  0.115792  0  1.005344  0  0  0.107339  0.108713  0  1.011719  0
H  H16  1  0.20345593  0.68672237  0.55894381  1  0  0.104238  0  0.943924  0  0  0.11176  0  1.009077  0  0  0.115849  0  1.005406  0  0  0.10736  0.108761  0  1.011772  0
H  H17  1  0.51239105  0.94106417  0.18673790  1  0  0.104268  0  0.943833  0  0  0.111781  0  1.008981  0  0  0.115869  0  1.005313  0  0  0.107364  0.108785  0  1.011676  0
H  H18  1  0.44913965  0.31326817  0.44105743  1  0  0.104238  0  0.943822  0  0  0.11177  0  1.008953  0  0  0.115858  0  1.005281  0  0  0.107377  0.108774  0  1.011656  0
H  H19  1  0.64018444  0.05893661  0.81326823  1  0  0.104229  0  0.943791  0  0  0.111748  0  1.008955  0  0  0.115835  0  1.005286  0  0  0.107358  0.108752  0  1.011654  0
C  C20  1  0.34603033  0.94823373  0.77947656  1  0  0.698122  0  3.859047  0  0  0.646913  0  4.152713  0  0  0.684032  0  4.142622  0  0  0.246031  0.621672  0  4.158841  0
C  C21  1  0.87551044  0.72052983  0.44823692  1  0  0.698288  0  3.85907  0  0  0.646954  0  4.15289  0  0  0.684075  0  4.142797  0  0  0.245877  0.621704  0  4.15902  0
C  C22  1  0.07373034  0.05177055  0.22051631  1  0  0.698193  0  3.859205  0  0  0.646802  0  4.153154  0  0  0.683923  0  4.143061  0  0  0.245842  0.621551  0  4.159288  0
C  C23  1  0.04426467  0.27947285  0.55177441  1  0  0.698353  0  3.859076  0  0  0.647152  0  4.152758  0  0  0.684273  0  4.142662  0  0  0.246006  0.621902  0  4.158883  0
C  C24  1  0.40396292  0.72052724  0.55177275  1  0  0.698209  0  3.8591  0  0  0.647038  0  4.152706  0  0  0.684163  0  4.14261  0  0  0.246026  0.621795  0  4.158822  0
C  C25  1  0.70573801  0.94822683  0.22052200  1  0  0.698289  0  3.859026  0  0  0.647046  0  4.15279  0  0  0.684166  0  4.142697  0  0  0.24595  0.621795  0  4.158927  0
C  C26  1  0.67626970  0.27947972  0.44822455  1  0  0.698202  0  3.859314  0  0  0.646902  0  4.153178  0  0  0.684021  0  4.143085  0  0  0.245852  0.621647  0  4.159311  0
C  C27  1  0.87449182  0.05176331  0.77947566  1  0  0.69824  0  3.859142  0  0  0.64697  0  4.152882  0  0  0.68409  0  4.142784  0  0  0.245847  0.621722  0  4.159015  0
C  C28  1  0.33645374  0.97220985  0.89450798  1  0  -0.061296  0  3.760478  0  0  -0.036251  0  3.997873  0  0  -0.046574  0  4.02208  0  0  -0.013465  -0.029605  0  3.981517  0
C  C29  1  0.98095829  0.60549077  0.47221518  1  0  -0.061443  0  3.760584  0  0  -0.036377  0  3.997988  0  0  -0.046703  0  4.022194  0  0  -0.013617  -0.029729  0  3.981617  0
C  C30  1  0.20316931  0.02779412  0.10548545  1  0  -0.061177  0  3.760381  0  0  -0.036126  0  3.997877  0  0  -0.04645  0  4.022083  0  0  -0.013446  -0.02948  0  3.981521  0
C  C31  1  0.05866597  0.39450674  0.52778314  1  0  -0.061492  0  3.760544  0  0  -0.036575  0  3.998083  0  0  -0.046895  0  4.022284  0  0  -0.013665  -0.029924  0  3.981719  0
C  C32  1  0.41355636  0.60549006  0.52778787  1  0  -0.061272  0  3.760278  0  0  -0.036315  0  3.997724  0  0  -0.046646  0  4.021934  0  0  -0.013489  -0.029672  0  3.98136  0
C  C33  1  0.69133555  0.97221008  0.10549241  1  0  -0.061446  0  3.76044  0  0  -0.03654  0  3.998046  0  0  -0.046867  0  4.022248  0  0  -0.013609  -0.029887  0  3.981688  0
C  C34  1  0.54683377  0.39451301  0.47221248  1  0  -0.061149  0  3.760369  0  0  -0.036248  0  3.997996  0  0  -0.046575  0  4.022203  0  0  -0.013453  -0.0296  0  3.981633  0
C  C35  1  0.76903497  0.02779027  0.89451012  1  0  -0.061496  0  3.760515  0  0  -0.036425  0  3.997904  0  0  -0.046749  0  4.022107  0  0  -0.01356  -0.029776  0  3.981549  0
C  C36  1  0.21314725  0.00000309  0.99999614  1  0  -0.048384  0  3.662117  0  0  -0.088394  0  3.909706  0  0  -0.084813  0  3.927884  0  0  -0.065641  -0.090824  0  3.897922  0
C  C37  1  0.96314865  0.49999819  0.50000105  1  0  -0.048279  0  3.662191  0  0  -0.088269  0  3.909761  0  0  -0.084692  0  3.92794  0  0  -0.06555  -0.090702  0  3.897956  0
C  C38  1  0.53686012  0.49999893  0.50000137  1  0  -0.048392  0  3.661864  0  0  -0.088263  0  3.90951  0  0  -0.084679  0  3.927688  0  0  -0.065601  -0.090693  0  3.897714  0
C  C39  1  0.78684848  0.99999991  0.00000410  1  0  -0.048228  0  3.662001  0  0  -0.08821  0  3.909592  0  0  -0.084626  0  3.927768  0  0  -0.065581  -0.090644  0  3.89781  0
C  C40  1  0.44998819  0.96903344  0.89555433  1  0  -0.093091  0  3.671689  0  0  -0.127573  0  3.917737  0  0  -0.126552  0  3.937284  0  0  -0.074118  -0.127763  0  3.904176  0
C  C41  1  0.09554455  0.60443973  0.46903629  1  0  -0.09311  0  3.671651  0  0  -0.127565  0  3.917696  0  0  -0.126542  0  3.937244  0  0  -0.074136  -0.127749  0  3.90412  0
C  C42  1  0.31457677  0.03096258  0.10444568  1  0  -0.093203  0  3.671699  0  0  -0.127672  0  3.917753  0  0  -0.126646  0  3.937293  0  0  -0.074171  -0.127861  0  3.904192  0
C  C43  1  0.16902986  0.39554794  0.53095792  1  0  -0.092902  0  3.671384  0  0  -0.127267  0  3.91744  0  0  -0.126245  0  3.936986  0  0  -0.07398  -0.127478  0  3.903906  0
C  C44  1  0.30001579  0.60444204  0.53096516  1  0  -0.093157  0  3.671627  0  0  -0.127594  0  3.917678  0  0  -0.12657  0  3.937227  0  0  -0.07416  -0.127781  0  3.904113  0
C  C45  1  0.58097022  0.96903841  0.10445070  1  0  -0.093032  0  3.671443  0  0  -0.127423  0  3.917504  0  0  -0.126399  0  3.937049  0  0  -0.074035  -0.127622  0  3.903946  0
C  C46  1  0.43542908  0.39555488  0.46903766  1  0  -0.093056  0  3.671584  0  0  -0.127458  0  3.917649  0  0  -0.126431  0  3.937191  0  0  -0.074142  -0.127656  0  3.904105  0
C  C47  1  0.65445154  0.03096486  0.89555790  1  0  -0.093064  0  3.67152  0  0  -0.127522  0  3.917568  0  0  -0.1265  0  3.937114  0  0  -0.074118  -0.127718  0  3.904009  0
C  C48  1  0.44042517  0.99999753  0.00000148  1  0  0.047309  0  3.781404  0  0  0.065494  0  4.016975  0  0  0.0626  0  4.043679  0  0  -0.005565  0.067207  0  3.998831  0
C  C49  1  0.19043737  0.49999320  0.49999694  1  0  0.047385  0  3.781498  0  0  0.065554  0  4.017053  0  0  0.06266  0  4.043758  0  0  -0.005543  0.067266  0  3.998901  0
C  C50  1  0.30957631  0.49999621  0.50000203  1  0  0.047207  0  3.781558  0  0  0.0654  0  4.017092  0  0  0.062505  0  4.043797  0  0  -0.005586  0.067109  0  3.998956  0
C  C51  1  0.55956493  0.00000033  0.00000743  1  0  0.047397  0  3.781451  0  0  0.065572  0  4.016993  0  0  0.06268  0  4.043696  0  0  -0.005571  0.067287  0  3.998841  0
O  O52  1  0.37499572  0.00340742  0.49658872  1  0  -1.04082  0  1.844765  0  0  -0.968457  0  2.087118  0  0  -0.998636  0  2.053511  0  0  -0.54195  -0.94673  0  2.110465  0
O  O53  1  0.62152510  0.00350248  0.50334623  1  0  -1.040867  0  1.844639  0  0  -0.968641  0  2.086656  0  0  -0.998845  0  2.053073  0  0  -0.541907  -0.946914  0  2.110013  0
O  O54  1  0.87499783  0.99657747  0.50342347  1  0  -1.040633  0  1.845025  0  0  -0.968222  0  2.087346  0  0  -0.998383  0  2.053728  0  0  -0.542034  -0.946501  0  2.110691  0
O  O55  1  0.12847140  0.99664883  0.49650637  1  0  -1.040925  0  1.844659  0  0  -0.968689  0  2.086713  0  0  -0.998895  0  2.053133  0  0  -0.541993  -0.946959  0  2.110063  0
O  O56  1  0.23231715  0.99546551  0.77269692  1  0  -0.6468  0  2.029513  0  0  -0.584701  0  2.27668  0  0  -0.613391  0  2.262275  0  0  -0.280322  -0.564727  0  2.285965  0
O  O57  1  0.75499926  0.72732693  0.49551215  1  0  -0.646994  0  2.029256  0  0  -0.58486  0  2.276493  0  0  -0.61355  0  2.262085  0  0  -0.280254  -0.564886  0  2.285773  0
O  O58  1  0.00051214  0.00449088  0.22729920  1  0  -0.646947  0  2.029648  0  0  -0.584748  0  2.276887  0  0  -0.613442  0  2.262481  0  0  -0.280277  -0.564771  0  2.286167  0
O  O59  1  0.97780403  0.27268967  0.50451673  1  0  -0.646919  0  2.029296  0  0  -0.584801  0  2.276458  0  0  -0.613496  0  2.262055  0  0  -0.280287  -0.564819  0  2.285727  0
O  O60  1  0.51767645  0.72731402  0.50453074  1  0  -0.646969  0  2.029426  0  0  -0.584826  0  2.276528  0  0  -0.613519  0  2.262122  0  0  -0.280349  -0.564849  0  2.285797  0
O  O61  1  0.77218950  0.99548811  0.22730895  1  0  -0.646881  0  2.029307  0  0  -0.584729  0  2.276481  0  0  -0.613422  0  2.262075  0  0  -0.280228  -0.564752  0  2.285767  0
O  O62  1  0.74949719  0.27269006  0.49550491  1  0  -0.646978  0  2.029578  0  0  -0.584755  0  2.276743  0  0  -0.613451  0  2.262339  0  0  -0.280227  -0.564774  0  2.286014  0
O  O63  1  0.99498808  0.00449345  0.77268817  1  0  -0.646854  0  2.029526  0  0  -0.584748  0  2.276747  0  0  -0.613435  0  2.262334  0  0  -0.280219  -0.564776  0  2.286035  0
O  O64  1  0.46497664  0.88546077  0.69912594  1  0  -0.667952  0  2.034372  0  0  -0.608379  0  2.280968  0  0  -0.636206  0  2.266523  0  0  -0.290912  -0.589048  0  2.290328  0
O  O65  1  0.91411104  0.80086243  0.38542830  1  0  -0.66791  0  2.034634  0  0  -0.608292  0  2.281269  0  0  -0.636117  0  2.266824  0  0  -0.290801  -0.588969  0  2.290631  0
O  O66  1  0.04951109  0.11458110  0.30085127  1  0  -0.66784  0  2.034461  0  0  -0.608219  0  2.281127  0  0  -0.636046  0  2.266688  0  0  -0.29074  -0.588889  0  2.290479  0
O  O67  1  0.10039433  0.19913876  0.61457822  1  0  -0.66797  0  2.034643  0  0  -0.608376  0  2.281198  0  0  -0.636202  0  2.266753  0  0  -0.290845  -0.589057  0  2.290563  0
O  O68  1  0.28502305  0.80086223  0.61455850  1  0  -0.667933  0  2.034484  0  0  -0.608378  0  2.281044  0  0  -0.636205  0  2.266598  0  0  -0.290883  -0.589054  0  2.290402  0
O  O69  1  0.64960824  0.88541963  0.30086136  1  0  -0.667897  0  2.03441  0  0  -0.608294  0  2.280994  0  0  -0.636121  0  2.266553  0  0  -0.290801  -0.588961  0  2.290351  0
O  O70  1  0.70049186  0.19915543  0.38540560  1  0  -0.66787  0  2.03471  0  0  -0.608274  0  2.281345  0  0  -0.6361  0  2.266904  0  0  -0.290788  -0.58895  0  2.290705  0
O  O71  1  0.83589022  0.11456845  0.69913567  1  0  -0.667967  0  2.034427  0  0  -0.608399  0  2.28105  0  0  -0.636228  0  2.266607  0  0  -0.290831  -0.589066  0  2.290403  0
