# generated using pymatgen
data_ZnH8C10NClO2
_symmetry_space_group_name_H-M   'P 1'
_cell_length_a   7.09201546
_cell_length_b   7.34547096
_cell_length_c   10.17810985
_cell_angle_alpha   75.45116592
_cell_angle_beta   75.11305011
_cell_angle_gamma   85.29319712
_symmetry_Int_Tables_number   1
_chemical_formula_structural   ZnH8C10NClO2
_chemical_formula_sum   'Zn2 H16 C20 N2 Cl2 O4'
_cell_volume   495.90495970
_cell_formula_units_Z   2
loop_
 _symmetry_equiv_pos_site_id
 _symmetry_equiv_pos_as_xyz
  1  'x, y, z'
loop_
 _atom_site_type_symbol
 _atom_site_label
 _atom_site_symmetry_multiplicity
 _atom_site_fract_x
 _atom_site_fract_y
 _atom_site_fract_z
 _atom_site_occupancy
 _atom_site_hle17_bader_spin_density
 _atom_site_hle17_ddec_charge
 _atom_site_hle17_ddec_spin_density
 _atom_site_hle17_ddec_sum_bond_order
 _atom_site_hle17_magmom
 _atom_site_hse06_10hf_bader_spin_density
 _atom_site_hse06_10hf_ddec_charge
 _atom_site_hse06_10hf_ddec_spin_density
 _atom_site_hse06_10hf_ddec_sum_bond_order
 _atom_site_hse06_10hf_magmom
 _atom_site_hse06_bader_spin_density
 _atom_site_hse06_ddec_charge
 _atom_site_hse06_ddec_spin_density
 _atom_site_hse06_ddec_sum_bond_order
 _atom_site_hse06_magmom
 _atom_site_pbe_bader_spin_density
 _atom_site_pbe_cm5_charge
 _atom_site_pbe_ddec_charge
 _atom_site_pbe_ddec_spin_density
 _atom_site_pbe_ddec_sum_bond_order
 _atom_site_pbe_magmom
Zn  Zn0  1  0.09905810  0.66036774  0.32151242  1  0  0.995826  0  1.961645  0  0  0.822705  0  2.451499  0  0  0.866087  0  2.396682  0  0  0.630774  0.79254  0  2.489057  0
Zn  Zn1  1  0.90094563  0.33963085  0.67848768  1  0  0.995731  0  1.961745  0  0  0.822626  0  2.451584  0  0  0.866007  0  2.39677  0  0  0.630744  0.792456  0  2.489141  0
H  H2  1  0.37282097  0.67499772  0.60291960  1  0  0.109052  0  0.949831  0  0  0.114558  0  1.017214  0  0  0.118295  0  1.014737  0  0  0.10093  0.111844  0  1.019079  0
H  H3  1  0.62717843  0.32499806  0.39708179  1  0  0.109005  0  0.949838  0  0  0.11449  0  1.017251  0  0  0.118229  0  1.014765  0  0  0.100898  0.111779  0  1.01911  0
H  H4  1  0.85512124  0.05613116  0.44837569  1  0  0.105962  0  0.965471  0  0  0.113084  0  1.032205  0  0  0.116347  0  1.030376  0  0  0.102976  0.110647  0  1.033788  0
H  H5  1  0.14487819  0.94386321  0.55162596  1  0  0.105949  0  0.96542  0  0  0.113076  0  1.032157  0  0  0.116339  0  1.030324  0  0  0.102971  0.11064  0  1.033739  0
H  H6  1  0.99842380  0.04399722  0.19636382  1  0  0.070201  0  0.94886  0  0  0.079747  0  1.014937  0  0  0.082078  0  1.012444  0  0  0.113898  0.078087  0  1.016663  0
H  H7  1  0.00157696  0.95600417  0.80363432  1  0  0.070258  0  0.948857  0  0  0.079823  0  1.014894  0  0  0.082153  0  1.012401  0  0  0.113935  0.078163  0  1.01662  0
H  H8  1  0.15626816  0.35079819  0.08799520  1  0  0.112999  0  0.976132  0  0  0.120376  0  1.040879  0  0  0.12336  0  1.040347  0  0  0.099326  0.118169  0  1.041554  0
H  H9  1  0.84372969  0.64920317  0.91200053  1  0  0.112989  0  0.976071  0  0  0.120379  0  1.040793  0  0  0.123362  0  1.04026  0  0  0.099338  0.118172  0  1.041468  0
H  H10  1  0.70631807  0.06852356  0.12806031  1  0  0.107068  0  0.944377  0  0  0.118517  0  1.004123  0  0  0.12133  0  1.003716  0  0  0.106407  0.116675  0  1.004316  0
H  H11  1  0.29368112  0.93148347  0.87193902  1  0  0.107043  0  0.944399  0  0  0.118493  0  1.004154  0  0  0.121316  0  1.003722  0  0  0.106396  0.116648  0  1.00435  0
H  H12  1  0.52434209  0.77323725  0.24051002  1  0  0.088976  0  0.952697  0  0  0.094937  0  1.020945  0  0  0.097424  0  1.018836  0  0  0.110046  0.093193  0  1.022421  0
H  H13  1  0.47566302  0.22676556  0.75948904  1  0  0.089006  0  0.952746  0  0  0.09495  0  1.021011  0  0  0.097437  0  1.018904  0  0  0.110067  0.093207  0  1.022485  0
H  H14  1  0.69328381  0.38955820  0.96226242  1  0  0.077274  0  0.955907  0  0  0.09243  0  1.025573  0  0  0.093741  0  1.024412  0  0  0.091016  0.091578  0  1.026359  0
H  H15  1  0.30671398  0.61044600  0.03773573  1  0  0.077294  0  0.95592  0  0  0.092453  0  1.025566  0  0  0.09376  0  1.024409  0  0  0.091016  0.091602  0  1.02635  0
H  H16  1  0.60435778  0.45809103  0.12012477  1  0  0.100795  0  0.928183  0  0  0.119508  0  0.987361  0  0  0.12028  0  0.987646  0  0  0.096685  0.119115  0  0.987081  0
H  H17  1  0.39564001  0.54191317  0.87987240  1  0  0.100808  0  0.928134  0  0  0.119502  0  0.987325  0  0  0.120271  0  0.987612  0  0  0.096657  0.119108  0  0.98705  0
C  C18  1  0.42778622  0.81740028  0.55826641  1  0  -0.059015  0  3.698722  0  0  -0.080637  0  3.946873  0  0  -0.081175  0  3.966506  0  0  -0.078354  -0.080665  0  3.934601  0
C  C19  1  0.57221322  0.18259409  0.44173523  1  0  -0.058935  0  3.698619  0  0  -0.080565  0  3.946753  0  0  -0.08109  0  3.966401  0  0  -0.078345  -0.080594  0  3.934484  0
C  C20  1  0.62863724  0.84870782  0.52723105  1  0  -0.068476  0  3.761105  0  0  -0.046381  0  3.993104  0  0  -0.054414  0  4.017343  0  0  -0.015862  -0.041351  0  3.977834  0
C  C21  1  0.37136216  0.15128796  0.47277034  1  0  -0.068487  0  3.760937  0  0  -0.046324  0  3.992836  0  0  -0.054401  0  4.017135  0  0  -0.015825  -0.041295  0  3.97757  0
C  C22  1  0.69983292  0.03166101  0.46887662  1  0  -0.072806  0  3.71481  0  0  -0.096294  0  3.965594  0  0  -0.097525  0  3.98647  0  0  -0.085141  -0.09586  0  3.952806  0
C  C23  1  0.30016508  0.96833195  0.53112456  1  0  -0.072802  0  3.714689  0  0  -0.096329  0  3.965482  0  0  -0.097548  0  3.986373  0  0  -0.085194  -0.095895  0  3.952694  0
C  C24  1  0.76719969  0.68938346  0.55768713  1  0  0.66162  0  3.868974  0  0  0.608476  0  4.156675  0  0  0.643821  0  4.148785  0  0  0.221071  0.58423  0  4.161866  0
C  C25  1  0.23279972  0.31061230  0.44231230  1  0  0.661625  0  3.868978  0  0  0.60847  0  4.15667  0  0  0.643826  0  4.148782  0  0  0.221033  0.584226  0  4.161862  0
C  C26  1  0.15523836  0.05646944  0.18053601  1  0  0.135694  0  3.713897  0  0  0.103614  0  3.9649  0  0  0.111368  0  3.983101  0  0  0.046186  0.098978  0  3.952162  0
C  C27  1  0.84476240  0.94353196  0.81946311  1  0  0.135537  0  3.713933  0  0  0.103457  0  3.964926  0  0  0.11121  0  3.983129  0  0  0.04616  0.098822  0  3.952185  0
C  C28  1  0.24578960  0.22797944  0.11910559  1  0  -0.160763  0  3.688737  0  0  -0.178658  0  3.933165  0  0  -0.18755  0  3.955716  0  0  -0.086468  -0.173042  0  3.918159  0
C  C29  1  0.75420532  0.77202196  0.88089457  1  0  -0.160692  0  3.688732  0  0  -0.178587  0  3.933133  0  0  -0.187479  0  3.955681  0  0  -0.086482  -0.172972  0  3.918125  0
C  C30  1  0.44790158  0.23834230  0.09912389  1  0  0.170061  0  3.683267  0  0  0.185251  0  3.920164  0  0  0.191281  0  3.941692  0  0  0.020275  0.181856  0  3.905109  0
C  C31  1  0.55209478  0.76166052  0.90087772  1  0  0.170009  0  3.683497  0  0  0.185203  0  3.920383  0  0  0.191231  0  3.941911  0  0  0.020232  0.181808  0  3.905325  0
C  C32  1  0.54853550  0.07067231  0.14278431  1  0  -0.163726  0  3.704646  0  0  -0.183569  0  3.956202  0  0  -0.192742  0  3.97988  0  0  -0.081247  -0.177778  0  3.940926  0
C  C33  1  0.45146378  0.92933051  0.85721678  1  0  -0.163666  0  3.70471  0  0  -0.183529  0  3.956283  0  0  -0.192699  0  3.979967  0  0  -0.081224  -0.177735  0  3.941002  0
C  C34  1  0.44846827  0.90435967  0.20488009  1  0  0.134256  0  3.704996  0  0  0.101606  0  3.958521  0  0  0.108987  0  3.978084  0  0  0.04441  0.09688  0  3.945836  0
C  C35  1  0.55153242  0.09564599  0.79512219  1  0  0.13417  0  3.705044  0  0  0.101539  0  3.958575  0  0  0.108918  0  3.978141  0  0  0.044381  0.096813  0  3.945889  0
C  C36  1  0.55711052  0.41865064  0.03584892  1  0  -0.157048  0  3.695231  0  0  -0.199495  0  3.938324  0  0  -0.200851  0  3.949987  0  0  -0.15757  -0.198426  0  3.929716  0
C  C37  1  0.44288729  0.58135215  0.96414851  1  0  -0.157139  0  3.695235  0  0  -0.199546  0  3.938296  0  0  -0.200894  0  3.949952  0  0  -0.157533  -0.198476  0  3.929687  0
N  N38  1  0.25347408  0.89703630  0.22375853  1  0  -0.3524  0  3.348986  0  0  -0.266598  0  3.62746  0  0  -0.287415  0  3.643652  0  0  -0.34275  -0.252394  0  3.616027  0
N  N39  1  0.74652814  0.10296510  0.77624131  1  0  -0.352239  0  3.349017  0  0  -0.266467  0  3.627509  0  0  -0.287282  0  3.643699  0  0  -0.342722  -0.252263  0  3.616071  0
Cl  Cl40  1  0.89308467  0.62113906  0.20007075  1  0  -0.582924  0  0.897403  0  0  -0.518663  0  1.165222  0  0  -0.534519  0  1.141023  0  0  -0.305373  -0.507076  0  1.181792  0
Cl  Cl41  1  0.10691755  0.37886235  0.79993007  1  0  -0.582912  0  0.897434  0  0  -0.518635  0  1.165229  0  0  -0.534492  0  1.141031  0  0  -0.305363  -0.507048  0  1.181799  0
O  O42  1  0.95009257  0.71417030  0.50489810  1  0  -0.656086  0  2.111133  0  0  -0.586428  0  2.393363  0  0  -0.612258  0  2.375841  0  0  -0.328096  -0.568272  0  2.405033  0
O  O43  1  0.04990825  0.28582828  0.49510056  1  0  -0.65605  0  2.111181  0  0  -0.586402  0  2.393415  0  0  -0.612229  0  2.375888  0  0  -0.328053  -0.568239  0  2.405072  0
O  O44  1  0.69734697  0.53403376  0.63878464  1  0  -0.596496  0  2.043215  0  0  -0.518076  0  2.302908  0  0  -0.545941  0  2.289586  0  0  -0.303115  -0.49892  0  2.311678  0
O  O45  1  0.30265532  0.46596342  0.36121499  1  0  -0.596543  0  2.043208  0  0  -0.518088  0  2.302847  0  0  -0.545954  0  2.289518  0  0  -0.303109  -0.498934  0  2.311615  0
