# generated using pymatgen
data_ZnH10C22Br3NO4
_symmetry_space_group_name_H-M   'P 1'
_cell_length_a   16.52779872
_cell_length_b   17.34027645
_cell_length_c   17.67373691
_cell_angle_alpha   90.90167683
_cell_angle_beta   89.97395457
_cell_angle_gamma   84.65189606
_symmetry_Int_Tables_number   1
_chemical_formula_structural   ZnH10C22Br3NO4
_chemical_formula_sum   'Zn2 H20 C44 Br6 N2 O8'
_cell_volume   5042.54901706
_cell_formula_units_Z   2
loop_
 _symmetry_equiv_pos_site_id
 _symmetry_equiv_pos_as_xyz
  1  'x, y, z'
loop_
 _atom_site_type_symbol
 _atom_site_label
 _atom_site_symmetry_multiplicity
 _atom_site_fract_x
 _atom_site_fract_y
 _atom_site_fract_z
 _atom_site_occupancy
 _atom_site_pbe_bader_charge
 _atom_site_pbe_bader_spin_density
 _atom_site_pbe_cm5_charge
 _atom_site_pbe_ddec_charge
 _atom_site_pbe_ddec_spin_density
 _atom_site_pbe_ddec_sum_bond_order
 _atom_site_pbe_magmom
Zn  Zn0  1  0.58265507  0.50115050  0.48600708  1  1.288299  0  0.669626  0.82335  0  2.430412  0
Zn  Zn1  1  0.41306029  0.51075640  0.49853930  1  1.288282  0  0.668261  0.821803  0  2.403178  0
H  H2  1  0.39755438  0.28192035  0.58528673  1  0.12544  0  0.104801  0.122758  0  1.002945  0
H  H3  1  0.61647085  0.74232547  0.48945675  1  0.110916  0  0.103513  0.120315  0  1.008315  0
H  H4  1  0.87983067  0.40601822  0.42411002  1  0.115235  0  0.121646  0.132293  0  0.973487  0
H  H5  1  0.12472435  0.57640497  0.60290923  1  0.121155  0  0.123219  0.134534  0  0.969894  0
H  H6  1  0.69461050  0.60032673  0.55928488  1  0.16025  0  0.126672  0.11739  0  0.988103  0
H  H7  1  0.29166712  0.44282882  0.40095309  1  0.172594  0  0.124136  0.117336  0  1.003106  0
H  H8  1  0.35940788  0.75870177  0.52930028  1  0.095902  0  0.106503  0.11187  0  0.995691  0
H  H9  1  0.64943947  0.25470923  0.52273573  1  0.079192  0  0.105045  0.11045  0  0.999734  0
H  H10  1  0.41974407  0.01099472  0.55434415  1  0.068648  0  0.088605  0.090969  0  1.047632  0
H  H11  1  0.60059258  0.00691760  0.59427093  1  0.065212  0  0.086482  0.09119  0  1.062791  0
H  H12  1  0.60870588  0.52197482  0.88735395  1  0.099359  0  0.108173  0.126096  0  0.987371  0
H  H13  1  0.36991696  0.48618182  0.10324141  1  0.104189  0  0.107614  0.124794  0  0.990497  0
H  H14  1  0.40137311  0.43153019  0.71257711  1  0.087065  0  0.109313  0.115712  0  0.987553  0
H  H15  1  0.60970405  0.41492904  0.26397936  1  0.10589  0  0.107582  0.11161  0  0.995971  0
H  H16  1  0.40231841  0.39149132  0.84771511  1  0.075976  0  0.108556  0.113137  0  0.98738  0
H  H17  1  0.61865830  0.38936337  0.12482896  1  0.068302  0  0.108088  0.112994  0  0.987504  0
H  H18  1  0.72736429  0.40579702  0.41982106  1  0.140593  0  0.133957  0.109848  0  0.961788  0
H  H19  1  0.27759913  0.57406294  0.59915241  1  0.169053  0  0.133822  0.114837  0  0.969392  0
H  H20  1  0.65530607  0.11451272  0.55397708  1  0.079549  0  0.103597  0.106068  0  0.992938  0
H  H21  1  0.36213374  0.89862752  0.56220551  1  0.09309  0  0.103954  0.105331  0  0.991229  0
C  C22  1  0.49020900  0.47978070  0.34668475  1  1.600089  0  0.217003  0.607936  0  4.159603  0
C  C23  1  0.49938063  0.51461136  0.64032386  1  1.586394  0  0.210551  0.600649  0  4.184292  0
C  C24  1  0.56397464  0.50088867  0.84893580  1  -0.00492  0  -0.088982  -0.182409  0  3.923178  0
C  C25  1  0.42231060  0.46901675  0.13846705  1  -0.069413  0  -0.090138  -0.184678  0  3.927029  0
C  C26  1  0.56316457  0.52141278  0.77310674  1  -0.078587  0  -0.007893  0.106553  0  3.942736  0
C  C27  1  0.41811633  0.48176868  0.21645531  1  -0.069616  0  -0.006609  0.108333  0  3.93395  0
C  C28  1  0.50420493  0.49730671  0.72318325  1  0.019638  0  -0.015923  -0.065979  0  3.931588  0
C  C29  1  0.48601968  0.46348286  0.26303902  1  -0.003341  0  -0.017049  -0.075219  0  3.919058  0
C  C30  1  0.44675810  0.45036728  0.75175631  1  -0.046989  0  -0.07999  -0.078653  0  3.986422  0
C  C31  1  0.55723382  0.42918232  0.22784451  1  0.016379  0  -0.079915  -0.073912  0  3.990503  0
C  C32  1  0.44721394  0.42818227  0.82682827  1  0.019345  0  -0.086038  -0.136699  0  3.962982  0
C  C33  1  0.56239776  0.41524532  0.15048665  1  -0.073439  0  -0.085691  -0.138292  0  3.962489  0
C  C34  1  0.50550281  0.45429511  0.87694015  1  0.109159  0  0.002013  0.154684  0  4.114453  0
C  C35  1  0.49498313  0.43701228  0.10413856  1  0.141246  0  0.00468  0.16244  0  4.113391  0
C  C36  1  0.50339811  0.43902597  0.95544915  1  -0.028745  0  -0.040303  -0.099266  0  4.101097  0
C  C37  1  0.50042459  0.43323675  0.02411058  1  -0.296003  0  -0.043404  -0.106298  0  4.101424  0
C  C38  1  0.84048000  0.44978328  0.45465572  1  0.067334  0  -0.064304  -0.148699  0  3.903316  0
C  C39  1  0.15992765  0.54598180  0.55767584  1  0.011686  0  -0.064462  -0.14905  0  3.90472  0
C  C40  1  0.75677698  0.44951570  0.45188839  1  0.477175  0  0.060362  0.092331  0  3.932995  0
C  C41  1  0.24379806  0.54529191  0.55579111  1  0.423526  0  0.060028  0.090959  0  3.922568  0
C  C42  1  0.73799583  0.55862618  0.53046278  1  0.534707  0  0.058802  0.058686  0  3.892728  0
C  C43  1  0.25231358  0.47054659  0.44493756  1  0.555118  0  0.054278  0.050687  0  3.897384  0
C  C44  1  0.51531228  0.35802361  0.52215726  1  1.574405  0  0.212406  0.591732  0  4.173897  0
C  C45  1  0.48980583  0.65634977  0.49061641  1  1.57757  0  0.215821  0.595224  0  4.163377  0
C  C46  1  0.82152503  0.56262192  0.53637483  1  -0.054062  0  -0.000869  0.025291  0  3.910475  0
C  C47  1  0.16837787  0.46812662  0.44329547  1  -0.10018  0  -0.002156  0.027214  0  3.908979  0
C  C48  1  0.87535235  0.50738313  0.49774343  1  0.073185  0  0.017298  0.126745  0  4.088162  0
C  C49  1  0.11960615  0.50683860  0.50042553  1  0.168819  0  0.015733  0.123904  0  4.093417  0
C  C50  1  0.96046707  0.50844109  0.50082861  1  0.058991  0  -0.027899  -0.073321  0  4.090053  0
C  C51  1  0.03430544  0.50708693  0.50058778  1  -0.364809  0  -0.027402  -0.071798  0  4.089784  0
C  C52  1  0.52196045  0.27596856  0.54828367  1  -0.008929  0  -0.016702  -0.015653  0  3.96601  0
C  C53  1  0.48819301  0.74133478  0.50797664  1  -0.094181  0  -0.014662  -0.011336  0  3.960642  0
C  C54  1  0.45374593  0.24454825  0.57774600  1  -0.061841  0  -0.091478  -0.148007  0  3.978317  0
C  C55  1  0.56081183  0.77679362  0.50631479  1  0.039496  0  -0.092249  -0.148691  0  3.983355  0
C  C56  1  0.45770228  0.16657012  0.59595668  1  -0.059399  0  -0.013312  0.069622  0  3.902337  0
C  C57  1  0.56207453  0.85484436  0.52493632  1  -0.150169  0  -0.011247  0.072487  0  3.889775  0
C  C58  1  0.52901938  0.11633226  0.58391249  1  0.021016  0  -0.009051  0.079146  0  3.992952  0
C  C59  1  0.49072471  0.90162809  0.54641659  1  0.039385  0  -0.008965  0.075347  0  3.993882  0
C  C60  1  0.59867399  0.15168007  0.56105338  1  -0.081716  0  -0.086903  -0.122709  0  3.964513  0
C  C61  1  0.41825344  0.86379689  0.54651855  1  -0.053098  0  -0.084883  -0.11904  0  3.963677  0
C  C62  1  0.59571043  0.22939651  0.54291132  1  0.013657  0  -0.087062  -0.095152  0  4.000815  0
C  C63  1  0.41616793  0.78593962  0.52816780  1  0.010311  0  -0.086185  -0.096417  0  3.998796  0
C  C64  1  0.53853696  0.03170299  0.58452180  1  -0.035854  0  -0.098659  -0.122751  0  3.991831  0
C  C65  1  0.48159970  0.98470054  0.56301855  1  -0.006128  0  -0.097294  -0.120789  0  3.99343  0
Br  Br66  1  0.86026547  0.64258115  0.59581032  1  -0.008127  0  0.050787  -0.031312  0  1.350482  0
Br  Br67  1  0.12207157  0.41372874  0.36351679  1  -0.014326  0  0.048453  -0.035339  0  1.354188  0
Br  Br68  1  0.66648474  0.89344086  0.51440264  1  -0.091145  0  0.00743  -0.095472  0  1.377532  0
Br  Br69  1  0.36224921  0.13206813  0.64099893  1  -0.095844  0  -0.001964  -0.102337  0  1.348746  0
Br  Br70  1  0.64230160  0.58805020  0.74211473  1  -0.070242  0  1.1e-05  -0.090773  0  1.374763  0
Br  Br71  1  0.31699103  0.53087268  0.25290656  1  -0.06167  0  0.009517  -0.083106  0  1.411684  0
N  N72  1  0.70686775  0.50315067  0.48894665  1  -1.237443  0  -0.309966  -0.169162  0  3.507018  0
N  N73  1  0.28871348  0.50849847  0.50017788  1  -1.214431  0  -0.310637  -0.170351  0  3.503694  0
O  O74  1  0.56038478  0.49037241  0.37234639  1  -1.157512  0  -0.317779  -0.54348  0  2.306613  0
O  O75  1  0.42841037  0.53132503  0.61370782  1  -1.15974  0  -0.320761  -0.552425  0  2.300549  0
O  O76  1  0.42527667  0.48115964  0.38547843  1  -1.169394  0  -0.314277  -0.549307  0  2.387353  0
O  O77  1  0.56542391  0.50708886  0.60317625  1  -1.163768  0  -0.31528  -0.55085  0  2.361273  0
O  O78  1  0.57978508  0.38358541  0.49673138  1  -1.164568  0  -0.32296  -0.551621  0  2.311145  0
O  O79  1  0.42214788  0.62715147  0.48425914  1  -1.157428  0  -0.319771  -0.546011  0  2.296421  0
O  O80  1  0.44562832  0.39598341  0.52679769  1  -1.178512  0  -0.318538  -0.549223  0  2.320464  0
O  O81  1  0.55988313  0.61908988  0.48507666  1  -1.167252  0  -0.318723  -0.549068  0  2.341875  0
