# generated using pymatgen
data_KH5C14N4O
_symmetry_space_group_name_H-M   'P 1'
_cell_length_a   7.02574927
_cell_length_b   11.41104139
_cell_length_c   16.24156227
_cell_angle_alpha   90.00049386
_cell_angle_beta   90.00058332
_cell_angle_gamma   98.75488222
_symmetry_Int_Tables_number   1
_chemical_formula_structural   KH5C14N4O
_chemical_formula_sum   'K4 H20 C56 N16 O4'
_cell_volume   1286.93275848
_cell_formula_units_Z   4
loop_
 _symmetry_equiv_pos_site_id
 _symmetry_equiv_pos_as_xyz
  1  'x, y, z'
loop_
 _atom_site_type_symbol
 _atom_site_label
 _atom_site_symmetry_multiplicity
 _atom_site_fract_x
 _atom_site_fract_y
 _atom_site_fract_z
 _atom_site_occupancy
 _atom_site_hle17_bader_spin_density
 _atom_site_hle17_ddec_charge
 _atom_site_hle17_ddec_spin_density
 _atom_site_hle17_ddec_sum_bond_order
 _atom_site_hle17_magmom
 _atom_site_hse06_10hf_bader_spin_density
 _atom_site_hse06_10hf_ddec_charge
 _atom_site_hse06_10hf_ddec_spin_density
 _atom_site_hse06_10hf_ddec_sum_bond_order
 _atom_site_hse06_10hf_magmom
 _atom_site_hse06_bader_spin_density
 _atom_site_hse06_ddec_charge
 _atom_site_hse06_ddec_spin_density
 _atom_site_hse06_ddec_sum_bond_order
 _atom_site_hse06_magmom
 _atom_site_pbe_bader_spin_density
 _atom_site_pbe_cm5_charge
 _atom_site_pbe_ddec_charge
 _atom_site_pbe_ddec_spin_density
 _atom_site_pbe_ddec_sum_bond_order
 _atom_site_pbe_magmom
K  K0  1  0.07640600  0.49623530  0.27019118  1  0  0.917526  0  0.470032  0  0  0.85844  0  0.67417  0  0  0.8724  0  0.652311  0  0  0.828737  0.848166  0  0.68986  0
K  K1  1  0.42364023  0.50375134  0.77018392  1  0  0.917583  0  0.469986  0  0  0.858461  0  0.674193  0  0  0.87242  0  0.65233  0  0  0.828786  0.848188  0  0.689887  0
K  K2  1  0.92363290  0.50375153  0.72981948  1  0  0.917564  0  0.469991  0  0  0.858456  0  0.674173  0  0  0.872407  0  0.652329  0  0  0.828748  0.848186  0  0.689865  0
K  K3  1  0.57641011  0.49624174  0.22980951  1  0  0.917544  0  0.470005  0  0  0.858441  0  0.674171  0  0  0.872404  0  0.652307  0  0  0.828754  0.848164  0  0.689861  0
H  H4  1  0.82442728  0.16750649  0.28842968  1  0  0.104224  0  0.947872  0  0  0.109337  0  1.016763  0  0  0.112578  0  1.014426  0  0  0.109087  0.107095  0  1.018329  0
H  H5  1  0.67556404  0.83250336  0.78842818  1  0  0.104125  0  0.947822  0  0  0.109229  0  1.016748  0  0  0.112471  0  1.014411  0  0  0.109073  0.106987  0  1.018315  0
H  H6  1  0.17556506  0.83248810  0.71156929  1  0  0.104405  0  0.947714  0  0  0.109467  0  1.016664  0  0  0.112707  0  1.014327  0  0  0.1091  0.107233  0  1.018218  0
H  H7  1  0.32443449  0.16750544  0.21157695  1  0  0.10423  0  0.947789  0  0  0.109346  0  1.01667  0  0  0.112588  0  1.014333  0  0  0.109087  0.107103  0  1.018237  0
H  H8  1  0.86163842  0.96547292  0.33462414  1  0  0.095786  0  0.957597  0  0  0.103528  0  1.021442  0  0  0.106143  0  1.021161  0  0  0.099625  0.101646  0  1.021813  0
H  H9  1  0.63835735  0.03453321  0.83461954  1  0  0.095869  0  0.957744  0  0  0.103616  0  1.021561  0  0  0.106233  0  1.02128  0  0  0.09966  0.101751  0  1.021915  0
H  H10  1  0.13837407  0.03452265  0.66537791  1  0  0.095715  0  0.957738  0  0  0.103455  0  1.021567  0  0  0.106068  0  1.021291  0  0  0.099641  0.101575  0  1.021949  0
H  H11  1  0.36163423  0.96547024  0.16538066  1  0  0.095835  0  0.957771  0  0  0.1036  0  1.021592  0  0  0.106215  0  1.021316  0  0  0.099646  0.101734  0  1.021946  0
H  H12  1  0.89345446  0.80803274  0.23098654  1  0  0.091427  0  0.973526  0  0  0.099742  0  1.039343  0  0  0.102432  0  1.037493  0  0  0.104719  0.097924  0  1.040451  0
H  H13  1  0.60657201  0.19198084  0.73098336  1  0  0.091341  0  0.973506  0  0  0.099668  0  1.039318  0  0  0.102342  0  1.037493  0  0  0.104704  0.097849  0  1.040423  0
H  H14  1  0.10657354  0.19196821  0.76901243  1  0  0.091433  0  0.973489  0  0  0.099741  0  1.039305  0  0  0.102436  0  1.037451  0  0  0.104731  0.097925  0  1.040412  0
H  H15  1  0.39344077  0.80802801  0.26901808  1  0  0.091422  0  0.973506  0  0  0.099736  0  1.039338  0  0  0.102437  0  1.037479  0  0  0.104712  0.097918  0  1.040446  0
H  H16  1  0.89070425  0.85467702  0.08104790  1  0  0.08235  0  0.980003  0  0  0.088962  0  1.047775  0  0  0.090652  0  1.049136  0  0  0.094791  0.087668  0  1.047182  0
H  H17  1  0.60933863  0.14533620  0.58104506  1  0  0.082241  0  0.980016  0  0  0.088916  0  1.047702  0  0  0.090596  0  1.049069  0  0  0.094765  0.087622  0  1.047109  0
H  H18  1  0.10933025  0.14532131  0.91895169  1  0  0.082316  0  0.979993  0  0  0.088944  0  1.047758  0  0  0.090633  0  1.049121  0  0  0.094815  0.087651  0  1.047164  0
H  H19  1  0.39069921  0.85467631  0.41895637  1  0  0.082403  0  0.979968  0  0  0.089038  0  1.047694  0  0  0.090713  0  1.04907  0  0  0.094801  0.087745  0  1.047102  0
H  H20  1  0.85889591  0.05613625  0.03462625  1  0  0.091273  0  0.969194  0  0  0.098842  0  1.038012  0  0  0.100959  0  1.037294  0  0  0.101558  0.097396  0  1.038465  0
H  H21  1  0.64112864  0.94387620  0.53462281  1  0  0.091253  0  0.969269  0  0  0.098815  0  1.038106  0  0  0.10093  0  1.037393  0  0  0.101503  0.097369  0  1.038558  0
H  H22  1  0.14111680  0.94386021  0.96537210  1  0  0.091228  0  0.969195  0  0  0.09879  0  1.03805  0  0  0.100904  0  1.037335  0  0  0.10152  0.097341  0  1.038506  0
H  H23  1  0.35889495  0.05613625  0.46537924  1  0  0.091219  0  0.969167  0  0  0.098775  0  1.038017  0  0  0.100891  0  1.037301  0  0  0.10146  0.097328  0  1.038472  0
C  C24  1  0.83160327  0.27639631  0.04134357  1  0  0.034945  0  3.71969  0  0  0.018875  0  3.972011  0  0  0.030418  0  3.986061  0  0  0.03263  0.011688  0  3.962142  0
C  C25  1  0.66838312  0.72360456  0.54134200  1  0  0.034956  0  3.719658  0  0  0.018807  0  3.972159  0  0  0.030347  0  3.986214  0  0  0.032636  0.011619  0  3.962291  0
C  C26  1  0.16837340  0.72359822  0.95865725  1  0  0.035062  0  3.719176  0  0  0.018816  0  3.97174  0  0  0.030354  0  3.985796  0  0  0.032779  0.011635  0  3.961866  0
C  C27  1  0.33160482  0.27640153  0.45865574  1  0  0.034989  0  3.719556  0  0  0.018827  0  3.972042  0  0  0.030372  0  3.986098  0  0  0.032646  0.011645  0  3.962171  0
C  C28  1  0.81673057  0.24449597  0.13266163  1  0  0.402111  0  3.731396  0  0  0.391903  0  3.983901  0  0  0.412607  0  3.987366  0  0  0.176507  0.377659  0  3.981337  0
C  C29  1  0.68325945  0.75550537  0.63265847  1  0  0.401846  0  3.731804  0  0  0.391696  0  3.984285  0  0  0.4124  0  3.987748  0  0  0.176369  0.377454  0  3.981724  0
C  C30  1  0.18325322  0.75549859  0.86733858  1  0  0.402088  0  3.731541  0  0  0.391841  0  3.984059  0  0  0.412554  0  3.987509  0  0  0.176443  0.377583  0  3.981503  0
C  C31  1  0.31673432  0.24448923  0.36733865  1  0  0.402007  0  3.731449  0  0  0.391782  0  3.983926  0  0  0.412488  0  3.987387  0  0  0.176389  0.377534  0  3.98137  0
C  C32  1  0.84060034  0.12534733  0.15874379  1  0  -0.066447  0  3.798637  0  0  -0.04923  0  4.030423  0  0  -0.060664  0  4.059421  0  0  -0.022121  -0.041658  0  4.01082  0
C  C33  1  0.65940181  0.87466066  0.65874247  1  0  -0.066278  0  3.798561  0  0  -0.049084  0  4.030361  0  0  -0.060514  0  4.05936  0  0  -0.022006  -0.041513  0  4.010755  0
C  C34  1  0.15939037  0.87464638  0.84125457  1  0  -0.066694  0  3.799024  0  0  -0.049247  0  4.030524  0  0  -0.060679  0  4.05952  0  0  -0.022146  -0.04167  0  4.010916  0
C  C35  1  0.34060851  0.12534376  0.34125958  1  0  -0.066496  0  3.798888  0  0  -0.049113  0  4.030418  0  0  -0.060545  0  4.059417  0  0  -0.022047  -0.041536  0  4.010809  0
C  C36  1  0.84084893  0.09868642  0.24359392  1  0  -0.036372  0  3.670072  0  0  -0.060858  0  3.918453  0  0  -0.058351  0  3.938223  0  0  -0.065909  -0.062273  0  3.905037  0
C  C37  1  0.65915668  0.90132194  0.74359153  1  0  -0.036194  0  3.66983  0  0  -0.060661  0  3.918216  0  0  -0.058157  0  3.937988  0  0  -0.065917  -0.062073  0  3.904805  0
C  C38  1  0.15915439  0.90130645  0.75640443  1  0  -0.036553  0  3.67009  0  0  -0.06109  0  3.918437  0  0  -0.058585  0  3.938207  0  0  -0.065965  -0.062503  0  3.905023  0
C  C39  1  0.34084857  0.09868511  0.25640929  1  0  -0.036301  0  3.669908  0  0  -0.060821  0  3.918266  0  0  -0.058315  0  3.938036  0  0  -0.065916  -0.062235  0  3.904854  0
C  C40  1  0.86079347  0.98517829  0.26899566  1  0  -0.0713  0  3.74371  0  0  -0.081438  0  3.991362  0  0  -0.087171  0  4.015197  0  0  -0.08312  -0.077704  0  3.975373  0
C  C41  1  0.63921180  0.01483222  0.76899402  1  0  -0.071529  0  3.743986  0  0  -0.081683  0  3.991647  0  0  -0.087419  0  4.015486  0  0  -0.083145  -0.077963  0  3.975646  0
C  C42  1  0.13921618  0.01481727  0.73100455  1  0  -0.071207  0  3.743802  0  0  -0.081331  0  3.991429  0  0  -0.087063  0  4.015265  0  0  -0.083102  -0.077606  0  3.975457  0
C  C43  1  0.36079181  0.98517394  0.23100864  1  0  -0.071668  0  3.744094  0  0  -0.081863  0  3.991841  0  0  -0.087601  0  4.015685  0  0  -0.083323  -0.078143  0  3.975844  0
C  C44  1  0.87898366  0.89724707  0.21055771  1  0  -0.018493  0  3.694317  0  0  -0.03498  0  3.936543  0  0  -0.033908  0  3.957527  0  0  -0.064761  -0.035236  0  3.921937  0
C  C45  1  0.62103922  0.10276531  0.71055282  1  0  -0.018331  0  3.69431  0  0  -0.03483  0  3.936556  0  0  -0.033749  0  3.957552  0  0  -0.064753  -0.035082  0  3.921949  0
C  C46  1  0.12102762  0.10274938  0.78944127  1  0  -0.018493  0  3.694315  0  0  -0.034955  0  3.936491  0  0  -0.033889  0  3.957471  0  0  -0.064744  -0.035213  0  3.921888  0
C  C47  1  0.37898375  0.89724448  0.28944861  1  0  -0.018225  0  3.694336  0  0  -0.034721  0  3.936581  0  0  -0.033657  0  3.957559  0  0  -0.064602  -0.034978  0  3.921982  0
C  C48  1  0.87850421  0.92320104  0.12651784  1  0  -0.073859  0  3.744884  0  0  -0.082682  0  3.990547  0  0  -0.088472  0  4.01457  0  0  -0.087987  -0.078882  0  3.974303  0
C  C49  1  0.62153274  0.07681282  0.62651588  1  0  -0.073775  0  3.744796  0  0  -0.082626  0  3.990489  0  0  -0.088401  0  4.014505  0  0  -0.088048  -0.078828  0  3.97425  0
C  C50  1  0.12152153  0.07679636  0.87348052  1  0  -0.073918  0  3.744916  0  0  -0.082776  0  3.990634  0  0  -0.088565  0  4.014655  0  0  -0.088118  -0.078977  0  3.974393  0
C  C51  1  0.37849756  0.92319789  0.37348678  1  0  -0.073958  0  3.744838  0  0  -0.082795  0  3.990557  0  0  -0.08857  0  4.014583  0  0  -0.088005  -0.078996  0  3.974321  0
C  C52  1  0.86080721  0.03696874  0.10029845  1  0  -0.049618  0  3.706463  0  0  -0.074549  0  3.954603  0  0  -0.073519  0  3.977332  0  0  -0.071432  -0.074861  0  3.938956  0
C  C53  1  0.63920785  0.96303933  0.60029573  1  0  -0.04972  0  3.706628  0  0  -0.074658  0  3.954782  0  0  -0.07363  0  3.977511  0  0  -0.071372  -0.074965  0  3.939131  0
C  C54  1  0.13920101  0.96302682  0.89970052  1  0  -0.049331  0  3.706287  0  0  -0.074332  0  3.954376  0  0  -0.073303  0  3.977106  0  0  -0.071272  -0.074641  0  3.938722  0
C  C55  1  0.36080900  0.03696866  0.39970509  1  0  -0.049491  0  3.706584  0  0  -0.074456  0  3.954642  0  0  -0.073425  0  3.977365  0  0  -0.071333  -0.074767  0  3.938994  0
C  C56  1  0.66552737  0.24731944  0.99334327  1  0  -0.142716  0  3.931419  0  0  -0.124441  0  4.169831  0  0  -0.135384  0  4.187146  0  0  -0.016061  -0.117391  0  4.158203  0
C  C57  1  0.83445278  0.75267745  0.49334154  1  0  -0.142711  0  3.931132  0  0  -0.124499  0  4.169723  0  0  -0.135452  0  4.187036  0  0  -0.016033  -0.117454  0  4.158097  0
C  C58  1  0.33443672  0.75268212  0.00666247  1  0  -0.142556  0  3.93107  0  0  -0.124271  0  4.169586  0  0  -0.135219  0  4.186901  0  0  -0.016089  -0.117235  0  4.157971  0
C  C59  1  0.16553595  0.24732599  0.50665496  1  0  -0.14261  0  3.931178  0  0  -0.124276  0  4.169567  0  0  -0.135234  0  4.186883  0  0  -0.015888  -0.117242  0  4.15796  0
C  C60  1  0.01178526  0.33810030  0.01628703  1  0  -0.169977  0  3.936649  0  0  -0.153829  0  4.183771  0  0  -0.167337  0  4.203329  0  0  -0.023544  -0.144998  0  4.1707  0
C  C61  1  0.48819822  0.66190445  0.51628348  1  0  -0.169831  0  3.936406  0  0  -0.153688  0  4.183623  0  0  -0.167196  0  4.203192  0  0  -0.023533  -0.144855  0  4.17054  0
C  C62  1  0.98818751  0.66188978  0.98371563  1  0  -0.16999  0  3.936731  0  0  -0.153731  0  4.183831  0  0  -0.167247  0  4.203407  0  0  -0.023605  -0.144885  0  4.170719  0
C  C63  1  0.51179214  0.33809988  0.48371303  1  0  -0.169941  0  3.936572  0  0  -0.153833  0  4.183849  0  0  -0.167349  0  4.20341  0  0  -0.023597  -0.145001  0  4.170759  0
C  C64  1  0.16074230  0.36758661  0.07445551  1  0  0.314346  0  3.833536  0  0  0.297654  0  4.105123  0  0  0.310083  0  4.125114  0  0  0.190913  0.289241  0  4.091704  0
C  C65  1  0.33924675  0.63241195  0.57445295  1  0  0.314271  0  3.833871  0  0  0.297594  0  4.105478  0  0  0.310022  0  4.125471  0  0  0.190888  0.289181  0  4.092058  0
C  C66  1  0.83923944  0.63240529  0.92554777  1  0  0.314453  0  3.834102  0  0  0.297748  0  4.105644  0  0  0.310183  0  4.125635  0  0  0.190983  0.289332  0  4.092219  0
C  C67  1  0.66074928  0.36758621  0.42554295  1  0  0.314397  0  3.833709  0  0  0.297724  0  4.105313  0  0  0.310157  0  4.1253  0  0  0.190952  0.289312  0  4.09189  0
C  C68  1  0.05980183  0.37184244  0.93452588  1  0  0.326202  0  3.824307  0  0  0.310732  0  4.091404  0  0  0.324749  0  4.109207  0  0  0.198285  0.301262  0  4.079809  0
C  C69  1  0.44017877  0.62815165  0.43451958  1  0  0.326016  0  3.824  0  0  0.310559  0  4.091138  0  0  0.324574  0  4.108942  0  0  0.198218  0.301089  0  4.079536  0
C  C70  1  0.94017936  0.62815919  0.06547555  1  0  0.325976  0  3.824005  0  0  0.310483  0  4.091111  0  0  0.324501  0  4.108916  0  0  0.198181  0.30101  0  4.079509  0
C  C71  1  0.55981232  0.37183763  0.56547262  1  0  0.326148  0  3.824104  0  0  0.310697  0  4.091228  0  0  0.32472  0  4.109032  0  0  0.198248  0.301228  0  4.079626  0
C  C72  1  0.50004383  0.17519718  0.02545549  1  0  0.26991  0  3.810783  0  0  0.252549  0  4.086036  0  0  0.263189  0  4.105883  0  0  0.179627  0.245451  0  4.072659  0
C  C73  1  0.99994947  0.82480437  0.52545420  1  0  0.270023  0  3.810468  0  0  0.252703  0  4.085729  0  0  0.263349  0  4.105563  0  0  0.179674  0.245608  0  4.072357  0
C  C74  1  0.49992596  0.82480440  0.97455148  1  0  0.269685  0  3.810643  0  0  0.252352  0  4.085898  0  0  0.262997  0  4.105741  0  0  0.179463  0.245257  0  4.072522  0
C  C75  1  0.00004357  0.17520529  0.47454478  1  0  0.270054  0  3.810536  0  0  0.252699  0  4.085762  0  0  0.263351  0  4.105597  0  0  0.179693  0.245605  0  4.072393  0
C  C76  1  0.64521381  0.29018887  0.91267008  1  0  0.320563  0  3.793201  0  0  0.30795  0  4.052465  0  0  0.321426  0  4.06981  0  0  0.200252  0.298846  0  4.040799  0
C  C77  1  0.85476936  0.70981658  0.41266634  1  0  0.320572  0  3.793504  0  0  0.308003  0  4.052762  0  0  0.321487  0  4.070103  0  0  0.20027  0.2989  0  4.041092  0
C  C78  1  0.35474177  0.70981885  0.08733505  1  0  0.320412  0  3.793201  0  0  0.30782  0  4.052473  0  0  0.321306  0  4.069814  0  0  0.200159  0.298719  0  4.040805  0
C  C79  1  0.14522390  0.29019396  0.58733140  1  0  0.320647  0  3.793495  0  0  0.308032  0  4.05273  0  0  0.321518  0  4.070066  0  0  0.20027  0.298933  0  4.041068  0
N  N80  1  0.10702607  0.39863761  0.86706766  1  0  -0.515731  0  2.66537  0  0  -0.488837  0  2.911358  0  0  -0.501645  0  2.920886  0  0  -0.440901  -0.480364  0  2.905512  0
N  N81  1  0.39297207  0.60135291  0.36706344  1  0  -0.515548  0  2.665211  0  0  -0.488643  0  2.911206  0  0  -0.501451  0  2.920736  0  0  -0.440851  -0.480173  0  2.905357  0
N  N82  1  0.89296711  0.60136053  0.13293747  1  0  -0.515541  0  2.66493  0  0  -0.488634  0  2.910921  0  0  -0.501444  0  2.920451  0  0  -0.440819  -0.480161  0  2.905073  0
N  N83  1  0.60703268  0.39863997  0.63293368  1  0  -0.515723  0  2.66513  0  0  -0.488825  0  2.91112  0  0  -0.501638  0  2.92065  0  0  -0.440884  -0.480353  0  2.905273  0
N  N84  1  0.28349247  0.39356984  0.12287486  1  0  -0.499017  0  2.648769  0  0  -0.475004  0  2.890649  0  0  -0.486925  0  2.901565  0  0  -0.423371  -0.466923  0  2.88342  0
N  N85  1  0.21650926  0.60642948  0.62287342  1  0  -0.499029  0  2.649  0  0  -0.475018  0  2.890892  0  0  -0.486935  0  2.901811  0  0  -0.423369  -0.466938  0  2.883663  0
N  N86  1  0.71649580  0.60642562  0.87712104  1  0  -0.499184  0  2.649024  0  0  -0.47518  0  2.890927  0  0  -0.487102  0  2.901842  0  0  -0.423518  -0.467099  0  2.883702  0
N  N87  1  0.78349331  0.39357225  0.37712801  1  0  -0.499066  0  2.64899  0  0  -0.47507  0  2.890902  0  0  -0.486988  0  2.901816  0  0  -0.423391  -0.46699  0  2.883673  0
N  N88  1  0.36143699  0.11550315  0.05009733  1  0  -0.393817  0  2.595751  0  0  -0.371462  0  2.830276  0  0  -0.381925  0  2.844614  0  0  -0.298027  -0.364482  0  2.820648  0
N  N89  1  0.13855565  0.88448886  0.55009475  1  0  -0.393898  0  2.595799  0  0  -0.371541  0  2.830308  0  0  -0.382002  0  2.844636  0  0  -0.298073  -0.364567  0  2.82069  0
N  N90  1  0.63853780  0.88448339  0.94990410  1  0  -0.393629  0  2.595763  0  0  -0.371288  0  2.830285  0  0  -0.38175  0  2.84462  0  0  -0.297864  -0.364314  0  2.820664  0
N  N91  1  0.86143857  0.11551372  0.44989991  1  0  -0.393976  0  2.59571  0  0  -0.371643  0  2.830265  0  0  -0.382108  0  2.844596  0  0  -0.298134  -0.364664  0  2.820638  0
N  N92  1  0.62133432  0.32774791  0.84698249  1  0  -0.482909  0  2.638075  0  0  -0.455397  0  2.871386  0  0  -0.467742  0  2.881766  0  0  -0.380154  -0.446858  0  2.864271  0
N  N93  1  0.87864343  0.67225300  0.34697987  1  0  -0.482951  0  2.638312  0  0  -0.455463  0  2.871605  0  0  -0.467823  0  2.882014  0  0  -0.380144  -0.446917  0  2.864475  0
N  N94  1  0.37863769  0.67225102  0.15302264  1  0  -0.482819  0  2.637899  0  0  -0.455326  0  2.871192  0  0  -0.467678  0  2.881579  0  0  -0.380011  -0.44678  0  2.864059  0
N  N95  1  0.12134979  0.32775134  0.65301541  1  0  -0.483024  0  2.638457  0  0  -0.455522  0  2.871761  0  0  -0.467875  0  2.882158  0  0  -0.380204  -0.446979  0  2.864633  0
O  O96  1  0.78901658  0.32488782  0.18059931  1  0  -0.530459  0  1.982702  0  0  -0.485827  0  2.201576  0  0  -0.504609  0  2.197912  0  0  -0.339384  -0.472439  0  2.204048  0
O  O97  1  0.71097839  0.67511780  0.68059272  1  0  -0.530265  0  1.982954  0  0  -0.485623  0  2.201763  0  0  -0.504398  0  2.198097  0  0  -0.339238  -0.472239  0  2.204238  0
O  O98  1  0.21097044  0.67510232  0.81940520  1  0  -0.530406  0  1.982664  0  0  -0.485743  0  2.201516  0  0  -0.504526  0  2.197849  0  0  -0.339328  -0.472348  0  2.20399  0
O  O99  1  0.28901826  0.32488302  0.31940071  1  0  -0.530419  0  1.982643  0  0  -0.485792  0  2.201523  0  0  -0.504575  0  2.197859  0  0  -0.339337  -0.472403  0  2.203998  0
