# generated using pymatgen
data_Zn2H11C18S(NO2)4
_symmetry_space_group_name_H-M   'P 1'
_cell_length_a   7.74739663
_cell_length_b   11.06897836
_cell_length_c   11.27112395
_cell_angle_alpha   82.42613607
_cell_angle_beta   80.44534379
_cell_angle_gamma   79.00991428
_symmetry_Int_Tables_number   1
_chemical_formula_structural   Zn2H11C18S(NO2)4
_chemical_formula_sum   'Zn4 H22 C36 S2 N8 O16'
_cell_volume   930.65285219
_cell_formula_units_Z   2
loop_
 _symmetry_equiv_pos_site_id
 _symmetry_equiv_pos_as_xyz
  1  'x, y, z'
loop_
 _atom_site_type_symbol
 _atom_site_label
 _atom_site_symmetry_multiplicity
 _atom_site_fract_x
 _atom_site_fract_y
 _atom_site_fract_z
 _atom_site_occupancy
 _atom_site_hle17_bader_spin_density
 _atom_site_hle17_ddec_charge
 _atom_site_hle17_ddec_spin_density
 _atom_site_hle17_ddec_sum_bond_order
 _atom_site_hle17_magmom
 _atom_site_hse06_10hf_bader_spin_density
 _atom_site_hse06_10hf_ddec_charge
 _atom_site_hse06_10hf_ddec_spin_density
 _atom_site_hse06_10hf_ddec_sum_bond_order
 _atom_site_hse06_10hf_magmom
 _atom_site_hse06_bader_spin_density
 _atom_site_hse06_ddec_charge
 _atom_site_hse06_ddec_spin_density
 _atom_site_hse06_ddec_sum_bond_order
 _atom_site_hse06_magmom
 _atom_site_pbe_bader_spin_density
 _atom_site_pbe_cm5_charge
 _atom_site_pbe_ddec_charge
 _atom_site_pbe_ddec_spin_density
 _atom_site_pbe_ddec_sum_bond_order
 _atom_site_pbe_magmom
Zn  Zn0  1  0.78500653  0.80578489  0.46476922  1  0  1.051965  0  1.90078  0  0  0.87738  0  2.387323  0  0  0.923632  0  2.333464  0  0  0.651862  0.846339  0  2.42444  0
Zn  Zn1  1  0.21499297  0.19421297  0.53524248  1  0  1.051994  0  1.900876  0  0  0.877449  0  2.387441  0  0  0.923717  0  2.333571  0  0  0.651886  0.846411  0  2.424563  0
Zn  Zn2  1  0.14195629  0.74712457  0.54131357  1  0  1.044946  0  1.922459  0  0  0.875479  0  2.397466  0  0  0.918334  0  2.347404  0  0  0.656809  0.84739  0  2.431352  0
Zn  Zn3  1  0.85802853  0.25288547  0.45869130  1  0  1.044974  0  1.922547  0  0  0.875524  0  2.397572  0  0  0.918399  0  2.347488  0  0  0.656814  0.847443  0  2.431458  0
H  H4  1  0.32731908  0.88659400  0.62203900  1  0  0.441745  0  0.854856  0  0  0.410315  0  0.918501  0  0  0.421756  0  0.90187  0  0  0.301143  0.402334  0  0.930084  0
H  H5  1  0.67268186  0.11340975  0.37795952  1  0  0.441751  0  0.854846  0  0  0.410315  0  0.918497  0  0  0.421756  0  0.901865  0  0  0.30117  0.402332  0  0.930082  0
H  H6  1  0.41526031  0.85814100  0.48464466  1  0  0.433797  0  0.86538  0  0  0.402051  0  0.930227  0  0  0.412346  0  0.915294  0  0  0.299597  0.394838  0  0.940653  0
H  H7  1  0.58472326  0.14186473  0.51534923  1  0  0.43376  0  0.865435  0  0  0.40202  0  0.930273  0  0  0.412316  0  0.915337  0  0  0.299591  0.394804  0  0.940699  0
H  H8  1  0.40944974  0.81141552  0.94763956  1  0  0.117193  0  0.965822  0  0  0.123092  0  1.032768  0  0  0.126818  0  1.02915  0  0  0.113339  0.120372  0  1.035386  0
H  H9  1  0.59055843  0.18858103  0.05235185  1  0  0.11709  0  0.96601  0  0  0.123072  0  1.032856  0  0  0.126773  0  1.029262  0  0  0.113326  0.12035  0  1.035476  0
H  H10  1  0.08437051  0.87824188  0.01426388  1  0  0.106519  0  0.947414  0  0  0.114021  0  1.008834  0  0  0.117415  0  1.007374  0  0  0.106648  0.111598  0  1.010058  0
H  H11  1  0.91563672  0.12177418  0.98572299  1  0  0.106496  0  0.947474  0  0  0.114006  0  1.008906  0  0  0.117401  0  1.007445  0  0  0.106644  0.111584  0  1.010128  0
H  H12  1  0.98801407  0.99649455  0.19530435  1  0  0.121425  0  0.939032  0  0  0.126488  0  1.006424  0  0  0.130677  0  1.002622  0  0  0.113484  0.123386  0  1.009131  0
H  H13  1  0.01198898  0.00351670  0.80468965  1  0  0.121473  0  0.939083  0  0  0.126514  0  1.006471  0  0  0.130702  0  1.002668  0  0  0.113509  0.12341  0  1.009177  0
H  H14  1  0.44249630  0.24836245  0.26761833  1  0  0.124174  0  0.962955  0  0  0.13061  0  1.026843  0  0  0.135396  0  1.024447  0  0  0.107754  0.127251  0  1.028571  0
H  H15  1  0.55754061  0.75164169  0.73239953  1  0  0.124167  0  0.963155  0  0  0.130588  0  1.027052  0  0  0.135375  0  1.024652  0  0  0.107751  0.127231  0  1.028784  0
H  H16  1  0.59118003  0.36988301  0.09151534  1  0  0.079172  0  0.961779  0  0  0.091974  0  1.022615  0  0  0.094501  0  1.020138  0  0  0.096311  0.09012  0  1.024476  0
H  H17  1  0.40886327  0.63010636  0.90850248  1  0  0.07916  0  0.961762  0  0  0.091882  0  1.022701  0  0  0.09441  0  1.020227  0  0  0.096262  0.09003  0  1.024562  0
H  H18  1  0.60110329  0.58988647  0.09192189  1  0  0.085117  0  0.981323  0  0  0.09107  0  1.052509  0  0  0.093887  0  1.052519  0  0  0.089689  0.089137  0  1.052537  0
H  H19  1  0.39890871  0.41010995  0.90807446  1  0  0.085025  0  0.981436  0  0  0.091026  0  1.05257  0  0  0.093843  0  1.052578  0  0  0.089686  0.089092  0  1.052598  0
H  H20  1  0.45623269  0.70262426  0.27396100  1  0  0.112316  0  0.967685  0  0  0.119329  0  1.032091  0  0  0.123253  0  1.029667  0  0  0.102845  0.116528  0  1.033834  0
H  H21  1  0.54374768  0.29738441  0.72602671  1  0  0.112475  0  0.967648  0  0  0.119515  0  1.031963  0  0  0.123437  0  1.02955  0  0  0.102973  0.11671  0  1.033706  0
H  H22  1  0.02236508  0.30802813  0.72624500  1  0  0.178027  0  0.972747  0  0  0.181326  0  1.035249  0  0  0.187704  0  1.03053  0  0  0.117439  0.176889  0  1.038732  0
H  H23  1  0.97765330  0.69196365  0.27375206  1  0  0.17806  0  0.972633  0  0  0.181291  0  1.035266  0  0  0.187657  0  1.030569  0  0  0.117439  0.176853  0  1.038754  0
H  H24  1  0.94652074  0.69674095  0.84167940  1  0  0.135201  0  0.951505  0  0  0.137686  0  1.018802  0  0  0.141876  0  1.0137  0  0  0.129352  0.134625  0  1.0225  0
H  H25  1  0.05348071  0.30325974  0.15833004  1  0  0.135206  0  0.951574  0  0  0.137691  0  1.018874  0  0  0.141878  0  1.013773  0  0  0.129361  0.134634  0  1.022566  0
C  C26  1  0.36176719  0.85643909  0.02967674  1  0  -0.080159  0  3.728949  0  0  -0.11327  0  3.997329  0  0  -0.111081  0  4.016725  0  0  -0.075655  -0.114337  0  3.9842  0
C  C27  1  0.63823604  0.14356103  0.97031926  1  0  -0.079957  0  3.729128  0  0  -0.113152  0  3.997476  0  0  -0.110939  0  4.016888  0  0  -0.075596  -0.114223  0  3.984348  0
C  C28  1  0.18222501  0.89655028  0.06540139  1  0  -0.06065  0  3.720443  0  0  -0.074773  0  3.982128  0  0  -0.080714  0  4.002711  0  0  -0.085731  -0.071058  0  3.96811  0
C  C29  1  0.81778131  0.10344230  0.93460038  1  0  -0.060682  0  3.720594  0  0  -0.074836  0  3.98232  0  0  -0.080778  0  4.0029  0  0  -0.085778  -0.071129  0  3.968302  0
C  C30  1  0.12822754  0.96261120  0.16604727  1  0  0.012653  0  3.617567  0  0  -0.025118  0  3.880917  0  0  -0.01807  0  3.893809  0  0  -0.056015  -0.029223  0  3.871705  0
C  C31  1  0.87177637  0.03738612  0.83394983  1  0  0.012574  0  3.61762  0  0  -0.025131  0  3.880957  0  0  -0.018081  0  3.893841  0  0  -0.056002  -0.029237  0  3.871745  0
C  C32  1  0.25246636  0.98926285  0.23193316  1  0  -0.06252  0  3.663003  0  0  -0.048608  0  3.904195  0  0  -0.056944  0  3.923986  0  0  -0.005274  -0.043349  0  3.890834  0
C  C33  1  0.74753063  0.01074656  0.76806075  1  0  -0.062443  0  3.662888  0  0  -0.048625  0  3.90415  0  0  -0.056957  0  3.923925  0  0  -0.005337  -0.043369  0  3.89079  0
C  C34  1  0.18268157  0.07270526  0.33092496  1  0  0.664851  0  3.873328  0  0  0.609404  0  4.166511  0  0  0.644472  0  4.159679  0  0  0.220244  0.585814  0  4.169748  0
C  C35  1  0.81731720  0.92729660  0.66907486  1  0  0.664826  0  3.873259  0  0  0.609471  0  4.166296  0  0  0.644544  0  4.159452  0  0  0.220229  0.585882  0  4.16954  0
C  C36  1  0.43485989  0.94282521  0.20197112  1  0  -0.064391  0  3.629712  0  0  -0.063378  0  3.879022  0  0  -0.062124  0  3.894698  0  0  0.010962  -0.063938  0  3.868258  0
C  C37  1  0.56513881  0.05718795  0.79802046  1  0  -0.064248  0  3.629611  0  0  -0.06323  0  3.878848  0  0  -0.061976  0  3.894519  0  0  0.011019  -0.06379  0  3.86808  0
C  C38  1  0.48485636  0.87739187  0.09906387  1  0  0.033176  0  3.703284  0  0  0.013647  0  3.957014  0  0  0.007332  0  3.981396  0  0  0.073059  0.017466  0  3.940832  0
C  C39  1  0.51513852  0.12261004  0.90093458  1  0  0.032991  0  3.703251  0  0  0.013444  0  3.957054  0  0  0.007132  0  3.981424  0  0  0.072986  0.017265  0  3.940865  0
C  C40  1  0.56974046  0.95679261  0.28063439  1  0  0.697195  0  3.91457  0  0  0.628078  0  4.237047  0  0  0.664595  0  4.224136  0  0  0.22279  0.60305  0  4.244966  0
C  C41  1  0.43025110  0.04320194  0.71936337  1  0  0.696976  0  3.914972  0  0  0.627948  0  4.237345  0  0  0.664472  0  4.224426  0  0  0.222766  0.602917  0  4.245263  0
C  C42  1  0.44149982  0.34654142  0.26893805  1  0  -0.138942  0  3.702018  0  0  -0.157557  0  3.956777  0  0  -0.164264  0  3.973491  0  0  -0.090841  -0.153738  0  3.946031  0
C  C43  1  0.55851208  0.65347065  0.73105939  1  0  -0.139216  0  3.701877  0  0  -0.157618  0  3.956751  0  0  -0.16432  0  3.973464  0  0  -0.090885  -0.153808  0  3.946021  0
C  C44  1  0.52559697  0.41546432  0.17110568  1  0  -0.024651  0  3.718148  0  0  -0.04517  0  3.976062  0  0  -0.037619  0  3.990843  0  0  -0.08239  -0.049811  0  3.965903  0
C  C45  1  0.47442414  0.58453646  0.82889995  1  0  -0.024559  0  3.71759  0  0  -0.045008  0  3.975492  0  0  -0.037461  0  3.990273  0  0  -0.082243  -0.049651  0  3.965349  0
C  C46  1  0.53138120  0.54258650  0.17114088  1  0  -0.108925  0  3.797021  0  0  -0.127779  0  4.062915  0  0  -0.134773  0  4.086239  0  0  -0.109475  -0.12305  0  4.046897  0
C  C47  1  0.46863907  0.45740232  0.82886339  1  0  -0.108722  0  3.797095  0  0  -0.127627  0  4.062956  0  0  -0.134617  0  4.086281  0  0  -0.109462  -0.1229  0  4.046942  0
C  C48  1  0.45155949  0.60573512  0.26973843  1  0  -0.101095  0  3.679885  0  0  -0.120436  0  3.932716  0  0  -0.118485  0  3.947198  0  0  -0.084256  -0.121802  0  3.922912  0
C  C49  1  0.54842431  0.39426838  0.73026987  1  0  -0.101441  0  3.680379  0  0  -0.120723  0  3.933208  0  0  -0.118782  0  3.947689  0  0  -0.084438  -0.122081  0  3.923394  0
C  C50  1  0.36348544  0.53823560  0.36848896  1  0  0.177825  0  3.784139  0  0  0.171602  0  4.030949  0  0  0.177281  0  4.047122  0  0  0.102885  0.167992  0  4.019505  0
C  C51  1  0.63648707  0.46176732  0.63150636  1  0  0.17787  0  3.783479  0  0  0.171622  0  4.030634  0  0  0.177307  0  4.046807  0  0  0.102896  0.168011  0  4.019191  0
C  C52  1  0.35993473  0.40916025  0.36859422  1  0  0.176869  0  3.771651  0  0  0.169967  0  4.019805  0  0  0.179883  0  4.038182  0  0  0.095791  0.163439  0  4.007268  0
C  C53  1  0.64005245  0.59084755  0.63139110  1  0  0.177486  0  3.770767  0  0  0.170071  0  4.019764  0  0  0.179981  0  4.038147  0  0  0.095929  0.163545  0  4.007236  0
C  C54  1  0.21447735  0.47223932  0.53712738  1  0  0.331403  0  3.766712  0  0  0.301275  0  4.034309  0  0  0.317994  0  4.04797  0  0  0.221972  0.290242  0  4.024755  0
C  C55  1  0.78552329  0.52775956  0.46288054  1  0  0.331699  0  3.766694  0  0  0.301714  0  4.034052  0  0  0.318426  0  4.047719  0  0  0.22213  0.290675  0  4.024512  0
C  C56  1  0.10838823  0.48754529  0.65369375  1  0  0.123981  0  3.791097  0  0  0.123445  0  4.043622  0  0  0.124279  0  4.063613  0  0  0.094807  0.122242  0  4.030635  0
C  C57  1  0.89163422  0.51245112  0.34630243  1  0  0.123723  0  3.791594  0  0  0.123196  0  4.044033  0  0  0.124031  0  4.064031  0  0  0.094804  0.122  0  4.031042  0
C  C58  1  0.02990403  0.40342939  0.73758622  1  0  -0.182447  0  3.549515  0  0  -0.210237  0  3.82789  0  0  -0.204864  0  3.836622  0  0  -0.07474  -0.213583  0  3.82218  0
C  C59  1  0.97010620  0.59656318  0.26241604  1  0  -0.182574  0  3.549723  0  0  -0.210328  0  3.828059  0  0  -0.204962  0  3.836805  0  0  -0.07484  -0.213671  0  3.822352  0
C  C60  1  0.98697195  0.61251242  0.79697497  1  0  0.057776  0  3.611536  0  0  0.021658  0  3.892645  0  0  0.03371  0  3.902376  0  0  0.060615  0.01272  0  3.88784  0
C  C61  1  0.01300452  0.38747917  0.20302997  1  0  0.057725  0  3.611595  0  0  0.0216  0  3.892741  0  0  0.033654  0  3.902467  0  0  0.06056  0.012643  0  3.88797  0
S  S62  1  0.92716293  0.47377454  0.86245757  1  0  0.188983  0  2.624106  0  0  0.198719  0  2.963332  0  0  0.194046  0  2.969189  0  0  0.134024  0.201602  0  2.959735  0
S  S63  1  0.07286049  0.52619100  0.13755407  1  0  0.189157  0  2.62416  0  0  0.198898  0  2.963376  0  0  0.194221  0  2.969232  0  0  0.13415  0.201791  0  2.959783  0
N  N64  1  0.67083349  0.82598061  0.06087350  1  0  0.472552  0  3.940464  0  0  0.527033  0  4.198884  0  0  0.548896  0  4.207695  0  0  0.053165  0.512236  0  4.19318  0
N  N65  1  0.32916116  0.17402222  0.93912488  1  0  0.472692  0  3.940393  0  0  0.527125  0  4.198904  0  0  0.548988  0  4.207713  0  0  0.053054  0.512328  0  4.1932  0
N  N66  1  0.26589879  0.36961729  0.47824205  1  0  -0.473951  0  3.130516  0  0  -0.402261  0  3.422503  0  0  -0.426048  0  3.431006  0  0  -0.346476  -0.385813  0  3.41607  0
N  N67  1  0.73411341  0.63036802  0.52175542  1  0  -0.474142  0  3.13092  0  0  -0.402363  0  3.423048  0  0  -0.42614  0  3.431558  0  0  -0.34659  -0.385918  0  3.416623  0
N  N68  1  0.27385634  0.57560409  0.47506999  1  0  -0.423181  0  3.08324  0  0  -0.360026  0  3.360521  0  0  -0.374478  0  3.368858  0  0  -0.323521  -0.34973  0  3.354065  0
N  N69  1  0.72612859  0.42438588  0.52492626  1  0  -0.423404  0  3.082923  0  0  -0.360219  0  3.36018  0  0  -0.374681  0  3.368517  0  0  -0.323611  -0.349919  0  3.353729  0
N  N70  1  0.07892073  0.60633805  0.68880701  1  0  -0.329608  0  3.259715  0  0  -0.265238  0  3.533502  0  0  -0.281277  0  3.548213  0  0  -0.318068  -0.254562  0  3.524037  0
N  N71  1  0.92106456  0.39366445  0.31120391  1  0  -0.329549  0  3.259892  0  0  -0.265218  0  3.533721  0  0  -0.281256  0  3.548428  0  0  -0.318103  -0.254537  0  3.52425  0
O  O72  1  0.02386000  0.12753488  0.33496357  1  0  -0.615972  0  2.060547  0  0  -0.551027  0  2.315911  0  0  -0.577405  0  2.303782  0  0  -0.301253  -0.532123  0  2.323025  0
O  O73  1  0.97612223  0.87245369  0.66505085  1  0  -0.61593  0  2.060712  0  0  -0.551015  0  2.316041  0  0  -0.577389  0  2.303904  0  0  -0.301189  -0.532117  0  2.323162  0
O  O74  1  0.29254840  0.08510461  0.40031095  1  0  -0.633708  0  2.09753  0  0  -0.553056  0  2.362728  0  0  -0.581549  0  2.347398  0  0  -0.31005  -0.532593  0  2.371909  0
O  O75  1  0.70744429  0.91490106  0.59968467  1  0  -0.633817  0  2.097405  0  0  -0.553147  0  2.362564  0  0  -0.581654  0  2.34724  0  0  -0.310074  -0.532686  0  2.371749  0
O  O76  1  0.65044971  0.04608267  0.25920552  1  0  -0.58154  0  1.981556  0  0  -0.529829  0  2.209416  0  0  -0.555744  0  2.19936  0  0  -0.289455  -0.511104  0  2.215392  0
O  O77  1  0.34955883  0.95392200  0.74079302  1  0  -0.581308  0  1.982109  0  0  -0.529636  0  2.209933  0  0  -0.555542  0  2.199872  0  0  -0.289316  -0.510919  0  2.215913  0
O  O78  1  0.58567633  0.86745947  0.36681421  1  0  -0.667105  0  2.123287  0  0  -0.585989  0  2.402784  0  0  -0.615947  0  2.384763  0  0  -0.319957  -0.564485  0  2.413923  0
O  O79  1  0.41430349  0.13255534  0.63318536  1  0  -0.667088  0  2.123218  0  0  -0.586015  0  2.402708  0  0  -0.616  0  2.384707  0  0  -0.320014  -0.564522  0  2.413878  0
O  O80  1  0.70812761  0.77247086  0.96665590  1  0  -0.385066  0  1.803345  0  0  -0.374217  0  2.014372  0  0  -0.38862  0  2.012022  0  0  -0.13724  -0.364483  0  2.015995  0
O  O81  1  0.29185761  0.22753853  0.03333922  1  0  -0.385121  0  1.803321  0  0  -0.374243  0  2.014352  0  0  -0.388643  0  2.011995  0  0  -0.137179  -0.364514  0  2.015973  0
O  O82  1  0.78391595  0.83557748  0.12360204  1  0  -0.344064  0  1.831335  0  0  -0.325266  0  2.036034  0  0  -0.337438  0  2.034091  0  0  -0.10742  -0.316986  0  2.037447  0
O  O83  1  0.21607714  0.16442055  0.87640320  1  0  -0.344107  0  1.831434  0  0  -0.32527  0  2.036136  0  0  -0.337443  0  2.034192  0  0  -0.107363  -0.316985  0  2.037531  0
O  O84  1  0.02672529  0.79167912  0.39962122  1  0  -0.869955  0  1.397294  0  0  -0.764752  0  1.706542  0  0  -0.822169  0  1.694601  0  0  -0.484466  -0.730199  0  1.716472  0
O  O85  1  0.97326914  0.20831453  0.60037545  1  0  -0.86996  0  1.397325  0  0  -0.764766  0  1.706573  0  0  -0.822355  0  1.694646  0  0  -0.484395  -0.730212  0  1.716512  0
O  O86  1  0.34228145  0.82776828  0.55928492  1  0  -0.82101  0  1.976123  0  0  -0.747735  0  2.204288  0  0  -0.770454  0  2.167011  0  0  -0.574378  -0.731689  0  2.229505  0
O  O87  1  0.65769853  0.17224106  0.44071164  1  0  -0.821004  0  1.976095  0  0  -0.747739  0  2.204282  0  0  -0.77046  0  2.167003  0  0  -0.574446  -0.731705  0  2.229523  0
