# generated using pymatgen
data_BaH18C12(N4O5)2
_symmetry_space_group_name_H-M   'P 1'
_cell_length_a   4.68358150
_cell_length_b   8.38424726
_cell_length_c   12.59049664
_cell_angle_alpha   103.97601037
_cell_angle_beta   100.73181164
_cell_angle_gamma   89.99587717
_symmetry_Int_Tables_number   1
_chemical_formula_structural   BaH18C12(N4O5)2
_chemical_formula_sum   'Ba1 H18 C12 N8 O10'
_cell_volume   470.85704587
_cell_formula_units_Z   1
loop_
 _symmetry_equiv_pos_site_id
 _symmetry_equiv_pos_as_xyz
  1  'x, y, z'
loop_
 _atom_site_type_symbol
 _atom_site_label
 _atom_site_symmetry_multiplicity
 _atom_site_fract_x
 _atom_site_fract_y
 _atom_site_fract_z
 _atom_site_occupancy
 _atom_site_pbe_bader_spin_density
 _atom_site_pbe_cm5_charge
 _atom_site_pbe_ddec_charge
 _atom_site_pbe_ddec_spin_density
 _atom_site_pbe_ddec_sum_bond_order
 _atom_site_pbe_magmom
Ba  Ba0  1  0.08625114  0.99998380  0.99998551  1  0  0.968955  1.382028  0  1.630586  0
H  H1  1  0.25056290  0.38111513  0.47965386  1  0  0.11636  0.11534  0  1.055553  0
H  H2  1  0.77145492  0.61852109  0.52028573  1  0  0.116332  0.115633  0  1.054959  0
H  H3  1  0.02515441  0.13256367  0.54098677  1  0  0.130423  0.093767  0  1.020679  0
H  H4  1  0.48438415  0.86755588  0.45918337  1  0  0.129895  0.09363  0  1.021281  0
H  H5  1  0.31213280  0.59981848  0.68241628  1  0  0.103579  0.114851  0  0.988625  0
H  H6  1  0.63019153  0.40017352  0.31751128  1  0  0.103058  0.114049  0  0.988546  0
H  H7  1  0.67961566  0.67051980  0.72894992  1  0  0.107206  0.117287  0  1.010133  0
H  H8  1  0.95111844  0.32945095  0.27098005  1  0  0.106692  0.116428  0  1.010589  0
H  H9  1  0.75592373  0.50997318  0.86840667  1  0  0.125756  0.096363  0  0.96441  0
H  H10  1  0.88779468  0.49019262  0.13159671  1  0  0.12546  0.095111  0  0.965583  0
H  H11  1  0.56202324  0.14961135  0.40099656  1  0  0.319339  0.28204  0  0.963519  0
H  H12  1  0.16140737  0.85023612  0.59904479  1  0  0.319349  0.281972  0  0.96427  0
H  H13  1  0.15642667  0.36724328  0.75690519  1  0  0.291156  0.269559  0  1.005797  0
H  H14  1  0.39982193  0.63273871  0.24310706  1  0  0.292151  0.270555  0  1.005414  0
H  H15  1  0.27849153  0.39139154  0.89735778  1  0  0.31204  0.301353  0  0.947281  0
H  H16  1  0.38110252  0.60854802  0.10264786  1  0  0.312966  0.30238  0  0.946964  0
H  H17  1  0.46843954  0.27652322  0.80899385  1  0  0.309912  0.299699  0  0.958626  0
H  H18  1  0.65942204  0.72353970  0.19099180  1  0  0.310213  0.298798  0  0.958874  0
C  C19  1  0.60835449  0.42074558  0.63089177  1  0  0.065349  0.155742  0  4.034819  0
C  C20  1  0.97793137  0.57920489  0.36910032  1  0  0.063398  0.153057  0  4.035299  0
C  C21  1  0.45456202  0.35098284  0.52509043  1  0  -0.005963  -0.120074  0  3.938387  0
C  C22  1  0.92997101  0.64883179  0.47491006  1  0  -0.006131  -0.12002  0  3.937387  0
C  C23  1  0.85951940  0.22065941  0.55615439  1  0  0.134151  0.151754  0  3.985062  0
C  C24  1  0.30371640  0.77933905  0.44393598  1  0  0.132963  0.149891  0  3.987943  0
C  C25  1  0.52975046  0.56326948  0.71514030  1  0  -0.153329  -0.25398  0  3.948813  0
C  C26  1  0.81507284  0.43671126  0.28481088  1  0  -0.151712  -0.251095  0  3.945495  0
C  C27  1  0.53207994  0.53042883  0.83013605  1  0  0.017206  0.054367  0  3.739833  0
C  C28  1  0.70230385  0.46961150  0.16983385  1  0  0.017382  0.055126  0  3.736817  0
C  C29  1  0.43235772  0.68182623  0.90792365  1  0  0.211938  0.574971  0  4.190976  0
C  C30  1  0.52492510  0.31816918  0.09201873  1  0  0.211605  0.573553  0  4.191654  0
N  N31  1  0.61689664  0.22524597  0.47933096  1  0  -0.388001  -0.211427  0  3.738404  0
N  N32  1  0.13798264  0.77460357  0.52072711  1  0  -0.385582  -0.208636  0  3.738264  0
N  N33  1  0.86248714  0.33795050  0.64899694  1  0  -0.344252  -0.370543  0  3.344274  0
N  N34  1  0.21386619  0.66210082  0.35105038  1  0  -0.343055  -0.369166  0  3.343388  0
N  N35  1  0.34664136  0.38163503  0.82217984  1  0  -0.603757  -0.456449  0  3.417121  0
N  N36  1  0.52461289  0.61836144  0.17781298  1  0  -0.605741  -0.457186  0  3.416434  0
N  N37  1  0.76323742  0.02134018  0.74729740  1  0  0.09257  0.722029  0  4.443696  0
N  N38  1  0.01659325  0.97882069  0.25270630  1  0  0.092124  0.706763  0  4.466093  0
O  O39  1  0.22856968  0.66128182  0.95826817  1  0  -0.354442  -0.602362  0  2.178082  0
O  O40  1  0.27076228  0.33864534  0.04162369  1  0  -0.354756  -0.602016  0  2.178015  0
O  O41  1  0.55876786  0.81930508  0.91641132  1  0  -0.385866  -0.630443  0  2.24373  0
O  O42  1  0.64294339  0.18072947  0.08363747  1  0  -0.385075  -0.629686  0  2.244552  0
O  O43  1  0.75003582  0.13621965  0.83454151  1  0  -0.214833  -0.487929  0  2.008012  0
O  O44  1  0.91535981  0.86399081  0.16552689  1  0  -0.214334  -0.483681  0  2.014553  0
O  O45  1  0.57203011  0.00441041  0.66155586  1  0  -0.167143  -0.424833  0  2.010219  0
O  O46  1  0.91179853  0.99605533  0.33859099  1  0  -0.167085  -0.418751  0  2.018242  0
O  O47  1  0.97671458  0.92735386  0.75181096  1  0  -0.203963  -0.482315  0  1.945109  0
O  O48  1  0.22580233  0.07247065  0.24798475  1  0  -0.20451  -0.477501  0  1.950258  0
