# generated using pymatgen
data_HoH9(CO)6
_symmetry_space_group_name_H-M   'P 1'
_cell_length_a   7.86472863
_cell_length_b   8.06679022
_cell_length_c   15.41349798
_cell_angle_alpha   104.47521438
_cell_angle_beta   104.04591393
_cell_angle_gamma   92.76466056
_symmetry_Int_Tables_number   1
_chemical_formula_structural   HoH9(CO)6
_chemical_formula_sum   'Ho4 H36 C24 O24'
_cell_volume   912.33547661
_cell_formula_units_Z   4
loop_
 _symmetry_equiv_pos_site_id
 _symmetry_equiv_pos_as_xyz
  1  'x, y, z'
loop_
 _atom_site_type_symbol
 _atom_site_label
 _atom_site_symmetry_multiplicity
 _atom_site_fract_x
 _atom_site_fract_y
 _atom_site_fract_z
 _atom_site_occupancy
 _atom_site_hle17_bader_spin_density
 _atom_site_hle17_ddec_charge
 _atom_site_hle17_ddec_spin_density
 _atom_site_hle17_ddec_sum_bond_order
 _atom_site_hle17_magmom
 _atom_site_hse06_10hf_bader_spin_density
 _atom_site_hse06_10hf_ddec_charge
 _atom_site_hse06_10hf_ddec_spin_density
 _atom_site_hse06_10hf_ddec_sum_bond_order
 _atom_site_hse06_10hf_magmom
 _atom_site_hse06_bader_spin_density
 _atom_site_hse06_ddec_charge
 _atom_site_hse06_ddec_spin_density
 _atom_site_hse06_ddec_sum_bond_order
 _atom_site_hse06_magmom
 _atom_site_pbe_bader_spin_density
 _atom_site_pbe_cm5_charge
 _atom_site_pbe_ddec_charge
 _atom_site_pbe_ddec_spin_density
 _atom_site_pbe_ddec_sum_bond_order
 _atom_site_pbe_magmom
Ho  Ho0  1  0.37881521  0.62881784  0.25752514  1  0  2.24119  0  1.682349  0  0  2.099651  0  2.151926  0  0  2.151309  0  2.111661  0  0  1.54326  2.060483  0  2.186128  0
Ho  Ho1  1  0.62118353  0.37118355  0.74247464  1  0  2.241093  0  1.682516  0  0  2.099492  0  2.152186  0  0  2.15116  0  2.111915  0  0  1.543244  2.060348  0  2.18635  0
Ho  Ho2  1  0.87327714  0.62303884  0.24635095  1  0  2.250066  0  1.686476  0  0  2.109669  0  2.152765  0  0  2.236393  0  1.968948  0  0  1.558348  2.07028  0  2.187106  0
Ho  Ho3  1  0.12672278  0.37696124  0.75365269  1  0  2.250039  0  1.686526  0  0  2.10956  0  2.152929  0  0  2.236362  0  1.968998  0  0  1.558335  2.070198  0  2.187237  0
H  H4  1  0.69973021  0.17068702  0.23732551  1  0  0.157044  0  0.950186  0  0  0.173526  0  1.009524  0  0  0.176436  0  1.00865  0  0  0.106864  0.171491  0  1.010033  0
H  H5  1  0.03874727  0.06669135  0.23746445  1  0  0.156685  0  0.951263  0  0  0.172718  0  1.010966  0  0  0.175623  0  1.010076  0  0  0.105952  0.170699  0  1.011459  0
H  H6  1  0.30027413  0.82930662  0.76267328  1  0  0.156985  0  0.950082  0  0  0.173444  0  1.009469  0  0  0.176354  0  1.008595  0  0  0.106849  0.171412  0  1.009973  0
H  H7  1  0.96124410  0.93330363  0.76252969  1  0  0.156745  0  0.951304  0  0  0.172767  0  1.011024  0  0  0.175672  0  1.010134  0  0  0.105963  0.170748  0  1.011521  0
H  H8  1  0.56464123  0.12036537  0.30961389  1  0  0.140808  0  0.939708  0  0  0.160146  0  0.996864  0  0  0.162603  0  0.99579  0  0  0.104348  0.158417  0  0.997427  0
H  H9  1  0.24599683  0.18989755  0.30980002  1  0  0.143145  0  0.939542  0  0  0.162041  0  0.996765  0  0  0.164456  0  0.995782  0  0  0.105028  0.160334  0  0.99729  0
H  H10  1  0.43536939  0.87962564  0.69039115  1  0  0.140876  0  0.939576  0  0  0.160156  0  0.996792  0  0  0.162615  0  0.995717  0  0  0.104297  0.158426  0  0.997354  0
H  H11  1  0.75400473  0.81008451  0.69019171  1  0  0.143201  0  0.939495  0  0  0.162096  0  0.996736  0  0  0.164511  0  0.995746  0  0  0.105084  0.16039  0  0.997261  0
H  H12  1  0.48741443  0.05050683  0.18689434  1  0  0.151899  0  0.939651  0  0  0.171647  0  0.99871  0  0  0.173986  0  0.998109  0  0  0.110095  0.170014  0  0.99898  0
H  H13  1  0.20039413  0.13682106  0.18706334  1  0  0.153111  0  0.940989  0  0  0.172217  0  1.000589  0  0  0.174605  0  0.999927  0  0  0.110352  0.170552  0  1.000902  0
H  H14  1  0.51259091  0.94948422  0.81310552  1  0  0.151924  0  0.939598  0  0  0.171675  0  0.998645  0  0  0.174014  0  0.998045  0  0  0.110124  0.17004  0  0.998916  0
H  H15  1  0.79959659  0.86316877  0.81292744  1  0  0.153043  0  0.940997  0  0  0.172123  0  1.000637  0  0  0.174504  0  0.999978  0  0  0.110339  0.170456  0  1.00095  0
H  H16  1  0.73645931  0.27758533  0.45544125  1  0  0.142595  0  0.926566  0  0  0.167443  0  0.977367  0  0  0.169041  0  0.97752  0  0  0.10782  0.166361  0  0.977101  0
H  H17  1  0.21908216  0.17810931  0.45547873  1  0  0.142777  0  0.928605  0  0  0.167676  0  0.979132  0  0  0.169266  0  0.979304  0  0  0.107671  0.166597  0  0.978857  0
H  H18  1  0.26353309  0.72241736  0.54456441  1  0  0.14261  0  0.926651  0  0  0.167452  0  0.97744  0  0  0.16905  0  0.977594  0  0  0.107818  0.166372  0  0.977169  0
H  H19  1  0.78091576  0.82189595  0.54452340  1  0  0.142743  0  0.928647  0  0  0.167648  0  0.979181  0  0  0.169237  0  0.979355  0  0  0.107669  0.166568  0  0.97891  0
H  H20  1  0.64045174  0.44485316  0.51953178  1  0  0.150554  0  0.9519  0  0  0.164973  0  1.016409  0  0  0.168498  0  1.014089  0  0  0.103343  0.162536  0  1.01783  0
H  H21  1  0.37924980  0.07515090  0.51960441  1  0  0.149941  0  0.952691  0  0  0.164531  0  1.01714  0  0  0.168068  0  1.014803  0  0  0.103079  0.162096  0  1.018555  0
H  H22  1  0.35955177  0.55515464  0.48047527  1  0  0.150501  0  0.951876  0  0  0.164898  0  1.016426  0  0  0.168422  0  1.014106  0  0  0.103291  0.162458  0  1.017847  0
H  H23  1  0.62075167  0.92486209  0.48039593  1  0  0.149963  0  0.952597  0  0  0.164569  0  1.017039  0  0  0.168104  0  1.014703  0  0  0.103091  0.162133  0  1.018454  0
H  H24  1  0.87219720  0.46772741  0.52558975  1  0  0.156745  0  0.944679  0  0  0.172677  0  1.005501  0  0  0.176319  0  1.003261  0  0  0.104402  0.170151  0  1.006905  0
H  H25  1  0.15355355  0.05836113  0.52565363  1  0  0.1573  0  0.943514  0  0  0.173213  0  1.004409  0  0  0.176827  0  1.002205  0  0  0.104536  0.170701  0  1.005806  0
H  H26  1  0.12779925  0.53227657  0.47441073  1  0  0.156719  0  0.944713  0  0  0.172663  0  1.005515  0  0  0.176303  0  1.003276  0  0  0.104406  0.170134  0  1.006919  0
H  H27  1  0.84645664  0.94164795  0.47435115  1  0  0.157324  0  0.943491  0  0  0.17322  0  1.004417  0  0  0.176836  0  1.002208  0  0  0.104516  0.170703  0  1.005816  0
H  H28  1  0.41452505  0.12368189  0.02070212  1  0  0.137991  0  0.94113  0  0  0.158943  0  0.997833  0  0  0.161093  0  0.997038  0  0  0.102313  0.157388  0  0.998394  0
H  H29  1  0.10603339  0.89729473  0.02120289  1  0  0.139319  0  0.939112  0  0  0.159535  0  0.996528  0  0  0.161679  0  0.995728  0  0  0.102729  0.157999  0  0.997076  0
H  H30  1  0.58548074  0.87631303  0.97929507  1  0  0.138014  0  0.941104  0  0  0.158946  0  0.997844  0  0  0.161086  0  0.997058  0  0  0.102307  0.157389  0  0.998404  0
H  H31  1  0.89396376  0.10270408  0.97880025  1  0  0.139314  0  0.939062  0  0  0.159526  0  0.996482  0  0  0.16167  0  0.995682  0  0  0.102749  0.157988  0  0.997032  0
H  H32  1  0.64292184  0.21574608  0.05652380  1  0  0.157188  0  0.938072  0  0  0.175065  0  0.997226  0  0  0.178174  0  0.995429  0  0  0.108839  0.172839  0  0.998544  0
H  H33  1  0.91356086  0.84066915  0.05694949  1  0  0.156278  0  0.939446  0  0  0.17441  0  0.998376  0  0  0.177496  0  0.996597  0  0  0.108797  0.172184  0  0.999711  0
H  H34  1  0.35708083  0.78425530  0.94347645  1  0  0.157174  0  0.93804  0  0  0.175046  0  0.997199  0  0  0.178153  0  0.995406  0  0  0.108833  0.172821  0  0.998518  0
H  H35  1  0.08643427  0.15933484  0.94305084  1  0  0.156271  0  0.939394  0  0  0.174378  0  0.998352  0  0  0.177446  0  0.996593  0  0  0.108762  0.172158  0  0.999681  0
H  H36  1  0.48516371  0.28883488  0.97546033  1  0  0.168923  0  0.922415  0  0  0.186486  0  0.980659  0  0  0.189693  0  0.979196  0  0  0.114558  0.184248  0  0.981575  0
H  H37  1  0.99016467  0.68675590  0.97566700  1  0  0.168654  0  0.922505  0  0  0.186457  0  0.980419  0  0  0.189687  0  0.978919  0  0  0.114055  0.184227  0  0.981336  0
H  H38  1  0.51484290  0.71115618  0.02453515  1  0  0.168993  0  0.922253  0  0  0.186474  0  0.980633  0  0  0.189696  0  0.979152  0  0  0.114551  0.184234  0  0.981548  0
H  H39  1  0.00982127  0.31324813  0.02432897  1  0  0.168682  0  0.922438  0  0  0.18647  0  0.980369  0  0  0.189704  0  0.978862  0  0  0.114039  0.184237  0  0.981291  0
C  C40  1  0.68121990  0.90753249  0.24158876  1  0  0.79794  0  3.795307  0  0  0.760343  0  4.083544  0  0  0.794936  0  4.077895  0  0  0.217566  0.736302  0  4.091006  0
C  C41  1  0.06082104  0.33411035  0.24171107  1  0  0.798734  0  3.788448  0  0  0.761076  0  4.076451  0  0  0.79573  0  4.070662  0  0  0.218054  0.737002  0  4.083973  0
C  C42  1  0.31879555  0.09246626  0.75841205  1  0  0.797521  0  3.795753  0  0  0.759955  0  4.083909  0  0  0.794552  0  4.078272  0  0  0.217325  0.73588  0  4.091422  0
C  C43  1  0.93917579  0.66588588  0.75829169  1  0  0.798938  0  3.787728  0  0  0.761271  0  4.075796  0  0  0.795923  0  4.070008  0  0  0.21812  0.737198  0  4.083322  0
C  C44  1  0.60566875  0.07492884  0.24560661  1  0  -0.455819  0  3.60102  0  0  -0.53121  0  3.828462  0  0  -0.538125  0  3.829023  0  0  -0.237845  -0.525738  0  3.826978  0
C  C45  1  0.14087972  0.17098764  0.24578035  1  0  -0.45928  0  3.604731  0  0  -0.533233  0  3.832368  0  0  -0.540151  0  3.832854  0  0  -0.237129  -0.527779  0  3.83095  0
C  C46  1  0.39433835  0.92506608  0.75439074  1  0  -0.455758  0  3.600841  0  0  -0.531125  0  3.828278  0  0  -0.538042  0  3.828838  0  0  -0.237804  -0.525635  0  3.826802  0
C  C47  1  0.85911672  0.82900604  0.75421229  1  0  -0.459313  0  3.60459  0  0  -0.53325  0  3.832354  0  0  -0.540154  0  3.832835  0  0  -0.23717  -0.527793  0  3.830935  0
C  C48  1  0.70132279  0.48898514  0.39691549  1  0  0.827344  0  3.796658  0  0  0.792926  0  4.08506  0  0  0.827807  0  4.076536  0  0  0.243178  0.769347  0  4.091593  0
C  C49  1  0.19561677  0.90810647  0.39698703  1  0  0.825537  0  3.794942  0  0  0.79161  0  4.082692  0  0  0.826538  0  4.074082  0  0  0.242768  0.768018  0  4.089252  0
C  C50  1  0.29866973  0.51102915  0.60309172  1  0  0.827128  0  3.796798  0  0  0.792753  0  4.085123  0  0  0.827628  0  4.0766  0  0  0.243083  0.769173  0  4.091657  0
C  C51  1  0.80438518  0.09191039  0.60301453  1  0  0.825219  0  3.795443  0  0  0.791628  0  4.08265  0  0  0.826557  0  4.074041  0  0  0.242813  0.768045  0  4.089195  0
C  C52  1  0.73958732  0.41840192  0.48031282  1  0  -0.46728  0  3.606798  0  0  -0.541975  0  3.833674  0  0  -0.549117  0  3.833414  0  0  -0.242126  -0.536617  0  3.832835  0
C  C53  1  0.24086932  0.06226348  0.48039026  1  0  -0.466589  0  3.608897  0  0  -0.541627  0  3.835304  0  0  -0.54879  0  3.835086  0  0  -0.240998  -0.53627  0  3.834438  0
C  C54  1  0.26040784  0.58160205  0.51969075  1  0  -0.467189  0  3.606844  0  0  -0.541868  0  3.833671  0  0  -0.549006  0  3.833414  0  0  -0.242048  -0.536513  0  3.832849  0
C  C55  1  0.75913530  0.93774305  0.51961091  1  0  -0.466495  0  3.608757  0  0  -0.54165  0  3.83509  0  0  -0.548811  0  3.834875  0  0  -0.240997  -0.53629  0  3.83422  0
C  C56  1  0.46930039  0.37630471  0.11518214  1  0  0.802412  0  3.797208  0  0  0.766543  0  4.085019  0  0  0.802043  0  4.074436  0  0  0.223767  0.742865  0  4.091686  0
C  C57  1  0.14595677  0.73877099  0.11534347  1  0  0.80456  0  3.79563  0  0  0.767902  0  4.084452  0  0  0.803387  0  4.073854  0  0  0.223818  0.744221  0  4.091161  0
C  C58  1  0.53070310  0.62369280  0.88481511  1  0  0.802403  0  3.797428  0  0  0.76655  0  4.085154  0  0  0.802054  0  4.074568  0  0  0.223828  0.74287  0  4.091824  0
C  C59  1  0.85403154  0.26122012  0.88465368  1  0  0.804796  0  3.795233  0  0  0.768062  0  4.08418  0  0  0.8035  0  4.073656  0  0  0.223868  0.744383  0  4.09089  0
C  C60  1  0.50508181  0.24142081  0.03775473  1  0  -0.461105  0  3.615956  0  0  -0.537693  0  3.844813  0  0  -0.544992  0  3.845095  0  0  -0.236729  -0.532466  0  3.844095  0
C  C61  1  0.03258401  0.79636827  0.03806536  1  0  -0.460958  0  3.61384  0  0  -0.537253  0  3.843002  0  0  -0.544537  0  3.84333  0  0  -0.236348  -0.53205  0  3.842235  0
C  C62  1  0.49492281  0.75857542  0.96224119  1  0  -0.461191  0  3.615905  0  0  -0.537719  0  3.844853  0  0  -0.545018  0  3.845124  0  0  -0.236746  -0.532485  0  3.844132  0
C  C63  1  0.96740950  0.20363314  0.96193443  1  0  -0.461027  0  3.61363  0  0  -0.537264  0  3.842823  0  0  -0.544522  0  3.84318  0  0  -0.236323  -0.532064  0  3.842054  0
O  O64  1  0.64187379  0.80910091  0.29040225  1  0  -0.839811  0  2.078149  0  0  -0.783791  0  2.338178  0  0  -0.817671  0  2.327564  0  0  -0.441145  -0.764723  0  2.345324  0
O  O65  1  0.14869146  0.48162227  0.29055234  1  0  -0.840151  0  2.075716  0  0  -0.784242  0  2.336307  0  0  -0.818147  0  2.325637  0  0  -0.442179  -0.765147  0  2.343449  0
O  O66  1  0.35814511  0.19089396  0.70959717  1  0  -0.839635  0  2.078284  0  0  -0.783596  0  2.338262  0  0  -0.817486  0  2.327658  0  0  -0.441046  -0.764524  0  2.345422  0
O  O67  1  0.85131796  0.51837006  0.70944625  1  0  -0.84019  0  2.075441  0  0  -0.784264  0  2.336061  0  0  -0.818189  0  2.325427  0  0  -0.442192  -0.765179  0  2.343203  0
O  O68  1  0.78429048  0.85992665  0.19048272  1  0  -0.700749  0  1.952785  0  0  -0.654113  0  2.189287  0  0  -0.688695  0  2.179285  0  0  -0.378914  -0.636321  0  2.195006  0
O  O69  1  0.90663072  0.33019530  0.19050332  1  0  -0.700416  0  1.948331  0  0  -0.653843  0  2.184512  0  0  -0.68848  0  2.174607  0  0  -0.379524  -0.636051  0  2.190264  0
O  O70  1  0.21572072  0.14006954  0.80951658  1  0  -0.700543  0  1.952767  0  0  -0.653888  0  2.189219  0  0  -0.688469  0  2.179194  0  0  -0.378755  -0.636092  0  2.194958  0
O  O71  1  0.09336696  0.66980735  0.80950687  1  0  -0.700573  0  1.948065  0  0  -0.653946  0  2.184215  0  0  -0.688593  0  2.174309  0  0  -0.379567  -0.636156  0  2.189969  0
O  O72  1  0.54201640  0.51149589  0.36184395  1  0  -0.779843  0  2.001552  0  0  -0.730162  0  2.259379  0  0  -0.756355  0  2.247719  0  0  -0.426979  -0.711576  0  2.267208  0
O  O73  1  0.31971627  0.85055039  0.36179933  1  0  -0.780657  0  2.000061  0  0  -0.730966  0  2.257294  0  0  -0.75721  0  2.245716  0  0  -0.428745  -0.712408  0  2.265174  0
O  O74  1  0.45797583  0.48850551  0.63816023  1  0  -0.779754  0  2.001657  0  0  -0.730077  0  2.259447  0  0  -0.756283  0  2.24782  0  0  -0.426936  -0.711495  0  2.267277  0
O  O75  1  0.68027714  0.14946135  0.63819532  1  0  -0.780476  0  2.000317  0  0  -0.730848  0  2.257311  0  0  -0.757091  0  2.245733  0  0  -0.428699  -0.712299  0  2.265182  0
O  O76  1  0.82840563  0.51968293  0.36343714  1  0  -0.758176  0  2.025149  0  0  -0.709454  0  2.27815  0  0  -0.747792  0  2.264623  0  0  -0.412597  -0.69057  0  2.284252  0
O  O77  1  0.03502930  0.84369406  0.36364536  1  0  -0.756325  0  2.023403  0  0  -0.707812  0  2.27603  0  0  -0.74617  0  2.26255  0  0  -0.41144  -0.688908  0  2.282092  0
O  O78  1  0.17158917  0.48032878  0.63656676  1  0  -0.758076  0  2.025239  0  0  -0.709367  0  2.278253  0  0  -0.747714  0  2.264724  0  0  -0.412546  -0.690489  0  2.284355  0
O  O79  1  0.96497261  0.15631115  0.63636504  1  0  -0.756242  0  2.023703  0  0  -0.707893  0  2.27628  0  0  -0.746265  0  2.262792  0  0  -0.411551  -0.688996  0  2.282336  0
O  O80  1  0.32206067  0.37048580  0.13520145  1  0  -0.704817  0  1.948913  0  0  -0.654799  0  2.181889  0  0  -0.680309  0  2.173406  0  0  -0.373651  -0.636516  0  2.186324  0
O  O81  1  0.31321743  0.76493349  0.13542461  1  0  -0.706619  0  1.949196  0  0  -0.655906  0  2.182169  0  0  -0.681393  0  2.173637  0  0  -0.373941  -0.637562  0  2.186492  0
O  O82  1  0.67794165  0.62951301  0.86479388  1  0  -0.704781  0  1.949007  0  0  -0.654751  0  2.181966  0  0  -0.680258  0  2.173478  0  0  -0.373689  -0.636472  0  2.1864  0
O  O83  1  0.68677235  0.23505891  0.86457354  1  0  -0.706717  0  1.949  0  0  -0.655987  0  2.182052  0  0  -0.681455  0  2.173535  0  0  -0.373967  -0.637651  0  2.186374  0
O  O84  1  0.58833855  0.50458202  0.16201954  1  0  -0.869556  0  2.106708  0  0  -0.8123  0  2.368012  0  0  -0.851478  0  2.353304  0  0  -0.447321  -0.79297  0  2.375448  0
O  O85  1  0.07390436  0.65685062  0.16198425  1  0  -0.870613  0  2.106364  0  0  -0.813041  0  2.367692  0  0  -0.852275  0  2.353198  0  0  -0.447942  -0.793665  0  2.375025  0
O  O86  1  0.41166046  0.49542197  0.83797477  1  0  -0.869536  0  2.106784  0  0  -0.812262  0  2.368085  0  0  -0.851457  0  2.353374  0  0  -0.447321  -0.792942  0  2.375527  0
O  O87  1  0.92608315  0.34313405  0.83801065  1  0  -0.870699  0  2.106374  0  0  -0.813073  0  2.367748  0  0  -0.852306  0  2.353272  0  0  -0.447936  -0.7937  0  2.375063  0
