# generated using pymatgen
data_CdH28C21(NO)6
_symmetry_space_group_name_H-M   'P 1'
_cell_length_a   4.85665472
_cell_length_b   15.37949535
_cell_length_c   17.61572055
_cell_angle_alpha   67.05463622
_cell_angle_beta   82.07363937
_cell_angle_gamma   80.91434126
_symmetry_Int_Tables_number   1
_chemical_formula_structural   CdH28C21(NO)6
_chemical_formula_sum   'Cd2 H56 C42 N12 O12'
_cell_volume   1192.23578667
_cell_formula_units_Z   2
loop_
 _symmetry_equiv_pos_site_id
 _symmetry_equiv_pos_as_xyz
  1  'x, y, z'
loop_
 _atom_site_type_symbol
 _atom_site_label
 _atom_site_symmetry_multiplicity
 _atom_site_fract_x
 _atom_site_fract_y
 _atom_site_fract_z
 _atom_site_occupancy
 _atom_site_pbe_bader_charge
 _atom_site_pbe_bader_spin_density
 _atom_site_pbe_cm5_charge
 _atom_site_pbe_ddec_charge
 _atom_site_pbe_ddec_spin_density
 _atom_site_pbe_ddec_sum_bond_order
 _atom_site_pbe_magmom
Cd  Cd0  1  0.99374337  0.56708781  0.91281825  1  1.363582  0  0.790292  1.074202  0  2.128364  0
Cd  Cd1  1  0.47359985  0.43290275  0.08720432  1  1.363907  0  0.790201  1.074129  0  2.128309  0
H  H2  1  0.96765974  0.38112044  0.86445443  1  0.058569  0  0.099486  0.095303  0  1.001676  0
H  H3  1  0.74933450  0.24201652  0.96625360  1  0.046987  0  0.092792  0.094782  0  1.006438  0
H  H4  1  0.46892223  0.26618205  0.90383448  1  0.034775  0  0.091893  0.089603  0  1.002134  0
H  H5  1  0.08583939  0.20899463  0.85735320  1  0.048671  0  0.098415  0.071773  0  1.010749  0
H  H6  1  0.80505535  0.13842003  0.88108746  1  0.083692  0  0.10855  0.088403  0  1.015689  0
H  H7  1  0.82085695  0.37369690  0.66069073  1  0.069227  0  0.106098  0.085999  0  1.017327  0
H  H8  1  0.09063694  0.35093842  0.72710487  1  0.020783  0  0.098119  0.072616  0  1.006595  0
H  H9  1  0.74390517  0.48708568  0.73734097  1  0.041045  0  0.088294  0.091097  0  1.030225  0
H  H10  1  0.46907653  0.41451364  0.76259866  1  0.034495  0  0.089565  0.088359  0  1.005653  0
H  H11  1  0.09475587  0.38644249  0.36513504  1  0.051847  0  0.102097  0.082968  0  1.004975  0
H  H12  1  0.48916606  0.20258458  0.43267667  1  0.026934  0  0.094889  0.095672  0  0.979673  0
H  H13  1  0.15152998  0.21584870  0.39807318  1  0.042821  0  0.095111  0.097743  0  0.985145  0
H  H14  1  0.92887596  0.26329594  0.51390645  1  0.039675  0  0.097698  0.071004  0  1.008251  0
H  H15  1  0.14639660  0.15486985  0.55491241  1  0.105473  0  0.11427  0.100774  0  0.996798  0
H  H16  1  0.44910859  0.39674167  0.54400506  1  0.090177  0  0.110267  0.088926  0  1.017307  0
H  H17  1  0.11198064  0.41200460  0.50844173  1  0.023755  0  0.095145  0.061939  0  0.982048  0
H  H18  1  0.44551965  0.47153537  0.38681922  1  0.055339  0  0.096652  0.101446  0  0.981012  0
H  H19  1  0.67728939  0.36538028  0.42262457  1  0.01713  0  0.091971  0.086928  0  1.034435  0
H  H20  1  0.09234478  0.79246873  0.90371407  1  0.084328  0  0.101375  0.0905  0  1.009555  0
H  H21  1  0.64707165  0.87090572  0.89053470  1  0.020011  0  0.089673  0.083839  0  1.032795  0
H  H22  1  0.41382316  0.83094962  0.97944207  1  0.03132  0  0.093916  0.095347  0  0.996539  0
H  H23  1  0.06268429  0.96767403  0.92065116  1  0.01995  0  0.097838  0.068958  0  0.975886  0
H  H24  1  0.39023005  0.01181304  0.90926540  1  0.089709  0  0.109467  0.09011  0  1.005869  0
H  H25  1  0.09687092  0.00943495  0.70014309  1  0.102872  0  0.11244  0.098172  0  1.002669  0
H  H26  1  0.89407251  0.96190685  0.79577079  1  0.021414  0  0.098331  0.072122  0  1.013211  0
H  H27  1  0.46827693  0.87468433  0.74463016  1  0.024097  0  0.09168  0.09082  0  0.973245  0
H  H28  1  0.14452295  0.82862986  0.75731422  1  0.037476  0  0.092212  0.092857  0  0.998297  0
H  H29  1  0.80190321  0.33288663  0.23328523  1  0.668978  0  0.307484  0.371176  0  0.970449  0
H  H30  1  0.21326120  0.61885867  0.13553914  1  0.059872  0  0.099838  0.096143  0  1.001901  0
H  H31  1  0.95796152  0.75803166  0.03377434  1  0.013047  0  0.092822  0.09458  0  1.006987  0
H  H32  1  0.63904163  0.73386741  0.09612845  1  -0.013444  0  0.091707  0.088904  0  1.002985  0
H  H33  1  0.15217396  0.79099617  0.14275204  1  0.064164  0  0.098094  0.071768  0  1.011025  0
H  H34  1  0.82466180  0.86164378  0.11891931  1  0.111241  0  0.108412  0.087852  0  1.015341  0
H  H35  1  0.85486617  0.62628947  0.33931174  1  0.098618  0  0.106196  0.085716  0  1.016961  0
H  H36  1  0.16857795  0.64908794  0.27297143  1  0.045432  0  0.098062  0.072323  0  1.006669  0
H  H37  1  0.96835756  0.51288791  0.26266575  1  0.04277  0  0.088266  0.090554  0  1.029897  0
H  H38  1  0.64604331  0.58551026  0.23734636  1  0.015848  0  0.089763  0.088297  0  1.00531  0
H  H39  1  0.84602040  0.61359835  0.63488121  1  0.058872  0  0.102217  0.083121  0  1.00557  0
H  H40  1  0.12460929  0.79736380  0.56730803  1  0.035307  0  0.095294  0.096511  0  0.979632  0
H  H41  1  0.76556944  0.78421628  0.60195567  1  0.047903  0  0.095288  0.09852  0  0.984613  0
H  H42  1  0.70579198  0.73675930  0.48615150  1  0.037943  0  0.097413  0.070965  0  1.00861  0
H  H43  1  0.85604936  0.84515252  0.44511565  1  0.099528  0  0.114274  0.100793  0  0.996752  0
H  H44  1  0.38942462  0.60323947  0.45598034  1  0.094916  0  0.110033  0.088412  0  1.017419  0
H  H45  1  0.03200790  0.58800615  0.49154537  1  0.011871  0  0.094936  0.061758  0  0.981774  0
H  H46  1  0.30348289  0.52841803  0.61316510  1  0.03438  0  0.096752  0.101737  0  0.98013  0
H  H47  1  0.46511903  0.63456828  0.57734502  1  0.033839  0  0.091595  0.086235  0  1.034155  0
H  H48  1  0.78811379  0.20753299  0.09632377  1  0.076318  0  0.10158  0.090708  0  1.009365  0
H  H49  1  0.40828096  0.12907412  0.10938028  1  0.015942  0  0.089663  0.083617  0  1.032768  0
H  H50  1  0.22361741  0.16900304  0.02053273  1  0.031579  0  0.094038  0.095351  0  0.996375  0
H  H51  1  0.95064748  0.03226661  0.07940356  1  0.017539  0  0.098039  0.069242  0  0.976219  0
H  H52  1  0.31087316  0.98814815  0.09073494  1  0.067608  0  0.109745  0.090408  0  1.005479  0
H  H53  1  0.80626125  0.99058951  0.29989759  1  0.102145  0  0.112429  0.098436  0  1.002571  0
H  H54  1  0.65144899  0.03813415  0.20429184  1  0.052018  0  0.098727  0.072423  0  1.013581  0
H  H55  1  0.08762716  0.12532517  0.25532273  1  0.014674  0  0.091842  0.091075  0  0.972269  0
H  H56  1  0.73054460  0.17137898  0.24270445  1  0.040362  0  0.091919  0.092525  0  0.998018  0
H  H57  1  0.36798160  0.66710813  0.76668885  1  0.663401  0  0.307828  0.371781  0  0.969993  0
C  C58  1  0.56425634  0.43184875  0.90528916  1  1.5617  0  0.225575  0.646382  0  4.072112  0
C  C59  1  0.74815975  0.37584069  0.85925099  1  0.009021  0  -0.09439  -0.123008  0  3.858931  0
C  C60  1  0.69391077  0.27070628  0.90191209  1  -0.060065  0  -0.159843  -0.17956  0  3.893504  0
C  C61  1  0.85906110  0.21142262  0.85487465  1  0.313225  0  -0.064334  -0.0558  0  3.914625  0
C  C62  1  0.86493309  0.35037652  0.72538821  1  0.327248  0  -0.065592  -0.05222  0  3.909874  0
C  C63  1  0.69300261  0.41359181  0.76762688  1  -0.026889  0  -0.168887  -0.190291  0  3.922956  0
C  C64  1  0.61845459  0.21672956  0.73859350  1  1.569874  0  0.341943  0.496265  0  4.134655  0
C  C65  1  0.38966420  0.22438095  0.63204681  1  1.532751  0  0.340795  0.494247  0  4.163106  0
C  C66  1  0.36850781  0.09770266  0.75310727  1  1.562887  0  0.342464  0.491698  0  4.160833  0
C  C67  1  0.45004314  0.35990581  0.29179923  1  1.523848  0  0.246105  0.622067  0  4.015362  0
C  C68  1  0.30684289  0.34921951  0.37618330  1  0.02736  0  -0.087563  -0.11872  0  3.88208  0
C  C69  1  0.28029741  0.24333157  0.42853432  1  -0.029713  0  -0.158116  -0.18567  0  3.915973  0
C  C70  1  0.14825123  0.23015698  0.51560911  1  0.300788  0  -0.061058  -0.049314  0  3.91517  0
C  C71  1  0.32537092  0.37337888  0.50946795  1  0.296231  0  -0.059431  -0.047661  0  3.934714  0
C  C72  1  0.45547049  0.39416387  0.42099379  1  -0.01882  0  -0.161847  -0.191611  0  3.914948  0
C  C73  1  0.47752979  0.71633614  0.88207478  1  1.547869  0  0.224431  0.632642  0  4.081437  0
C  C74  1  0.30116641  0.81042111  0.87300211  1  -0.025108  0  -0.093132  -0.129334  0  3.878079  0
C  C75  1  0.42416705  0.86766978  0.91179376  1  0.001005  0  -0.167355  -0.190672  0  3.936669  0
C  C76  1  0.27718648  0.96896704  0.88958764  1  0.317401  0  -0.059417  -0.048492  0  3.9228  0
C  C77  1  0.10944689  0.96652601  0.76606404  1  0.314216  0  -0.062489  -0.05253  0  3.915496  0
C  C78  1  0.26221647  0.86741766  0.78035293  1  -0.023904  0  -0.159939  -0.177816  0  3.915685  0
C  C79  1  0.90151159  0.56815248  0.09470631  1  1.55661  0  0.226134  0.647572  0  4.070515  0
C  C80  1  0.98333322  0.62415138  0.14075769  1  0.003218  0  -0.095043  -0.124976  0  3.860078  0
C  C81  1  0.86666522  0.72931345  0.09808824  1  0.02731  0  -0.159741  -0.179041  0  3.893764  0
C  C82  1  0.92536918  0.78860286  0.14513532  1  0.266381  0  -0.063371  -0.054124  0  3.912602  0
C  C83  1  0.94055075  0.64961770  0.27462913  1  0.283664  0  -0.065603  -0.052029  0  3.909171  0
C  C84  1  0.87415878  0.58638670  0.23238712  1  -0.013948  0  -0.168884  -0.188889  0  3.920697  0
C  C85  1  0.57366686  0.78328295  0.26140856  1  1.547546  0  0.341219  0.495776  0  4.134124  0
C  C86  1  0.24580945  0.77561575  0.36794191  1  1.568017  0  0.342108  0.495607  0  4.161025  0
C  C87  1  0.21926449  0.90231890  0.24687789  1  1.564323  0  0.341836  0.491205  0  4.159993  0
C  C88  1  0.10173821  0.64006104  0.70817409  1  1.519168  0  0.245882  0.622799  0  4.015293  0
C  C89  1  0.03206592  0.65077639  0.62380352  1  0.015658  0  -0.087204  -0.119874  0  3.884526  0
C  C90  1  0.95214503  0.75668734  0.57146799  1  -0.036065  0  -0.159105  -0.187519  0  3.917594  0
C  C91  1  0.89383068  0.76986257  0.48441208  1  0.312523  0  -0.060403  -0.048439  0  3.915807  0
C  C92  1  0.20785960  0.62658935  0.49054629  1  0.32474  0  -0.05889  -0.046357  0  3.934511  0
C  C93  1  0.27037076  0.60579520  0.57900284  1  -0.042312  0  -0.161535  -0.190503  0  3.914899  0
C  C94  1  0.07591797  0.28365201  0.11792438  1  1.562649  0  0.225515  0.633835  0  4.079189  0
C  C95  1  0.98437031  0.18959713  0.12697531  1  -0.020949  0  -0.093803  -0.130634  0  3.878767  0
C  C96  1  0.20326877  0.13234114  0.08817706  1  -0.011711  0  -0.166965  -0.189726  0  3.937806  0
C  C97  1  0.13540361  0.03103670  0.11040350  1  0.351178  0  -0.060094  -0.049404  0  3.923452  0
C  C98  1  0.84187677  0.03347503  0.23396048  1  0.279076  0  -0.063505  -0.054843  0  3.916211  0
C  C99  1  0.90994009  0.13258490  0.21963647  1  -0.016366  0  -0.159523  -0.176837  0  3.913242  0
N  N100  1  0.79979092  0.25272834  0.76826568  1  -1.169433  0  -0.281867  -0.122851  0  3.566399  0
N  N101  1  0.54481174  0.26821277  0.66092490  1  -1.247893  0  -0.3667  -0.56783  0  3.29662  0
N  N102  1  0.30777716  0.13742918  0.67341454  1  -1.238426  0  -0.365454  -0.557607  0  3.296232  0
N  N103  1  0.52648674  0.13307771  0.78905832  1  -1.269398  0  -0.364802  -0.563233  0  3.289189  0
N  N104  1  0.30704833  0.27246328  0.55366858  1  -1.164797  0  -0.282991  -0.126733  0  3.589524  0
N  N105  1  0.25648458  0.01560965  0.80094119  1  -1.216504  0  -0.279548  -0.120368  0  3.600827  0
N  N106  1  0.82064382  0.74726726  0.23173273  1  -1.190943  0  -0.281113  -0.121801  0  3.565803  0
N  N107  1  0.47361144  0.73177696  0.33905898  1  -1.249795  0  -0.367272  -0.568762  0  3.296581  0
N  N108  1  0.11834927  0.86256107  0.32655809  1  -1.252095  0  -0.366372  -0.557763  0  3.295101  0
N  N109  1  0.44847129  0.86691415  0.21091097  1  -1.245093  0  -0.364107  -0.563601  0  3.291327  0
N  N110  1  0.13288421  0.72752127  0.44633620  1  -1.177217  0  -0.283898  -0.128796  0  3.590281  0
N  N111  1  0.07275842  0.98437630  0.19904568  1  -1.200977  0  -0.279354  -0.119139  0  3.597293  0
O  O112  1  0.30806631  0.45059781  0.89359453  1  -1.174432  0  -0.310365  -0.546113  0  2.312217  0
O  O113  1  0.67836471  0.45382579  0.95666599  1  -1.182973  0  -0.347117  -0.630536  0  2.405002  0
O  O114  1  0.71927358  0.32726953  0.29167905  1  -1.183474  0  -0.319924  -0.477381  0  2.317333  0
O  O115  1  0.31897437  0.39479540  0.22895258  1  -1.164321  0  -0.288005  -0.508696  0  2.280084  0
O  O116  1  0.38418708  0.65896581  0.85735530  1  -1.210646  0  -0.339973  -0.631507  0  2.370011  0
O  O117  1  0.71323742  0.69964286  0.91111504  1  -1.153158  0  -0.307305  -0.531037  0  2.271169  0
O  O118  1  0.65237960  0.54945301  0.10638714  1  -1.166318  0  -0.310297  -0.546293  0  2.312326  0
O  O119  1  0.08899515  0.54614537  0.04332423  1  -1.189281  0  -0.347696  -0.631273  0  2.40326  0
O  O120  1  0.33819168  0.67271525  0.70828667  1  -1.174388  0  -0.320008  -0.478314  0  2.318221  0
O  O121  1  0.94275500  0.60518375  0.77103382  1  -1.161838  0  -0.287959  -0.508689  0  2.278841  0
O  O122  1  0.90036291  0.34104394  0.14258765  1  -1.221035  0  -0.340626  -0.632217  0  2.369642  0
O  O123  1  0.32396959  0.30035750  0.08890295  1  -1.14993  0  -0.307185  -0.530986  0  2.271415  0
