# generated using pymatgen
data_Nd2H11C11NO16
_symmetry_space_group_name_H-M   'P 1'
_cell_length_a   9.71973244
_cell_length_b   9.78489467
_cell_length_c   12.42698452
_cell_angle_alpha   70.73749145
_cell_angle_beta   81.96530782
_cell_angle_gamma   63.73051677
_symmetry_Int_Tables_number   1
_chemical_formula_structural   Nd2H11C11NO16
_chemical_formula_sum   'Nd4 H22 C22 N2 O32'
_cell_volume   1000.46574421
_cell_formula_units_Z   2
loop_
 _symmetry_equiv_pos_site_id
 _symmetry_equiv_pos_as_xyz
  1  'x, y, z'
loop_
 _atom_site_type_symbol
 _atom_site_label
 _atom_site_symmetry_multiplicity
 _atom_site_fract_x
 _atom_site_fract_y
 _atom_site_fract_z
 _atom_site_occupancy
 _atom_site_hle17_bader_spin_density
 _atom_site_hle17_ddec_charge
 _atom_site_hle17_ddec_spin_density
 _atom_site_hle17_ddec_sum_bond_order
 _atom_site_hle17_magmom
 _atom_site_hse06_10hf_bader_spin_density
 _atom_site_hse06_10hf_ddec_charge
 _atom_site_hse06_10hf_ddec_spin_density
 _atom_site_hse06_10hf_ddec_sum_bond_order
 _atom_site_hse06_10hf_magmom
 _atom_site_hse06_bader_spin_density
 _atom_site_hse06_ddec_charge
 _atom_site_hse06_ddec_spin_density
 _atom_site_hse06_ddec_sum_bond_order
 _atom_site_hse06_magmom
 _atom_site_pbe_bader_spin_density
 _atom_site_pbe_cm5_charge
 _atom_site_pbe_ddec_charge
 _atom_site_pbe_ddec_spin_density
 _atom_site_pbe_ddec_sum_bond_order
 _atom_site_pbe_magmom
Nd  Nd0  1  0.26515063  0.21888892  0.23430814  1  0  2.227954  0  1.629219  0  0  2.039303  0  2.11621  0  0  2.08287  0  2.073924  0  0  1.482897  2.006507  0  2.148152  0
Nd  Nd1  1  0.73485441  0.78110891  0.76568783  1  0  2.228058  0  1.629227  0  0  2.039471  0  2.116137  0  0  2.083034  0  2.073851  0  0  1.482973  2.006676  0  2.148079  0
Nd  Nd2  1  0.73347583  0.27777076  0.25958399  1  0  2.252607  0  1.550869  0  0  2.07627  0  2.020739  0  0  2.18651  0  1.853859  0  0  1.441914  2.043534  0  2.052126  0
Nd  Nd3  1  0.26652814  0.72222733  0.74041767  1  0  2.252613  0  1.550766  0  0  2.076285  0  2.02066  0  0  2.186532  0  1.85375  0  0  1.441885  2.04354  0  2.052053  0
H  H4  1  0.22119441  0.15669448  0.01785551  1  0  0.440631  0  0.809623  0  0  0.426521  0  0.853223  0  0  0.43463  0  0.841485  0  0  0.334393  0.421129  0  0.860968  0
H  H5  1  0.77881509  0.84331051  0.98214032  1  0  0.44054  0  0.809443  0  0  0.426436  0  0.85328  0  0  0.434545  0  0.841542  0  0  0.334328  0.421046  0  0.861023  0
H  H6  1  0.05584900  0.22743647  0.07303494  1  0  0.440068  0  0.862759  0  0  0.405024  0  0.932408  0  0  0.418064  0  0.913237  0  0  0.299617  0.395968  0  0.945757  0
H  H7  1  0.94416304  0.77254095  0.92696357  1  0  0.43995  0  0.86295  0  0  0.404923  0  0.932569  0  0  0.41796  0  0.913405  0  0  0.299562  0.395867  0  0.945915  0
H  H8  1  0.53484459  0.86395303  0.28661944  1  0  0.454784  0  0.790626  0  0  0.4404  0  0.832895  0  0  0.448313  0  0.821545  0  0  0.340731  0.434083  0  0.842187  0
H  H9  1  0.46515408  0.13605579  0.71337901  1  0  0.454779  0  0.790571  0  0  0.440379  0  0.832911  0  0  0.448289  0  0.821567  0  0  0.340726  0.434065  0  0.842196  0
H  H10  1  0.58350749  0.98054359  0.32300308  1  0  0.435486  0  0.87029  0  0  0.400425  0  0.940749  0  0  0.413188  0  0.922074  0  0  0.29965  0.391308  0  0.954223  0
H  H11  1  0.41648235  0.01946663  0.67699763  1  0  0.435465  0  0.870331  0  0  0.400401  0  0.940796  0  0  0.413168  0  0.922117  0  0  0.299654  0.391284  0  0.954267  0
H  H12  1  0.68419907  0.04797652  0.17050756  1  0  0.423484  0  0.855378  0  0  0.40277  0  0.910703  0  0  0.412202  0  0.896812  0  0  0.310224  0.395987  0  0.920913  0
H  H13  1  0.31579399  0.95202285  0.82949342  1  0  0.423553  0  0.855183  0  0  0.402829  0  0.9106  0  0  0.412262  0  0.896709  0  0  0.310256  0.396047  0  0.920809  0
H  H14  1  0.60430274  0.20617538  0.07863074  1  0  0.439603  0  0.852261  0  0  0.410004  0  0.912601  0  0  0.421549  0  0.895739  0  0  0.30291  0.401936  0  0.924431  0
H  H15  1  0.39570115  0.79382006  0.92136524  1  0  0.439633  0  0.852251  0  0  0.41006  0  0.912547  0  0  0.421606  0  0.895683  0  0  0.302919  0.40199  0  0.92438  0
H  H16  1  0.99451328  0.01718513  0.17993653  1  0  0.442745  0  0.804336  0  0  0.42742  0  0.853681  0  0  0.436038  0  0.844711  0  0  0.332155  0.421228  0  0.860886  0
H  H17  1  0.00547986  0.98281672  0.82006616  1  0  0.44273  0  0.804214  0  0  0.42742  0  0.853547  0  0  0.436038  0  0.844577  0  0  0.332174  0.421229  0  0.860752  0
H  H18  1  0.06076952  0.99584602  0.29586101  1  0  0.441617  0  0.857438  0  0  0.411326  0  0.919381  0  0  0.422504  0  0.903306  0  0  0.304414  0.403334  0  0.931052  0
H  H19  1  0.93923085  0.00415320  0.70413834  1  0  0.441625  0  0.857429  0  0  0.411328  0  0.919383  0  0  0.422506  0  0.903308  0  0  0.304427  0.403334  0  0.931057  0
H  H20  1  0.26300993  0.64762344  0.43512343  1  0  0.139794  0  0.933467  0  0  0.146624  0  0.993247  0  0  0.1511  0  0.990143  0  0  0.123955  0.14336  0  0.995751  0
H  H21  1  0.73699194  0.35236165  0.56488297  1  0  0.139716  0  0.933386  0  0  0.146552  0  0.993197  0  0  0.151028  0  0.990094  0  0  0.123899  0.143289  0  0.995702  0
H  H22  1  0.98020367  0.79035516  0.45483100  1  0  0.106565  0  0.942255  0  0  0.115354  0  1.003308  0  0  0.118256  0  1.000943  0  0  0.116719  0.11308  0  1.005164  0
H  H23  1  0.01979538  0.20965002  0.54516683  1  0  0.106521  0  0.942396  0  0  0.11532  0  1.003422  0  0  0.118222  0  1.001056  0  0  0.11671  0.113052  0  1.005276  0
H  H24  1  0.80553895  0.70605126  0.38628139  1  0  0.118007  0  0.938131  0  0  0.12566  0  1.001743  0  0  0.129544  0  0.999364  0  0  0.113081  0.122394  0  1.004629  0
H  H25  1  0.19446142  0.29394800  0.61371876  1  0  0.117993  0  0.938144  0  0  0.125648  0  1.001744  0  0  0.129533  0  0.999365  0  0  0.113069  0.12237  0  1.004644  0
C  C26  1  0.40753340  0.41075794  0.32812493  1  0  0.645591  0  3.90518  0  0  0.59752  0  4.197261  0  0  0.630926  0  4.192984  0  0  0.216344  0.574316  0  4.20367  0
C  C27  1  0.59247105  0.58923885  0.67187463  1  0  0.645611  0  3.905255  0  0  0.597555  0  4.197303  0  0  0.630961  0  4.193029  0  0  0.216349  0.574351  0  4.20371  0
C  C28  1  0.24080710  0.49683862  0.35201902  1  0  0.129772  0  3.734232  0  0  0.136028  0  3.971668  0  0  0.13665  0  3.988594  0  0  0.130032  0.135943  0  3.95926  0
C  C29  1  0.75919099  0.50315582  0.64798034  1  0  0.12972  0  3.734435  0  0  0.136019  0  3.971794  0  0  0.136637  0  3.988723  0  0  0.130045  0.135936  0  3.959382  0
C  C30  1  0.18447613  0.61726408  0.40396774  1  0  -0.079481  0  3.61674  0  0  -0.105951  0  3.86651  0  0  -0.108003  0  3.882534  0  0  -0.05702  -0.105581  0  3.856443  0
C  C31  1  0.81552301  0.38274368  0.59603418  1  0  -0.079366  0  3.616768  0  0  -0.105875  0  3.866549  0  0  -0.107927  0  3.882578  0  0  -0.056962  -0.105506  0  3.856481  0
C  C32  1  0.02593486  0.69568582  0.41489165  1  0  0.016917  0  3.667413  0  0  -0.002806  0  3.929935  0  0  -0.000534  0  3.94643  0  0  -0.055555  -0.003768  0  3.919155  0
C  C33  1  0.97407065  0.30431082  0.58510461  1  0  0.016831  0  3.667372  0  0  -0.0029  0  3.929924  0  0  -0.000624  0  3.946414  0  0  -0.05564  -0.003869  0  3.919137  0
C  C34  1  0.92944493  0.64971087  0.37678291  1  0  -0.090452  0  3.649689  0  0  -0.117529  0  3.902691  0  0  -0.120573  0  3.921798  0  0  -0.065773  -0.116223  0  3.890826  0
C  C35  1  0.07055329  0.35029883  0.62320810  1  0  -0.090468  0  3.649466  0  0  -0.117493  0  3.90252  0  0  -0.120545  0  3.921621  0  0  -0.065714  -0.116176  0  3.890661  0
C  C36  1  0.99625649  0.52240831  0.33094139  1  0  0.115257  0  3.751007  0  0  0.121989  0  3.990145  0  0  0.122442  0  4.008075  0  0  0.123319  0.121996  0  3.976927  0
C  C37  1  0.00374248  0.47760753  0.66905262  1  0  0.115555  0  3.750679  0  0  0.122105  0  3.98999  0  0  0.122579  0  4.007896  0  0  0.123341  0.12211  0  3.976771  0
C  C38  1  0.90861982  0.44806867  0.29826088  1  0  0.635091  0  3.924284  0  0  0.586107  0  4.221704  0  0  0.61887  0  4.218637  0  0  0.212116  0.563455  0  4.226918  0
C  C39  1  0.09138048  0.55194114  0.70173307  1  0  0.634889  0  3.924693  0  0  0.586034  0  4.221942  0  0  0.618781  0  4.218896  0  0  0.21211  0.563382  0  4.227156  0
C  C40  1  0.29948201  0.01495705  0.51246113  1  0  0.5595  0  3.919514  0  0  0.513595  0  4.220812  0  0  0.543667  0  4.213551  0  0  0.221908  0.492941  0  4.226986  0
C  C41  1  0.70050034  0.98506145  0.48753490  1  0  0.559474  0  3.919264  0  0  0.513523  0  4.220569  0  0  0.543605  0  4.213311  0  0  0.221847  0.492873  0  4.226741  0
C  C42  1  0.22414393  0.93680499  0.46425447  1  0  0.571395  0  3.903701  0  0  0.525194  0  4.204174  0  0  0.555267  0  4.196873  0  0  0.228897  0.504526  0  4.210417  0
C  C43  1  0.77585928  0.06321390  0.53575508  1  0  0.570988  0  3.903918  0  0  0.52489  0  4.204228  0  0  0.55496  0  4.196945  0  0  0.22881  0.504201  0  4.210499  0
C  C44  1  0.35272075  0.41815398  0.97771149  1  0  0.570247  0  3.918446  0  0  0.525717  0  4.218577  0  0  0.555711  0  4.21194  0  0  0.222291  0.50513  0  4.224796  0
C  C45  1  0.64727949  0.58183012  0.02229941  1  0  0.570746  0  3.918148  0  0  0.526151  0  4.218347  0  0  0.556146  0  4.211711  0  0  0.222451  0.505563  0  4.224568  0
C  C46  1  0.18523232  0.52907168  0.99984599  1  0  0.574525  0  3.893158  0  0  0.529706  0  4.190081  0  0  0.56003  0  4.183204  0  0  0.226287  0.508957  0  4.196079  0
C  C47  1  0.81476982  0.47090753  0.00016365  1  0  0.574158  0  3.893343  0  0  0.529393  0  4.190224  0  0  0.559715  0  4.183354  0  0  0.226107  0.508642  0  4.196224  0
N  N48  1  0.14832210  0.44999156  0.31828246  1  0  -0.412683  0  3.333449  0  0  -0.362222  0  3.576125  0  0  -0.373357  0  3.595838  0  0  -0.39791  -0.353538  0  3.560647  0
N  N49  1  0.85168495  0.55001689  0.68170947  1  0  -0.412731  0  3.333144  0  0  -0.362217  0  3.575857  0  0  -0.373357  0  3.595566  0  0  -0.397916  -0.353532  0  3.56038  0
O  O50  1  0.44045584  0.32493968  0.26041929  1  0  -0.77887  0  2.107868  0  0  -0.720506  0  2.365712  0  0  -0.752247  0  2.358423  0  0  -0.422063  -0.702322  0  2.370665  0
O  O51  1  0.55953714  0.67507032  0.73957709  1  0  -0.778929  0  2.107795  0  0  -0.720583  0  2.365626  0  0  -0.752326  0  2.358336  0  0  -0.422101  -0.702399  0  2.370583  0
O  O52  1  0.50872074  0.42498008  0.37056928  1  0  -0.624257  0  1.930249  0  0  -0.578637  0  2.152814  0  0  -0.607145  0  2.142159  0  0  -0.346381  -0.563582  0  2.159491  0
O  O53  1  0.49128607  0.57501084  0.62943408  1  0  -0.624294  0  1.930335  0  0  -0.578693  0  2.15291  0  0  -0.607199  0  2.142252  0  0  -0.346386  -0.563637  0  2.159586  0
O  O54  1  0.98919998  0.30964700  0.28329639  1  0  -0.774622  0  2.095442  0  0  -0.716328  0  2.353496  0  0  -0.747755  0  2.346985  0  0  -0.411826  -0.697848  0  2.357444  0
O  O55  1  0.01079691  0.69035549  0.71669440  1  0  -0.77451  0  2.095482  0  0  -0.716351  0  2.353685  0  0  -0.74777  0  2.347176  0  0  -0.411875  -0.69787  0  2.35763  0
O  O56  1  0.76470003  0.51521614  0.28978204  1  0  -0.633601  0  1.917657  0  0  -0.588794  0  2.13978  0  0  -0.617119  0  2.130293  0  0  -0.339371  -0.573838  0  2.146661  0
O  O57  1  0.23529809  0.48479112  0.71020806  1  0  -0.633536  0  1.917747  0  0  -0.588747  0  2.139799  0  0  -0.617068  0  2.13032  0  0  -0.33933  -0.573792  0  2.146682  0
O  O58  1  0.16764948  0.14904664  0.09027097  1  0  -0.89923  0  1.792924  0  0  -0.849999  0  1.967554  0  0  -0.866508  0  1.934139  0  0  -0.625076  -0.837811  0  1.989827  0
O  O59  1  0.83235689  0.85094498  0.90972097  1  0  -0.89909  0  1.792898  0  0  -0.849872  0  1.967741  0  0  -0.866383  0  1.934328  0  0  -0.625002  -0.837684  0  1.990012  0
O  O60  1  0.52732363  0.97233171  0.26371357  1  0  -0.901984  0  1.801851  0  0  -0.849224  0  1.977401  0  0  -0.866665  0  1.944345  0  0  -0.606133  -0.836498  0  2.002085  0
O  O61  1  0.47267751  0.02767352  0.73628561  1  0  -0.901987  0  1.801749  0  0  -0.849216  0  1.977384  0  0  -0.866661  0  1.944322  0  0  -0.606143  -0.836491  0  2.002064  0
O  O62  1  0.32354174  0.96047838  0.61968538  1  0  -0.670337  0  2.150963  0  0  -0.608175  0  2.390355  0  0  -0.641324  0  2.382261  0  0  -0.3393  -0.589325  0  2.39562  0
O  O63  1  0.67644813  0.03955796  0.38030793  1  0  -0.670373  0  2.150981  0  0  -0.608211  0  2.390439  0  0  -0.641363  0  2.382342  0  0  -0.339293  -0.589362  0  2.395702  0
O  O64  1  0.32725054  0.12726279  0.44459292  1  0  -0.634235  0  2.061194  0  0  -0.591401  0  2.311162  0  0  -0.613325  0  2.30399  0  0  -0.350164  -0.57526  0  2.314957  0
O  O65  1  0.67274980  0.87273689  0.55541677  1  0  -0.634206  0  2.061095  0  0  -0.591349  0  2.311051  0  0  -0.613262  0  2.303842  0  0  -0.350184  -0.575206  0  2.314841  0
O  O66  1  0.17873798  0.83957555  0.53480715  1  0  -0.62441  0  2.030265  0  0  -0.577526  0  2.275057  0  0  -0.607729  0  2.266774  0  0  -0.343123  -0.56157  0  2.279438  0
O  O67  1  0.82127673  0.16042974  0.46519684  1  0  -0.624193  0  2.030533  0  0  -0.57738  0  2.275288  0  0  -0.607582  0  2.267015  0  0  -0.343053  -0.561419  0  2.279681  0
O  O68  1  0.21248627  0.98060071  0.35581423  1  0  -0.679691  0  2.070546  0  0  -0.618686  0  2.30263  0  0  -0.642232  0  2.291619  0  0  -0.351027  -0.601177  0  2.309496  0
O  O69  1  0.78750351  0.01939703  0.64420370  1  0  -0.679517  0  2.070436  0  0  -0.618506  0  2.302423  0  0  -0.642053  0  2.29142  0  0  -0.350977  -0.600987  0  2.309295  0
O  O70  1  0.41976474  0.47351892  0.89251512  1  0  -0.626192  0  2.001551  0  0  -0.581885  0  2.233816  0  0  -0.611202  0  2.222883  0  0  -0.357067  -0.566655  0  2.239477  0
O  O71  1  0.58023153  0.52646967  0.10748772  1  0  -0.626347  0  2.001572  0  0  -0.58202  0  2.233873  0  0  -0.611336  0  2.222943  0  0  -0.35712  -0.566791  0  2.239535  0
O  O72  1  0.40882578  0.27858484  0.04950199  1  0  -0.688131  0  2.052855  0  0  -0.629025  0  2.283325  0  0  -0.652612  0  2.271026  0  0  -0.356654  -0.611837  0  2.290355  0
O  O73  1  0.59117192  0.72139989  0.95049534  1  0  -0.6884  0  2.052729  0  0  -0.62931  0  2.283236  0  0  -0.652898  0  2.270935  0  0  -0.356713  -0.612119  0  2.290266  0
O  O74  1  0.12545832  0.66350270  0.92325343  1  0  -0.672996  0  2.135312  0  0  -0.608813  0  2.36798  0  0  -0.641871  0  2.35736  0  0  -0.350057  -0.590715  0  2.373981  0
O  O75  1  0.87454023  0.33647723  0.07674435  1  0  -0.672841  0  2.135606  0  0  -0.608661  0  2.368232  0  0  -0.641717  0  2.357615  0  0  -0.349997  -0.590562  0  2.374235  0
O  O76  1  0.12108547  0.48084602  0.08973347  1  0  -0.635545  0  2.06244  0  0  -0.591346  0  2.304784  0  0  -0.613558  0  2.296943  0  0  -0.357849  -0.575561  0  2.309495  0
O  O77  1  0.87891499  0.51914234  0.91026492  1  0  -0.6355  0  2.062158  0  0  -0.591295  0  2.304453  0  0  -0.61351  0  2.296618  0  0  -0.357795  -0.575507  0  2.309165  0
O  O78  1  0.70073483  0.14239462  0.12495829  1  0  -0.870839  0  1.808698  0  0  -0.825653  0  1.97737  0  0  -0.849786  0  1.941428  0  0  -0.623855  -0.813255  0  1.999052  0
O  O79  1  0.29926619  0.85759516  0.87504527  1  0  -0.870943  0  1.808533  0  0  -0.825764  0  1.977257  0  0  -0.849903  0  1.941308  0  0  -0.623926  -0.813367  0  1.998938  0
O  O80  1  0.96437056  0.02335121  0.25683942  1  0  -0.884002  0  1.85774  0  0  -0.838355  0  2.050029  0  0  -0.864697  0  2.020745  0  0  -0.627561  -0.824649  0  2.068118  0
O  O81  1  0.03562828  0.97664944  0.74316455  1  0  -0.883997  0  1.857559  0  0  -0.838375  0  2.049841  0  0  -0.864714  0  2.020555  0  0  -0.627606  -0.824668  0  2.067933  0
