# generated using pymatgen
data_ZnH16C16N3O5
_symmetry_space_group_name_H-M   'P 1'
_cell_length_a   10.29688768
_cell_length_b   14.97225687
_cell_length_c   14.81661162
_cell_angle_alpha   114.62523908
_cell_angle_beta   110.31580456
_cell_angle_gamma   90.04217857
_symmetry_Int_Tables_number   1
_chemical_formula_structural   ZnH16C16N3O5
_chemical_formula_sum   'Zn4 H64 C64 N12 O20'
_cell_volume   1918.78959694
_cell_formula_units_Z   4
loop_
 _symmetry_equiv_pos_site_id
 _symmetry_equiv_pos_as_xyz
  1  'x, y, z'
loop_
 _atom_site_type_symbol
 _atom_site_label
 _atom_site_symmetry_multiplicity
 _atom_site_fract_x
 _atom_site_fract_y
 _atom_site_fract_z
 _atom_site_occupancy
 _atom_site_pbe_bader_charge
 _atom_site_pbe_bader_spin_density
 _atom_site_pbe_cm5_charge
 _atom_site_pbe_ddec_charge
 _atom_site_pbe_ddec_spin_density
 _atom_site_pbe_ddec_sum_bond_order
 _atom_site_pbe_magmom
Zn  Zn0  1  0.84611005  0.46650189  0.42085078  1  1.315405  0  0.682579  0.873537  0  2.35734  0
Zn  Zn1  1  0.42550611  0.03329642  0.57918434  1  1.315606  0  0.682603  0.872743  0  2.358558  0
Zn  Zn2  1  0.15387446  0.53355106  0.57921202  1  1.315629  0  0.682662  0.87357  0  2.356618  0
Zn  Zn3  1  0.57443480  0.96668309  0.42074572  1  1.316457  0  0.682715  0.872996  0  2.358337  0
H  H4  1  0.22978231  0.24277727  0.45357733  1  0.052026  0  0.115947  0.123924  0  0.999912  0
H  H5  1  0.20951153  0.99149289  0.16488710  1  0.16275  0  0.118887  0.140784  0  1.001139  0
H  H6  1  0.90849853  0.19233270  0.15094303  1  0.150766  0  0.119642  0.136936  0  0.988042  0
H  H7  1  0.20605606  0.42938093  0.28320559  1  0.086423  0  0.108269  0.093847  0  0.982591  0
H  H8  1  0.27043170  0.31683279  0.26715409  1  0.061269  0  0.111168  0.089854  0  1.012767  0
H  H9  1  0.65820620  0.58745534  0.31604702  1  0.117797  0  0.123729  0.12279  0  0.994274  0
H  H10  1  0.63858233  0.29296268  0.36639101  1  0.073337  0  0.107375  0.123212  0  0.97879  0
H  H11  1  0.45695200  0.24919901  0.29032656  1  0.039082  0  0.099908  0.102251  0  0.985726  0
H  H12  1  0.36598578  0.54609076  0.23340596  1  0.123519  0  0.119358  0.120222  0  1.038106  0
H  H13  1  0.59262904  0.40204763  0.52877868  1  0.031281  0  0.084482  0.119284  0  1.030031  0
H  H14  1  0.51164580  0.27732690  0.47900978  1  0.027662  0  0.087125  0.125491  0  1.004145  0
H  H15  1  0.40784651  0.36620768  0.45607832  1  0.026837  0  0.084379  0.117507  0  1.029594  0
H  H16  1  0.08625431  0.29772508  0.09667210  1  0.030151  0  0.091742  0.090371  0  0.986127  0
H  H17  1  0.18088062  0.39762646  0.09904590  1  0.043935  0  0.087847  0.076317  0  1.034  0
H  H18  1  0.27758359  0.19763107  0.07328359  1  0.026624  0  0.087297  0.082467  0  0.989227  0
H  H19  1  0.38368566  0.30247028  0.09378573  1  0.018051  0  0.09437  0.090384  0  0.981759  0
H  H20  1  0.77604951  0.25750676  0.54642447  1  0.089183  0  0.115779  0.123579  0  1.000224  0
H  H21  1  0.04491179  0.50862722  0.83520548  1  0.138998  0  0.118956  0.140254  0  1.001628  0
H  H22  1  0.75746418  0.30766624  0.84906409  1  0.134457  0  0.119774  0.137029  0  0.98683  0
H  H23  1  0.92298377  0.06991923  0.71636075  1  0.087763  0  0.10869  0.094464  0  0.983894  0
H  H24  1  0.00341692  0.18236123  0.73207796  1  0.081071  0  0.111456  0.090527  0  1.011801  0
H  H25  1  0.34256968  0.91222934  0.68443949  1  0.116339  0  0.123847  0.123225  0  0.994675  0
H  H26  1  0.27313179  0.20629219  0.63344774  1  0.080021  0  0.107316  0.123314  0  0.979794  0
H  H27  1  0.16833710  0.25040836  0.71008681  1  0.045773  0  0.099464  0.10153  0  0.985559  0
H  H28  1  0.13251700  0.95342938  0.76661053  1  0.133894  0  0.1193  0.119944  0  1.03833  0
H  H29  1  0.06393015  0.09782021  0.47147069  1  0.045057  0  0.084385  0.118668  0  1.030569  0
H  H30  1  0.03367162  0.22268004  0.52167505  1  0.037325  0  0.086669  0.124634  0  1.004468  0
H  H31  1  0.95249342  0.13389617  0.54465023  1  0.031817  0  0.084619  0.117488  0  1.028157  0
H  H32  1  0.98935964  0.20206210  0.90262294  1  0.038303  0  0.091968  0.090685  0  0.987029  0
H  H33  1  0.08144493  0.10227278  0.90074835  1  0.001721  0  0.087562  0.076033  0  1.033615  0
H  H34  1  0.20434384  0.30213491  0.92619709  1  0.026655  0  0.08724  0.082699  0  0.989613  0
H  H35  1  0.28982352  0.19731618  0.90585815  1  0.011573  0  0.094313  0.090351  0  0.981632  0
H  H36  1  0.77018160  0.75731163  0.54645955  1  0.059847  0  0.115957  0.123957  0  1.000019  0
H  H37  1  0.79044667  0.00855036  0.83516992  1  0.1614  0  0.118947  0.141006  0  1.001246  0
H  H38  1  0.09145596  0.80769430  0.84906842  1  0.15112  0  0.119574  0.136724  0  0.988007  0
H  H39  1  0.79396870  0.57056478  0.71677743  1  0.086888  0  0.108258  0.093876  0  0.982594  0
H  H40  1  0.72961143  0.68311671  0.73281517  1  0.062148  0  0.111323  0.090038  0  1.012584  0
H  H41  1  0.34176333  0.41255526  0.68395476  1  0.118336  0  0.123682  0.122775  0  0.994264  0
H  H42  1  0.36148763  0.70702352  0.63355421  1  0.074393  0  0.107272  0.123353  0  0.978691  0
H  H43  1  0.54312413  0.75076032  0.70961408  1  0.039677  0  0.09989  0.102261  0  0.985834  0
H  H44  1  0.63397968  0.45385211  0.76653220  1  0.12369  0  0.119442  0.120558  0  1.037846  0
H  H45  1  0.40743255  0.59784810  0.47118746  1  0.077198  0  0.084691  0.119709  0  1.030233  0
H  H46  1  0.48843563  0.72255929  0.52091311  1  0.027809  0  0.08729  0.12568  0  1.00424  0
H  H47  1  0.59222109  0.63368952  0.54389207  1  0.025106  0  0.084319  0.117542  0  1.029477  0
H  H48  1  0.91377134  0.70224679  0.90330383  1  0.029898  0  0.091738  0.090471  0  0.985882  0
H  H49  1  0.81915746  0.60235578  0.90095507  1  0.043549  0  0.087814  0.076405  0  1.033902  0
H  H50  1  0.72244483  0.80234014  0.92667133  1  0.026463  0  0.08735  0.082548  0  0.98922  0
H  H51  1  0.61633645  0.69751433  0.90618059  1  0.016921  0  0.094329  0.090304  0  0.98174  0
H  H52  1  0.22397059  0.74251119  0.45361056  1  0.089037  0  0.115793  0.123657  0  1.00039  0
H  H53  1  0.95508631  0.49138820  0.16490258  1  0.138548  0  0.118958  0.140315  0  1.001524  0
H  H54  1  0.24254247  0.69223686  0.15092245  1  0.134604  0  0.119782  0.137162  0  0.986888  0
H  H55  1  0.07701896  0.93006382  0.28362092  1  0.088994  0  0.108679  0.094419  0  0.983886  0
H  H56  1  0.99657117  0.81763303  0.26790226  1  0.081007  0  0.111421  0.090457  0  1.01198  0
H  H57  1  0.65744810  0.08779488  0.31552093  1  0.116608  0  0.123813  0.123189  0  0.994379  0
H  H58  1  0.72684550  0.79375050  0.36656235  1  0.079369  0  0.107304  0.123351  0  0.979839  0
H  H59  1  0.83163336  0.74960893  0.28992470  1  0.046272  0  0.099515  0.101616  0  0.985657  0
H  H60  1  0.86749692  0.04655600  0.23334995  1  0.132657  0  0.119313  0.120014  0  1.038294  0
H  H61  1  0.93607838  0.90218736  0.52854526  1  0.044838  0  0.084386  0.118649  0  1.030489  0
H  H62  1  0.96629911  0.77731941  0.47831290  1  0.037398  0  0.086713  0.124768  0  1.004506  0
H  H63  1  0.04749683  0.86610102  0.45534617  1  0.031682  0  0.084607  0.117529  0  1.028294  0
H  H64  1  0.01063506  0.79792767  0.09736066  1  0.038026  0  0.092056  0.090769  0  0.986997  0
H  H65  1  0.91857226  0.89771850  0.09923319  1  0.040742  0  0.087543  0.076049  0  1.033622  0
H  H66  1  0.79565199  0.69787124  0.07379982  1  0.026103  0  0.087221  0.082645  0  0.989398  0
H  H67  1  0.71015964  0.80268340  0.09409800  1  0.011293  0  0.094281  0.0903  0  0.981565  0
C  C68  1  0.22805487  0.11217198  0.31589908  1  0.062599  0  -0.011224  -0.017036  0  3.977681  0
C  C69  1  0.18062746  0.19919075  0.36687146  1  0.056686  0  -0.066984  -0.101902  0  3.930644  0
C  C70  1  0.06942585  0.23059893  0.30770632  1  -0.030745  0  -0.011229  -0.018178  0  3.978357  0
C  C71  1  0.33853754  0.07529074  0.38286540  1  1.590496  0  0.214758  0.580695  0  4.209907  0
C  C72  1  0.02463843  0.32610959  0.36666044  1  1.602932  0  0.209766  0.582758  0  4.201735  0
C  C73  1  0.16859139  0.05727573  0.20410257  1  -0.062299  0  -0.073436  -0.157393  0  3.93363  0
C  C74  1  0.00147861  0.17252964  0.19698030  1  -0.014494  0  -0.07244  -0.155488  0  3.932847  0
C  C75  1  0.52884881  0.39883974  0.32850099  1  0.985508  0  0.226654  0.294721  0  3.906738  0
C  C76  1  0.05347548  0.08733498  0.14614362  1  0.178779  0  0.083193  0.093346  0  4.003193  0
C  C77  1  0.26478322  0.37678520  0.24251820  1  0.282039  0  -0.05211  -0.058357  0  3.878337  0
C  C78  1  0.58814076  0.52986069  0.31074676  1  0.493414  0  0.002039  -0.019897  0  4.004613  0
C  C79  1  0.53440928  0.31424200  0.35719718  1  0.007294  0  -0.153156  -0.200579  0  3.987518  0
C  C80  1  0.44442174  0.51018615  0.26986296  1  0.219377  0  0.000356  -0.103198  0  3.938204  0
C  C81  1  0.50955891  0.34165596  0.46125777  1  -0.035665  0  -0.249451  -0.356581  0  3.933557  0
C  C82  1  0.19302613  0.33520368  0.12050809  1  -0.032203  0  -0.167404  -0.173524  0  3.952108  0
C  C83  1  0.27406685  0.26508655  0.06012682  1  -0.027962  0  -0.165886  -0.140603  0  3.934927  0
C  C84  1  0.91228271  0.38799035  0.68418818  1  0.075586  0  -0.011729  -0.01728  0  3.978506  0
C  C85  1  0.81365288  0.30100582  0.63314700  1  0.044179  0  -0.066294  -0.100946  0  3.928501  0
C  C86  1  0.76156257  0.26946084  0.69224378  1  -0.015538  0  -0.011813  -0.018917  0  3.975929  0
C  C87  1  0.95594937  0.42480464  0.61721497  1  1.602058  0  0.214448  0.581049  0  4.207298  0
C  C88  1  0.65768614  0.17394840  0.63328044  1  1.587668  0  0.209447  0.582507  0  4.201527  0
C  C89  1  0.96466385  0.44284671  0.79597566  1  -0.02058  0  -0.073477  -0.156921  0  3.933892  0
C  C90  1  0.80446365  0.32747868  0.80300974  1  -0.073267  0  -0.072539  -0.155275  0  3.929325  0
C  C91  1  0.20093423  0.10060263  0.67153891  1  0.99599  0  0.226049  0.292126  0  3.908871  0
C  C92  1  0.90735953  0.41273932  0.85389598  1  0.191155  0  0.083617  0.093573  0  4.003405  0
C  C93  1  0.02235631  0.12261351  0.75701380  1  0.270306  0  -0.053589  -0.061714  0  3.88181  0
C  C94  1  0.27780347  0.96972864  0.68955149  1  0.42145  0  0.00172  -0.02177  0  4.005563  0
C  C95  1  0.17824485  0.18526939  0.64297023  1  0.005216  0  -0.15294  -0.200381  0  3.987115  0
C  C96  1  0.17470677  0.98931574  0.73018560  1  0.286252  0  0.001069  -0.101686  0  3.937638  0
C  C97  1  0.04900656  0.15824606  0.53924614  1  -0.068191  0  -0.248501  -0.353809  0  3.930806  0
C  C98  1  0.07231060  0.16450922  0.87899830  1  -0.002144  0  -0.166666  -0.172344  0  3.952785  0
C  C99  1  0.21384400  0.23470530  0.93943895  1  0.008402  0  -0.166173  -0.142404  0  3.934862  0
C  C100  1  0.77190658  0.88790276  0.68412886  1  0.062362  0  -0.010877  -0.016505  0  3.977409  0
C  C101  1  0.81934736  0.80089214  0.63317370  1  0.052344  0  -0.067163  -0.102202  0  3.931416  0
C  C102  1  0.93051734  0.76945344  0.69231145  1  -0.031039  0  -0.011439  -0.018663  0  3.978836  0
C  C103  1  0.66142472  0.92475792  0.61714671  1  1.589824  0  0.214477  0.580513  0  4.210138  0
C  C104  1  0.97527012  0.67393532  0.63335107  1  1.604189  0  0.209197  0.58233  0  4.202702  0
C  C105  1  0.83135841  0.94277505  0.79594082  1  -0.062846  0  -0.073731  -0.158199  0  3.933278  0
C  C106  1  0.99846862  0.82751371  0.80305259  1  -0.015442  0  -0.072266  -0.154835  0  3.931935  0
C  C107  1  0.47116986  0.60114480  0.67148345  1  0.98753  0  0.22659  0.294504  0  3.906944  0
C  C108  1  0.94646954  0.91270010  0.85390149  1  0.180377  0  0.083543  0.093978  0  4.002925  0
C  C109  1  0.73523956  0.62316352  0.75745642  1  0.281161  0  -0.05217  -0.058411  0  3.878397  0
C  C110  1  0.41184427  0.47012981  0.68923774  1  0.492428  0  0.002003  -0.019798  0  4.003776  0
C  C111  1  0.46564645  0.68572692  0.64277080  1  0.004606  0  -0.152942  -0.200557  0  3.986964  0
C  C112  1  0.55556323  0.48977384  0.73009454  1  0.220765  0  0.000318  -0.103737  0  3.937863  0
C  C113  1  0.49051100  0.65824955  0.53869231  1  -0.080131  0  -0.249705  -0.357193  0  3.933594  0
C  C114  1  0.80700061  0.66476221  0.87946949  1  -0.032907  0  -0.167393  -0.173945  0  3.952154  0
C  C115  1  0.72595223  0.73489357  0.93984156  1  -0.026246  0  -0.165916  -0.140507  0  3.934208  0
C  C116  1  0.08777446  0.61203271  0.31588057  1  0.074496  0  -0.011885  -0.017004  0  3.978518  0
C  C117  1  0.18639897  0.69901289  0.36688878  1  -0.017615  0  -0.066072  -0.10096  0  3.928944  0
C  C118  1  0.23845471  0.73050427  0.30774275  1  0.046442  0  -0.01171  -0.01855  0  3.976662  0
C  C119  1  0.04408386  0.57527057  0.38289005  1  1.603439  0  0.214579  0.580851  0  4.207366  0
C  C120  1  0.34228229  0.82602732  0.36666355  1  1.587439  0  0.208954  0.5822  0  4.201813  0
C  C121  1  0.03539631  0.55713600  0.20409542  1  -0.019134  0  -0.073478  -0.157204  0  3.933822  0
C  C122  1  0.19557381  0.67245796  0.19699898  1  -0.073981  0  -0.072593  -0.155616  0  3.930421  0
C  C123  1  0.79905989  0.89942298  0.32844978  1  0.995642  0  0.226163  0.292221  0  3.909023  0
C  C124  1  0.09271430  0.58720317  0.14614801  1  0.191662  0  0.083697  0.093786  0  4.003578  0
C  C125  1  0.97764931  0.87738074  0.24297142  1  0.268888  0  -0.053545  -0.061518  0  3.881798  0
C  C126  1  0.72219988  0.03027467  0.31040909  1  0.422251  0  0.001835  -0.021729  0  4.005792  0
C  C127  1  0.82173688  0.81475540  0.35703372  1  0.00575  0  -0.15303  -0.200585  0  3.98714  0
C  C128  1  0.82529773  0.01067784  0.26977989  1  0.28665  0  0.000834  -0.102079  0  3.937773  0
C  C129  1  0.95098874  0.84176155  0.46075984  1  -0.067906  0  -0.248595  -0.354007  0  3.93064  0
C  C130  1  0.92769567  0.83548281  0.12098187  1  -0.040586  0  -0.16667  -0.172412  0  3.95281  0
C  C131  1  0.78616306  0.76529568  0.06054420  1  0.009005  0  -0.16603  -0.14217  0  3.93425  0
N  N132  1  0.63937711  0.46060483  0.34707356  1  -1.229631  0  -0.356171  -0.336208  0  3.524126  0
N  N133  1  0.40834374  0.42799704  0.28217107  1  -1.223083  0  -0.243278  -0.013714  0  3.733037  0
N  N134  1  0.96859172  0.02641187  0.03340711  1  -0.034631  0  0.004022  0.254639  0  3.900157  0
N  N135  1  0.29291774  0.03893164  0.65317206  1  -1.235471  0  -0.356677  -0.335333  0  3.523894  0
N  N136  1  0.12643014  0.07141877  0.71769575  1  -1.24564  0  -0.242479  -0.010481  0  3.732564  0
N  N137  1  0.93526937  0.47365663  0.96663193  1  -0.051972  0  0.003691  0.254269  0  3.904255  0
N  N138  1  0.36063710  0.53940802  0.65293184  1  -1.229777  0  -0.356243  -0.336263  0  3.523807  0
N  N139  1  0.59166237  0.57196293  0.71779292  1  -1.224418  0  -0.243268  -0.01345  0  3.732534  0
N  N140  1  0.03130853  0.97361653  0.96662295  1  -0.046677  0  0.003942  0.254101  0  3.90103  0
N  N141  1  0.70706359  0.96108657  0.34679606  1  -1.235618  0  -0.356608  -0.33515  0  3.524214  0
N  N142  1  0.87357762  0.92858146  0.28228586  1  -1.245528  0  -0.242483  -0.010501  0  3.732471  0
N  N143  1  0.06489565  0.52629841  0.03345281  1  -0.035843  0  0.003618  0.254398  0  3.904801  0
O  O144  1  0.89699740  0.33470458  0.32756172  1  -1.16508  0  -0.317446  -0.531907  0  2.264028  0
O  O145  1  0.42502526  0.03059073  0.34406394  1  -1.164243  0  -0.310531  -0.531327  0  2.312005  0
O  O146  1  0.33210038  0.09165597  0.47251859  1  -1.17073  0  -0.310167  -0.551827  0  2.364065  0
O  O147  1  0.12119241  0.38996994  0.45181411  1  -1.185391  0  -0.316646  -0.573369  0  2.352516  0
O  O148  1  0.83588149  0.02316498  0.00081784  1  -0.499583  0  -0.187486  -0.394328  0  1.916198  0
O  O149  1  0.56947181  0.16516598  0.67260509  1  -1.154936  0  -0.316563  -0.53133  0  2.264144  0
O  O150  1  0.08134876  0.46935176  0.65582779  1  -1.165422  0  -0.309974  -0.530985  0  2.309701  0
O  O151  1  0.85972515  0.40846706  0.52764790  1  -1.176585  0  -0.310394  -0.55233  0  2.3651  0
O  O152  1  0.66873001  0.11025187  0.54792264  1  -1.185038  0  -0.317039  -0.572959  0  2.353585  0
O  O153  1  0.83503897  0.47706248  0.99915053  1  -0.504545  0  -0.187107  -0.393925  0  1.915386  0
O  O154  1  0.10281936  0.66522266  0.67254379  1  -1.16629  0  -0.316995  -0.531554  0  2.265067  0
O  O155  1  0.57483157  0.96934904  0.65589650  1  -1.164377  0  -0.310342  -0.531247  0  2.311378  0
O  O156  1  0.66795177  0.90847916  0.52754487  1  -1.170047  0  -0.310061  -0.55172  0  2.364187  0
O  O157  1  0.87873169  0.61018154  0.54807469  1  -1.186259  0  -0.316524  -0.573128  0  2.35214  0
O  O158  1  0.16400392  0.97690073  0.99922103  1  -0.498346  0  -0.18732  -0.393974  0  1.916751  0
O  O159  1  0.43059776  0.83475276  0.32739915  1  -1.154294  0  -0.316499  -0.531402  0  2.264032  0
O  O160  1  0.91879044  0.53050279  0.34416592  1  -1.16598  0  -0.310376  -0.531385  0  2.310557  0
O  O161  1  0.14015902  0.59187790  0.47261377  1  -1.177231  0  -0.310311  -0.552124  0  2.364916  0
O  O162  1  0.33112520  0.88980933  0.45193357  1  -1.184737  0  -0.316802  -0.572921  0  2.353896  0
O  O163  1  0.16512078  0.52292027  0.00091834  1  -0.502489  0  -0.187224  -0.394162  0  1.915092  0
