# generated using pymatgen
data_SnH13C6SN3
_symmetry_space_group_name_H-M   'P 1'
_cell_length_a   6.68051394
_cell_length_b   11.01307268
_cell_length_c   13.61835775
_cell_angle_alpha   90.00053894
_cell_angle_beta   90.00048104
_cell_angle_gamma   89.99927489
_symmetry_Int_Tables_number   1
_chemical_formula_structural   SnH13C6SN3
_chemical_formula_sum   'Sn4 H52 C24 S4 N12'
_cell_volume   1001.94323862
_cell_formula_units_Z   4
loop_
 _symmetry_equiv_pos_site_id
 _symmetry_equiv_pos_as_xyz
  1  'x, y, z'
loop_
 _atom_site_type_symbol
 _atom_site_label
 _atom_site_symmetry_multiplicity
 _atom_site_fract_x
 _atom_site_fract_y
 _atom_site_fract_z
 _atom_site_occupancy
 _atom_site_hle17_bader_spin_density
 _atom_site_hle17_ddec_charge
 _atom_site_hle17_ddec_spin_density
 _atom_site_hle17_ddec_sum_bond_order
 _atom_site_hle17_magmom
 _atom_site_hse06_10hf_bader_spin_density
 _atom_site_hse06_10hf_ddec_charge
 _atom_site_hse06_10hf_ddec_spin_density
 _atom_site_hse06_10hf_ddec_sum_bond_order
 _atom_site_hse06_10hf_magmom
 _atom_site_hse06_bader_spin_density
 _atom_site_hse06_ddec_charge
 _atom_site_hse06_ddec_spin_density
 _atom_site_hse06_ddec_sum_bond_order
 _atom_site_hse06_magmom
 _atom_site_pbe_bader_spin_density
 _atom_site_pbe_cm5_charge
 _atom_site_pbe_ddec_charge
 _atom_site_pbe_ddec_spin_density
 _atom_site_pbe_ddec_sum_bond_order
 _atom_site_pbe_magmom
Sn  Sn0  1  0.49954676  0.14911124  0.69233912  1  0  1.181014  0  2.989744  0  0  1.053863  0  3.467782  0  0  1.083893  0  3.465619  0  0  0.464741  1.033483  0  3.468776  0
Sn  Sn1  1  0.99954259  0.85088400  0.30766136  1  0  1.181073  0  2.989664  0  0  1.05387  0  3.467755  0  0  1.08395  0  3.465547  0  0  0.464731  1.033489  0  3.468752  0
Sn  Sn2  1  0.49953589  0.35088674  0.19233394  1  0  1.181078  0  2.989603  0  0  1.053906  0  3.467666  0  0  1.083955  0  3.465495  0  0  0.464782  1.033526  0  3.468664  0
Sn  Sn3  1  0.99953998  0.64911668  0.80766581  1  0  1.181141  0  2.989691  0  0  1.053888  0  3.467895  0  0  1.084003  0  3.465606  0  0  0.464742  1.033506  0  3.468893  0
H  H4  1  0.21218478  0.45012414  0.61020863  1  0  0.096324  0  0.972967  0  0  0.101292  0  1.048226  0  0  0.104755  0  1.044192  0  0  0.127706  0.098804  0  1.051001  0
H  H5  1  0.71217034  0.54987149  0.38979433  1  0  0.096365  0  0.972999  0  0  0.101343  0  1.048221  0  0  0.104804  0  1.044193  0  0  0.127738  0.098851  0  1.051005  0
H  H6  1  0.21219367  0.04987510  0.11020702  1  0  0.096438  0  0.972775  0  0  0.101328  0  1.04813  0  0  0.104791  0  1.044098  0  0  0.127698  0.098838  0  1.050907  0
H  H7  1  0.71217791  0.95012417  0.88979668  1  0  0.096434  0  0.972992  0  0  0.101317  0  1.048304  0  0  0.104771  0  1.044293  0  0  0.127746  0.098826  0  1.051088  0
H  H8  1  0.95110611  0.36533543  0.40599431  1  0  0.108856  0  0.942804  0  0  0.128321  0  1.009599  0  0  0.128709  0  1.009801  0  0  0.107158  0.127952  0  1.009493  0
H  H9  1  0.45109847  0.63467290  0.59400964  1  0  0.108792  0  0.942869  0  0  0.128283  0  1.009652  0  0  0.12867  0  1.009856  0  0  0.107149  0.127912  0  1.009545  0
H  H10  1  0.95112626  0.13466882  0.90599131  1  0  0.108887  0  0.942932  0  0  0.128346  0  1.00973  0  0  0.128735  0  1.009931  0  0  0.107143  0.127959  0  1.00964  0
H  H11  1  0.45111275  0.86533225  0.09401117  1  0  0.108871  0  0.943034  0  0  0.128392  0  1.009751  0  0  0.12878  0  1.009953  0  0  0.107202  0.127993  0  1.009673  0
H  H12  1  0.90165982  0.22765780  0.47111754  1  0  0.103414  0  0.954287  0  0  0.122125  0  1.020827  0  0  0.123387  0  1.020117  0  0  0.105795  0.121137  0  1.021376  0
H  H13  1  0.40163770  0.77234274  0.52887886  1  0  0.103368  0  0.954281  0  0  0.122092  0  1.020842  0  0  0.123362  0  1.020123  0  0  0.105775  0.121101  0  1.021389  0
H  H14  1  0.90165763  0.27234758  0.97112587  1  0  0.103312  0  0.954326  0  0  0.122082  0  1.020827  0  0  0.123347  0  1.020113  0  0  0.105773  0.121092  0  1.02137  0
H  H15  1  0.40165785  0.72766294  0.02887934  1  0  0.103376  0  0.95429  0  0  0.122098  0  1.020848  0  0  0.123363  0  1.020133  0  0  0.105784  0.121109  0  1.021391  0
H  H16  1  0.14654208  0.29637814  0.47480979  1  0  0.110526  0  0.957018  0  0  0.133155  0  1.016827  0  0  0.134  0  1.017005  0  0  0.106327  0.132441  0  1.016795  0
H  H17  1  0.64653122  0.70362435  0.52518850  1  0  0.110446  0  0.956815  0  0  0.133082  0  1.01669  0  0  0.133927  0  1.016867  0  0  0.10631  0.132367  0  1.016656  0
H  H18  1  0.14655031  0.20362127  0.97481098  1  0  0.110469  0  0.957043  0  0  0.133119  0  1.01684  0  0  0.133966  0  1.017021  0  0  0.106327  0.132406  0  1.016808  0
H  H19  1  0.64653796  0.79637850  0.02519244  1  0  0.110493  0  0.957027  0  0  0.133118  0  1.016865  0  0  0.133963  0  1.017043  0  0  0.106324  0.132404  0  1.016829  0
H  H20  1  0.25123036  0.97073900  0.62492173  1  0  0.162982  0  0.984244  0  0  0.179083  0  1.042313  0  0  0.182363  0  1.041787  0  0  0.087176  0.176755  0  1.042721  0
H  H21  1  0.75122654  0.02925815  0.37507773  1  0  0.162992  0  0.984252  0  0  0.179112  0  1.042288  0  0  0.18238  0  1.04178  0  0  0.087174  0.17678  0  1.042701  0
H  H22  1  0.25121274  0.52925351  0.12491849  1  0  0.163005  0  0.984219  0  0  0.179101  0  1.042279  0  0  0.182373  0  1.041768  0  0  0.087155  0.176773  0  1.042684  0
H  H23  1  0.75122919  0.47074818  0.87507729  1  0  0.162994  0  0.984201  0  0  0.179087  0  1.042267  0  0  0.182355  0  1.041759  0  0  0.087156  0.176756  0  1.042677  0
H  H24  1  0.44885632  0.99954986  0.53748145  1  0  0.143785  0  1.003258  0  0  0.162856  0  1.060867  0  0  0.165302  0  1.061697  0  0  0.08134  0.161115  0  1.060331  0
H  H25  1  0.94885759  0.00044941  0.46251882  1  0  0.143791  0  1.003289  0  0  0.162868  0  1.060885  0  0  0.165314  0  1.061715  0  0  0.081345  0.16113  0  1.060346  0
H  H26  1  0.44884379  0.50044648  0.03747432  1  0  0.143717  0  1.003182  0  0  0.1628  0  1.060788  0  0  0.165246  0  1.061617  0  0  0.081341  0.161061  0  1.060249  0
H  H27  1  0.94885515  0.49955733  0.96251787  1  0  0.143834  0  1.003339  0  0  0.162921  0  1.060913  0  0  0.165364  0  1.061747  0  0  0.08137  0.161182  0  1.060377  0
H  H28  1  0.23876218  0.09885656  0.54350253  1  0  0.143438  0  1.003954  0  0  0.162656  0  1.061095  0  0  0.164951  0  1.062129  0  0  0.079741  0.161008  0  1.060436  0
H  H29  1  0.73877297  0.90114432  0.45649834  1  0  0.143466  0  1.003892  0  0  0.162668  0  1.061051  0  0  0.164952  0  1.062097  0  0  0.079738  0.161024  0  1.060391  0
H  H30  1  0.23876075  0.40113353  0.04349553  1  0  0.143493  0  1.00372  0  0  0.162689  0  1.060901  0  0  0.164981  0  1.061937  0  0  0.079752  0.161043  0  1.060244  0
H  H31  1  0.73876842  0.59886735  0.95649580  1  0  0.143465  0  1.003882  0  0  0.162688  0  1.061015  0  0  0.164979  0  1.062053  0  0  0.079741  0.161041  0  1.060356  0
H  H32  1  0.41174406  0.25097426  0.86684201  1  0  0.148213  0  1.025269  0  0  0.161957  0  1.090895  0  0  0.16509  0  1.091104  0  0  0.07169  0.159684  0  1.090845  0
H  H33  1  0.91174203  0.74902166  0.13315957  1  0  0.14828  0  1.025254  0  0  0.162029  0  1.090867  0  0  0.165159  0  1.091079  0  0  0.07171  0.159751  0  1.09082  0
H  H34  1  0.41174729  0.24903004  0.36683311  1  0  0.148272  0  1.025314  0  0  0.161999  0  1.090953  0  0  0.165132  0  1.091162  0  0  0.071714  0.159722  0  1.090902  0
H  H35  1  0.91175077  0.75096860  0.63315746  1  0  0.148206  0  1.025305  0  0  0.161946  0  1.090939  0  0  0.165074  0  1.091157  0  0  0.071664  0.159672  0  1.090887  0
H  H36  1  0.20815390  0.28194685  0.78383537  1  0  0.148237  0  0.99637  0  0  0.165592  0  1.05477  0  0  0.168009  0  1.05586  0  0  0.07955  0.163845  0  1.054083  0
H  H37  1  0.70814795  0.71805155  0.21616317  1  0  0.148286  0  0.996394  0  0  0.165657  0  1.05476  0  0  0.168072  0  1.055855  0  0  0.079581  0.163911  0  1.054071  0
H  H38  1  0.20814431  0.21806079  0.28383064  1  0  0.148199  0  0.99643  0  0  0.165588  0  1.05478  0  0  0.168003  0  1.055874  0  0  0.07957  0.163843  0  1.05409  0
H  H39  1  0.70814706  0.78194033  0.71616056  1  0  0.14823  0  0.99627  0  0  0.165624  0  1.05462  0  0  0.168031  0  1.055724  0  0  0.079602  0.163879  0  1.053929  0
H  H40  1  0.43694970  0.36731174  0.77540638  1  0  0.150291  0  1.021426  0  0  0.165259  0  1.083933  0  0  0.168016  0  1.084429  0  0  0.080376  0.163264  0  1.083661  0
H  H41  1  0.93695466  0.63268035  0.22459311  1  0  0.150336  0  1.021332  0  0  0.165324  0  1.08381  0  0  0.168079  0  1.084309  0  0  0.080394  0.163325  0  1.083544  0
H  H42  1  0.43694489  0.13268314  0.27540172  1  0  0.150278  0  1.021269  0  0  0.165286  0  1.083744  0  0  0.168048  0  1.084234  0  0  0.080403  0.163279  0  1.083486  0
H  H43  1  0.93695797  0.86731803  0.72458968  1  0  0.15033  0  1.021272  0  0  0.165321  0  1.083766  0  0  0.168076  0  1.084263  0  0  0.080416  0.163312  0  1.083511  0
H  H44  1  0.88535346  0.21674412  0.72406500  1  0  0.149078  0  0.99735  0  0  0.167747  0  1.052381  0  0  0.170154  0  1.053622  0  0  0.082687  0.16599  0  1.051634  0
H  H45  1  0.38534028  0.78326109  0.27594382  1  0  0.149111  0  0.997576  0  0  0.167793  0  1.052539  0  0  0.170208  0  1.053773  0  0  0.082682  0.166037  0  1.051792  0
H  H46  1  0.88534102  0.28326399  0.22405342  1  0  0.149106  0  0.99755  0  0  0.167807  0  1.052504  0  0  0.170213  0  1.053746  0  0  0.082713  0.166048  0  1.051761  0
H  H47  1  0.38534973  0.71674212  0.77594291  1  0  0.149143  0  0.997363  0  0  0.1678  0  1.052378  0  0  0.170213  0  1.053616  0  0  0.0827  0.166045  0  1.051629  0
H  H48  1  0.87879143  0.10592892  0.62827254  1  0  0.149218  0  0.995402  0  0  0.169824  0  1.050243  0  0  0.172015  0  1.051668  0  0  0.083497  0.168228  0  1.049342  0
H  H49  1  0.37879553  0.89406907  0.37173992  1  0  0.149195  0  0.995514  0  0  0.169795  0  1.050344  0  0  0.17199  0  1.051769  0  0  0.083461  0.168203  0  1.049439  0
H  H50  1  0.87878715  0.39407177  0.12825888  1  0  0.149176  0  0.995499  0  0  0.169785  0  1.050348  0  0  0.171982  0  1.051768  0  0  0.083474  0.168195  0  1.04944  0
H  H51  1  0.37879682  0.60593530  0.87173596  1  0  0.149248  0  0.995548  0  0  0.169852  0  1.050367  0  0  0.172047  0  1.051793  0  0  0.083489  0.16826  0  1.049462  0
H  H52  1  0.86530600  0.05913349  0.75283361  1  0  0.148776  0  1.016684  0  0  0.164891  0  1.081312  0  0  0.167903  0  1.080821  0  0  0.082137  0.162734  0  1.081705  0
H  H53  1  0.36531298  0.94086188  0.24716925  1  0  0.14887  0  1.016659  0  0  0.164919  0  1.081353  0  0  0.167944  0  1.080849  0  0  0.082215  0.162763  0  1.081742  0
H  H54  1  0.86531272  0.44086330  0.25282985  1  0  0.148748  0  1.016693  0  0  0.16483  0  1.081371  0  0  0.167851  0  1.080871  0  0  0.082173  0.162674  0  1.081761  0
H  H55  1  0.36531824  0.55914206  0.74716714  1  0  0.148804  0  1.016707  0  0  0.164875  0  1.08138  0  0  0.167898  0  1.080883  0  0  0.082201  0.162719  0  1.081771  0
C  C56  1  0.73558059  0.39539164  0.59617110  1  0  0.27888  0  3.839626  0  0  0.247507  0  4.138769  0  0  0.26306  0  4.152116  0  0  0.204956  0.237065  0  4.129558  0
C  C57  1  0.23558380  0.60460109  0.40383490  1  0  0.278926  0  3.839662  0  0  0.247559  0  4.138802  0  0  0.263114  0  4.152147  0  0  0.20502  0.237116  0  4.129595  0
C  C58  1  0.73558834  0.10460160  0.09616183  1  0  0.278769  0  3.839841  0  0  0.247416  0  4.138959  0  0  0.262966  0  4.152308  0  0  0.205065  0.236976  0  4.129743  0
C  C59  1  0.23558054  0.89539385  0.90383463  1  0  0.278886  0  3.839745  0  0  0.247473  0  4.138926  0  0  0.26302  0  4.152283  0  0  0.205009  0.237032  0  4.129719  0
C  C60  1  0.05042040  0.44644010  0.61912933  1  0  0.155182  0  3.674856  0  0  0.087253  0  3.945697  0  0  0.101544  0  3.956662  0  0  0.155755  0.077947  0  3.938225  0
C  C61  1  0.55041321  0.55356313  0.38087297  1  0  0.15515  0  3.674489  0  0  0.087213  0  3.945324  0  0  0.101502  0  3.956272  0  0  0.155685  0.077909  0  3.937855  0
C  C62  1  0.05042472  0.05355412  0.11912334  1  0  0.155138  0  3.67487  0  0  0.08726  0  3.945709  0  0  0.101551  0  3.956666  0  0  0.155756  0.077956  0  3.938236  0
C  C63  1  0.55042235  0.94645274  0.88088851  1  0  0.155102  0  3.674706  0  0  0.087277  0  3.945572  0  0  0.101568  0  3.956522  0  0  0.155723  0.077971  0  3.938101  0
C  C64  1  0.98532166  0.31328119  0.47259252  1  0  -0.158592  0  3.629558  0  0  -0.263884  0  3.875  0  0  -0.25999  0  3.883163  0  0  -0.127196  -0.266243  0  3.869456  0
C  C65  1  0.48530131  0.68671780  0.52740643  1  0  -0.158377  0  3.629394  0  0  -0.263748  0  3.874866  0  0  -0.259858  0  3.883031  0  0  -0.127146  -0.266096  0  3.869312  0
C  C66  1  0.98532276  0.18671359  0.97259285  1  0  -0.158464  0  3.629785  0  0  -0.26382  0  3.875178  0  0  -0.259934  0  3.883344  0  0  -0.127134  -0.266155  0  3.869638  0
C  C67  1  0.48531967  0.81328359  0.02741271  1  0  -0.158492  0  3.629723  0  0  -0.263831  0  3.875095  0  0  -0.259939  0  3.883253  0  0  -0.127196  -0.26616  0  3.869564  0
C  C68  1  0.33818815  0.04070100  0.58684988  1  0  -0.683272  0  3.52151  0  0  -0.720359  0  3.74653  0  0  -0.732906  0  3.753528  0  0  -0.33499  -0.711648  0  3.741695  0
C  C69  1  0.83819848  0.95930275  0.41314993  1  0  -0.683316  0  3.521503  0  0  -0.720417  0  3.746539  0  0  -0.732949  0  3.753568  0  0  -0.334992  -0.711712  0  3.741706  0
C  C70  1  0.33818100  0.45929609  0.08684479  1  0  -0.683274  0  3.521221  0  0  -0.720345  0  3.746286  0  0  -0.732888  0  3.753305  0  0  -0.334968  -0.711635  0  3.74145  0
C  C71  1  0.83819664  0.54070493  0.91315061  1  0  -0.683372  0  3.521558  0  0  -0.720451  0  3.74653  0  0  -0.732995  0  3.753554  0  0  -0.334987  -0.711741  0  3.741701  0
C  C72  1  0.37111901  0.27865473  0.79209807  1  0  -0.687156  0  3.52371  0  0  -0.723443  0  3.751409  0  0  -0.736577  0  3.759181  0  0  -0.340893  -0.714304  0  3.746133  0
C  C73  1  0.87111435  0.72134332  0.20790261  1  0  -0.687335  0  3.523774  0  0  -0.723647  0  3.751447  0  0  -0.736785  0  3.759227  0  0  -0.340945  -0.7145  0  3.746184  0
C  C74  1  0.37111384  0.22135084  0.29209410  1  0  -0.687179  0  3.523697  0  0  -0.723515  0  3.751381  0  0  -0.736658  0  3.75915  0  0  -0.340965  -0.714357  0  3.746129  0
C  C75  1  0.87112700  0.77864993  0.70790071  1  0  -0.687212  0  3.523591  0  0  -0.723535  0  3.751287  0  0  -0.736668  0  3.759085  0  0  -0.340943  -0.71438  0  3.746028  0
C  C76  1  0.82034870  0.12995555  0.70088773  1  0  -0.693528  0  3.515684  0  0  -0.730378  0  3.740032  0  0  -0.743144  0  3.748102  0  0  -0.33885  -0.721447  0  3.734537  0
C  C77  1  0.32035355  0.87003925  0.29911788  1  0  -0.693671  0  3.515958  0  0  -0.730459  0  3.74035  0  0  -0.743267  0  3.748386  0  0  -0.338913  -0.721532  0  3.734855  0
C  C78  1  0.82035539  0.37004188  0.20087755  1  0  -0.693497  0  3.515953  0  0  -0.730386  0  3.740339  0  0  -0.743176  0  3.748392  0  0  -0.338921  -0.721457  0  3.734842  0
C  C79  1  0.32035134  0.62995928  0.79912072  1  0  -0.693722  0  3.515894  0  0  -0.730502  0  3.740287  0  0  -0.743315  0  3.748337  0  0  -0.338967  -0.721575  0  3.734789  0
S  S80  1  0.53153826  0.32239617  0.54751402  1  0  -0.489585  0  2.045972  0  0  -0.46235  0  2.38003  0  0  -0.476569  0  2.375998  0  0  -0.171183  -0.452107  0  2.382318  0
S  S81  1  0.03152430  0.67759359  0.45249187  1  0  -0.489613  0  2.045884  0  0  -0.462338  0  2.379882  0  0  -0.476571  0  2.375854  0  0  -0.171163  -0.452088  0  2.382162  0
S  S82  1  0.53153999  0.17759082  0.04750677  1  0  -0.48963  0  2.046285  0  0  -0.462378  0  2.380312  0  0  -0.476604  0  2.376285  0  0  -0.17121  -0.452132  0  2.382598  0
S  S83  1  0.03153005  0.82241074  0.95249251  1  0  -0.489539  0  2.046007  0  0  -0.462278  0  2.380096  0  0  -0.47651  0  2.376065  0  0  -0.171115  -0.452028  0  2.382379  0
N  N84  1  0.92851468  0.38138279  0.55947612  1  0  -0.097842  0  3.548018  0  0  0.002745  0  3.770853  0  0  -0.014416  0  3.795084  0  0  -0.24125  0.014034  0  3.7543  0
N  N85  1  0.42849727  0.61862027  0.44052627  1  0  -0.097815  0  3.548215  0  0  0.002777  0  3.771071  0  0  -0.014383  0  3.795297  0  0  -0.241276  0.014064  0  3.754517  0
N  N86  1  0.92852663  0.11861218  0.05947357  1  0  -0.097706  0  3.548111  0  0  0.002883  0  3.770915  0  0  -0.014268  0  3.795137  0  0  -0.241245  0.014169  0  3.754356  0
N  N87  1  0.42851376  0.88138452  0.94053029  1  0  -0.097924  0  3.548284  0  0  0.002671  0  3.771135  0  0  -0.014481  0  3.795354  0  0  -0.241325  0.01396  0  3.754575  0
N  N88  1  0.94137736  0.49740197  0.68892686  1  0  -0.264876  0  3.236955  0  0  -0.192018  0  3.507436  0  0  -0.206576  0  3.527227  0  0  -0.21618  -0.182312  0  3.494024  0
N  N89  1  0.44136465  0.50259463  0.31107118  1  0  -0.264857  0  3.23653  0  0  -0.191976  0  3.506999  0  0  -0.206513  0  3.526766  0  0  -0.216117  -0.18227  0  3.493586  0
N  N90  1  0.94137826  0.00258713  0.18891901  1  0  -0.265056  0  3.237057  0  0  -0.192192  0  3.507533  0  0  -0.206753  0  3.527324  0  0  -0.216195  -0.182482  0  3.494114  0
N  N91  1  0.44136674  0.99741764  0.81108637  1  0  -0.264846  0  3.236617  0  0  -0.192054  0  3.507162  0  0  -0.206604  0  3.526941  0  0  -0.216167  -0.182344  0  3.493746  0
N  N92  1  0.74290181  0.46724304  0.67504801  1  0  -0.303388  0  2.913113  0  0  -0.283697  0  3.189983  0  0  -0.292986  0  3.204583  0  0  -0.23012  -0.277438  0  3.180201  0
N  N93  1  0.24288421  0.53274963  0.32495215  1  0  -0.303448  0  2.912639  0  0  -0.283773  0  3.189505  0  0  -0.293065  0  3.204092  0  0  -0.230149  -0.277513  0  3.179724  0
N  N94  1  0.74290358  0.03274742  0.17503965  1  0  -0.303275  0  2.912946  0  0  -0.283601  0  3.189821  0  0  -0.292883  0  3.204418  0  0  -0.230174  -0.277341  0  3.18003  0
N  N95  1  0.24289592  0.96724434  0.82495683  1  0  -0.303439  0  2.913024  0  0  -0.283711  0  3.189908  0  0  -0.292997  0  3.204505  0  0  -0.230177  -0.277452  0  3.180123  0
