# generated using pymatgen
data_Al3H34C51Br3O14
_symmetry_space_group_name_H-M   'P 1'
_cell_length_a   13.60415231
_cell_length_b   13.57794852
_cell_length_c   27.22193481
_cell_angle_alpha   90.65121392
_cell_angle_beta   90.34419589
_cell_angle_gamma   62.55940023
_symmetry_Int_Tables_number   1
_chemical_formula_structural   Al3H34C51Br3O14
_chemical_formula_sum   'Al6 H68 C102 Br6 O28'
_cell_volume   4462.30681961
_cell_formula_units_Z   2
loop_
 _symmetry_equiv_pos_site_id
 _symmetry_equiv_pos_as_xyz
  1  'x, y, z'
loop_
 _atom_site_type_symbol
 _atom_site_label
 _atom_site_symmetry_multiplicity
 _atom_site_fract_x
 _atom_site_fract_y
 _atom_site_fract_z
 _atom_site_occupancy
 _atom_site_pbe_bader_charge
 _atom_site_pbe_bader_spin_density
 _atom_site_pbe_cm5_charge
 _atom_site_pbe_ddec_charge
 _atom_site_pbe_ddec_spin_density
 _atom_site_pbe_ddec_sum_bond_order
 _atom_site_pbe_magmom
Al  Al0  1  0.41214478  0.42762326  0.49423728  1  2.498556  0  0.397582  1.689189  0  2.5485  0
Al  Al1  1  0.40153227  0.19673601  0.49701203  1  2.481617  0  0.501937  1.658608  0  2.513929  0
Al  Al2  1  0.18731569  0.40673786  0.49389643  1  2.481651  0  0.502536  1.660004  0  2.517304  0
Al  Al3  1  0.91087649  0.92209851  0.98457939  1  2.499572  0  0.398772  1.686135  0  2.553783  0
Al  Al4  1  0.92163474  0.15255801  0.98458772  1  2.477259  0  0.504807  1.658486  0  2.512318  0
Al  Al5  1  0.13597039  0.94218781  0.98039564  1  2.481792  0  0.502903  1.658253  0  2.519186  0
H  H6  1  0.07265646  0.35434633  0.18412102  1  0.035116  0  0.096917  0.101351  0  0.993737  0
H  H7  1  0.18156290  0.83807628  0.21062219  1  0.071591  0  0.075549  0.072718  0  1.097933  0
H  H8  1  0.50440947  0.27654845  0.18702337  1  0.031778  0  0.095347  0.098105  0  0.986691  0
H  H9  1  0.20205723  0.32884062  0.27083430  1  0.027723  0  0.093603  0.063753  0  1.031404  0
H  H10  1  0.32160360  0.67805296  0.28512379  1  0.025854  0  0.097971  0.070335  0  0.957247  0
H  H11  1  0.54028048  0.34526952  0.28304930  1  0.058214  0  0.098877  0.071598  0  0.962424  0
H  H12  1  0.21824348  0.29533745  0.18777028  1  0.029481  0  0.098118  0.10641  0  0.971388  0
H  H13  1  0.31224721  0.72267676  0.20236649  1  0.027817  0  0.099355  0.108973  0  0.965621  0
H  H14  1  0.59119435  0.33726381  0.20167897  1  0.046984  0  0.099581  0.108475  0  0.96685  0
H  H15  1  0.27088307  0.00217760  0.20106351  1  0.060128  0  0.09154  0.095072  0  0.998247  0
H  H16  1  0.21271564  0.51461838  0.17773590  1  0.063913  0  0.087051  0.090638  0  1.013583  0
H  H17  1  0.84697660  0.06868475  0.22072745  1  0.051948  0  0.075361  0.073659  0  1.068181  0
H  H18  1  0.95957951  0.28299330  0.85476666  1  0.136063  0  0.112763  0.121961  0  0.995415  0
H  H19  1  0.25160421  0.80517862  0.84720591  1  0.112135  0  0.107916  0.114948  0  1.008383  0
H  H20  1  0.74442116  0.98548804  0.86065384  1  0.098642  0  0.119012  0.133424  0  0.982163  0
H  H21  1  0.04844145  0.35291437  0.61634618  1  0.076323  0  0.110869  0.117715  0  0.997924  0
H  H22  1  0.32144422  0.63360646  0.60958652  1  0.096997  0  0.113803  0.122859  0  0.993246  0
H  H23  1  0.57702300  0.06472806  0.62302161  1  0.093775  0  0.107203  0.112898  0  1.003818  0
H  H24  1  0.89658319  0.39014040  0.77797637  1  0.117441  0  0.089393  0.087069  0  1.065386  0
H  H25  1  0.35244312  0.77318193  0.76855185  1  0.103044  0  0.08668  0.084222  0  1.071415  0
H  H26  1  0.69791139  0.91616267  0.78400926  1  0.092451  0  0.089825  0.087581  0  1.058339  0
H  H27  1  0.92703566  0.41428892  0.69041418  1  0.041148  0  0.104166  0.106471  0  0.990801  0
H  H28  1  0.37674732  0.71353808  0.68120208  1  0.055971  0  0.103667  0.106825  0  0.989398  0
H  H29  1  0.63962839  0.94302012  0.69686836  1  0.060049  0  0.101113  0.102454  0  0.996822  0
H  H30  1  0.28167099  0.00090656  0.86316336  1  0.119745  0  0.10153  0.108757  0  1.042333  0
H  H31  1  0.96783112  0.74746492  0.85853904  1  0.139681  0  0.107479  0.121862  0  1.025153  0
H  H32  1  0.72530818  0.30986614  0.86662418  1  0.0837  0  0.099322  0.107791  0  1.042504  0
H  H33  1  0.43908234  0.96810078  0.70172432  1  0.068418  0  0.105846  0.118975  0  1.002685  0
H  H34  1  0.93213583  0.61218486  0.69765861  1  0.064624  0  0.102968  0.116069  0  1.003381  0
H  H35  1  0.59830022  0.46247096  0.70536163  1  0.100995  0  0.106019  0.12141  0  0.992995  0
H  H36  1  0.36943856  0.06871250  0.62287016  1  0.087114  0  0.110881  0.118559  0  0.999634  0
H  H37  1  0.03994850  0.57180217  0.61972213  1  0.094508  0  0.107595  0.114571  0  1.005127  0
H  H38  1  0.55239449  0.39144609  0.62843037  1  0.108689  0  0.110637  0.119293  0  0.998765  0
H  H39  1  0.09714285  0.07700530  0.28265691  1  0.053669  0  0.098359  0.109052  0  1.011051  0
H  H40  1  0.01492203  0.66236516  0.27354291  1  0.061093  0  0.098482  0.114288  0  0.997074  0
H  H41  1  0.72797445  0.99085101  0.28269281  1  0.057468  0  0.096397  0.111441  0  0.982969  0
H  H42  1  0.99260852  0.21599042  0.28695841  1  0.04998  0  0.102257  0.115684  0  0.973737  0
H  H43  1  0.00880421  0.79364291  0.28242551  1  0.054693  0  0.098773  0.109528  0  0.978992  0
H  H44  1  0.58322974  0.04301171  0.28148698  1  0.052902  0  0.099505  0.111687  0  0.974727  0
H  H45  1  0.98123327  0.23633638  0.20138502  1  0.073913  0  0.106532  0.086555  0  0.970966  0
H  H46  1  0.00531522  0.81484560  0.19792459  1  0.125193  0  0.091995  0.07647  0  1.010844  0
H  H47  1  0.57394821  0.07637007  0.19619637  1  0.082031  0  0.100401  0.083771  0  0.969887  0
H  H48  1  0.33871531  0.12926000  0.27163186  1  0.003347  0  0.093206  0.094104  0  1.021531  0
H  H49  1  0.32467678  0.50241846  0.27042650  1  0.073352  0  0.097413  0.098368  0  0.999549  0
H  H50  1  0.73630818  0.25917721  0.29178952  1  0.029998  0  0.096181  0.095264  0  0.97512  0
H  H51  1  0.29712446  0.02739284  0.28460356  1  0.045441  0  0.096979  0.099287  0  0.982475  0
H  H52  1  0.20140461  0.49140394  0.26186715  1  0.034205  0  0.093922  0.095734  0  1.005406  0
H  H53  1  0.81561582  0.11608724  0.30394468  1  0.047661  0  0.095825  0.099631  0  0.972098  0
H  H54  1  0.33598001  0.08521554  0.18801121  1  0.005366  0  0.097807  0.102897  0  0.970097  0
H  H55  1  0.33043459  0.53630161  0.18655569  1  0.026513  0  0.096518  0.102588  0  0.97034  0
H  H56  1  0.80400324  0.21031944  0.21058384  1  0.028116  0  0.090984  0.09591  0  0.987279  0
H  H57  1  0.00763166  0.39836690  0.35204916  1  0.041375  0  0.083435  0.11719  0  1.023908  0
H  H58  1  0.08094732  0.47103494  0.33453138  1  0.036656  0  0.080682  0.108452  0  1.04041  0
H  H59  1  0.93541730  0.53340303  0.32728386  1  0.004414  0  0.087806  0.119885  0  0.99026  0
H  H60  1  0.01404713  0.47402269  0.24617656  1  0.0228  0  0.07759  0.063177  0  1.047222  0
H  H61  1  0.95661042  0.38783984  0.26322563  1  -0.008857  0  0.08502  0.075154  0  0.990513  0
H  H62  1  0.14918101  0.80877263  0.37583526  1  0.045645  0  0.083788  0.11511  0  1.021549  0
H  H63  1  0.28913275  0.77863021  0.36798696  1  0.038463  0  0.092386  0.126778  0  0.986115  0
H  H64  1  0.18458323  0.91871400  0.37184303  1  0.002668  0  0.084293  0.112397  0  1.005717  0
H  H65  1  0.23154251  0.88413849  0.28562119  1  -0.008686  0  0.085162  0.074199  0  0.996655  0
H  H66  1  0.10098845  0.89021557  0.29183451  1  0.018046  0  0.080693  0.06384  0  1.015302  0
H  H67  1  0.40975337  0.22955213  0.34651994  1  0.075735  0  0.086754  0.122798  0  1.015806  0
H  H68  1  0.28980950  0.34064706  0.32258281  1  -0.024447  0  0.080215  0.101948  0  1.063214  0
H  H69  1  0.40185343  0.36304934  0.34188569  1  0.030034  0  0.09206  0.128392  0  1.002627  0
H  H70  1  0.37391140  0.33760386  0.24557972  1  0.004779  0  0.086554  0.074595  0  1.028567  0
H  H71  1  0.43369884  0.19631049  0.25827764  1  -0.000522  0  0.083305  0.066803  0  1.034439  0
H  H72  1  0.53813556  0.49375206  0.51673521  1  0.556812  0  0.287141  0.375773  0  0.934566  0
H  H73  1  0.81224079  0.83362290  0.01565032  1  0.571151  0  0.292691  0.385303  0  0.920734  0
C  C74  1  0.22798859  0.53078669  0.42239952  1  1.647269  0  0.279807  0.712505  0  4.1624  0
C  C75  1  0.54580523  0.21406106  0.43331846  1  1.651286  0  0.277774  0.71448  0  4.164121  0
C  C76  1  0.22440779  0.23217022  0.42741898  1  1.632843  0  0.284305  0.728298  0  4.140467  0
C  C77  1  0.26727699  0.08350270  0.20830835  1  -0.010122  0  -0.157486  -0.189604  0  3.860994  0
C  C78  1  0.24529661  0.56226417  0.19901912  1  -0.04103  0  -0.160971  -0.196596  0  3.871422  0
C  C79  1  0.77805703  0.15182094  0.22616031  1  -0.018092  0  -0.166343  -0.197548  0  3.878886  0
C  C80  1  0.27471772  0.10359540  0.26373226  1  0.006913  0  -0.154767  -0.191762  0  3.845579  0
C  C81  1  0.24121319  0.54406797  0.25465911  1  -0.050759  0  -0.153216  -0.189064  0  3.830852  0
C  C82  1  0.74877878  0.17601540  0.28082720  1  -0.026083  0  -0.154324  -0.184416  0  3.866512  0
C  C83  1  0.14778811  0.16512036  0.13523019  1  -0.198862  0  -0.01231  -0.00581  0  4.015564  0
C  C84  1  0.16983198  0.71431816  0.13684788  1  -0.471406  0  -0.022806  -0.026328  0  4.016702  0
C  C85  1  0.70521676  0.15251788  0.14457783  1  -0.391078  0  -0.024894  -0.026326  0  4.023605  0
C  C86  1  0.17436401  0.20148250  0.33675155  1  -0.554467  0  0.00344  0.018755  0  3.952887  0
C  C87  1  0.18220203  0.62336003  0.33463998  1  -0.565354  0  -0.003998  -0.000457  0  3.985139  0
C  C88  1  0.62351562  0.17309906  0.34394220  1  -0.572248  0  -0.004746  0.008101  0  3.986946  0
C  C89  1  0.19580361  0.20450152  0.38006814  1  0.317363  0  -0.045479  -0.231904  0  3.929414  0
C  C90  1  0.19695758  0.58499204  0.37572052  1  0.30368  0  -0.03991  -0.219993  0  3.960941  0
C  C91  1  0.60642481  0.18006158  0.38795835  1  0.299971  0  -0.052273  -0.234212  0  3.945915  0
C  C92  1  0.78749133  0.12054857  0.91796264  1  1.555902  0  0.272446  0.6339  0  4.089809  0
C  C93  1  0.09327054  0.11552828  0.91345653  1  1.544629  0  0.277062  0.648358  0  4.073771  0
C  C94  1  0.08962357  0.82092573  0.90884467  1  1.559202  0  0.273407  0.637648  0  4.089655  0
C  C95  1  0.79767255  0.11270943  0.05648419  1  1.686747  0  0.276199  0.721022  0  4.14739  0
C  C96  1  0.10134083  0.12240618  0.04650696  1  1.626977  0  0.285489  0.729981  0  4.141321  0
C  C97  1  0.11805630  0.80399965  0.04869167  1  1.658373  0  0.277783  0.716733  0  4.1493  0
C  C98  1  0.11053804  0.28490509  0.63756847  1  -0.041902  0  -0.074081  -0.133857  0  3.919245  0
C  C99  1  0.25287259  0.63713206  0.63138599  1  -0.009971  0  -0.073678  -0.135493  0  3.916319  0
C  C100  1  0.58637591  0.12887270  0.64392422  1  -0.100914  0  -0.079365  -0.141256  0  3.932743  0
C  C101  1  0.09149431  0.27293056  0.68716743  1  0.015434  0  -0.002583  0.07985  0  4.035759  0
C  C102  1  0.23760023  0.67604215  0.68005677  1  -0.047624  0  -0.005384  0.077565  0  4.041959  0
C  C103  1  0.62143059  0.11070581  0.69304201  1  0.034026  0  -0.005769  0.078698  0  4.036181  0
C  C104  1  0.05630108  0.24514142  0.78795580  1  0.027428  0  -0.001067  0.081323  0  4.010615  0
C  C105  1  0.20906200  0.74574846  0.78028467  1  0.004822  0  -0.00484  0.079126  0  4.019512  0
C  C106  1  0.68944613  0.07910318  0.79319073  1  0.0199  0  -0.003885  0.08016  0  4.019222  0
C  C107  1  0.20869926  0.54698439  0.56062060  1  1.53668  0  0.271284  0.638442  0  4.087862  0
C  C108  1  0.51675458  0.25144865  0.57026965  1  1.553228  0  0.268512  0.642556  0  4.086043  0
C  C109  1  0.23192807  0.23139569  0.56352660  1  1.553641  0  0.278331  0.650456  0  4.072076  0
C  C110  1  0.97381811  0.33370720  0.75981316  1  -0.033437  0  -0.085343  -0.117003  0  3.992232  0
C  C111  1  0.29643577  0.74609716  0.75113135  1  -0.057087  0  -0.090337  -0.122749  0  4.00338  0
C  C112  1  0.67871611  0.99391766  0.76560095  1  -0.053528  0  -0.088515  -0.123783  0  4.008786  0
C  C113  1  0.99068017  0.34699144  0.71151630  1  -0.042478  0  -0.087119  -0.125962  0  3.995488  0
C  C114  1  0.30995456  0.71304361  0.70305936  1  -0.041411  0  -0.089944  -0.130125  0  4.007194  0
C  C115  1  0.64647665  0.00892413  0.71756399  1  -0.036399  0  -0.090983  -0.131757  0  4.010177  0
C  C116  1  0.03809785  0.22863810  0.83712420  1  -0.054895  0  -0.068292  -0.120563  0  3.893291  0
C  C117  1  0.19539353  0.77839262  0.82985624  1  -0.065639  0  -0.073948  -0.1289  0  3.911564  0
C  C118  1  0.72459812  0.06332157  0.84221233  1  -0.060761  0  -0.067135  -0.123452  0  3.892423  0
C  C119  1  0.11884003  0.14032308  0.86346052  1  -0.036487  0  -0.013455  -0.039013  0  4.001872  0
C  C120  1  0.10882069  0.77855798  0.85726083  1  0.003765  0  -0.013811  -0.036094  0  4.005935  0
C  C121  1  0.73784983  0.14609613  0.86792018  1  0.008485  0  -0.013506  -0.034586  0  4.00556  0
C  C122  1  0.29224371  0.12397086  0.64122094  1  0.015462  0  -0.074653  -0.13294  0  3.908202  0
C  C123  1  0.09339629  0.60210508  0.63701745  1  -0.074602  0  -0.079335  -0.140497  0  3.925225  0
C  C124  1  0.57290789  0.31364773  0.64697243  1  -0.027072  0  -0.077045  -0.136654  0  3.917422  0
C  C125  1  0.27696730  0.10993032  0.69104363  1  -0.022081  0  -0.002421  0.091423  0  4.035622  0
C  C126  1  0.07565424  0.63981984  0.68589030  1  0.002267  0  -0.006065  0.090129  0  4.045336  0
C  C127  1  0.60765799  0.29888921  0.69607296  1  -0.029736  0  -0.005307  0.089965  0  4.047828  0
C  C128  1  0.17565636  0.18457501  0.71451731  1  0.023115  0  0.008426  0.00508  0  3.902718  0
C  C129  1  0.14879982  0.67634030  0.70811731  1  -0.017485  0  0.006095  0.002165  0  3.907137  0
C  C130  1  0.63176201  0.19690118  0.71977081  1  0.007708  0  0.006056  0.00242  0  3.907966  0
C  C131  1  0.36108600  0.02354123  0.71944166  1  0.059671  0  -0.09258  -0.185603  0  3.98654  0
C  C132  1  0.98767576  0.64021515  0.71467233  1  0.067534  0  -0.09684  -0.193054  0  4.002149  0
C  C133  1  0.61804183  0.38434825  0.72346117  1  0.059609  0  -0.095553  -0.190076  0  3.993186  0
C  C134  1  0.34440718  0.01145813  0.76790050  1  -0.159072  0  -0.00967  0.070922  0  3.949497  0
C  C135  1  0.97399068  0.67404308  0.76263401  1  -0.12176  0  -0.012427  0.071539  0  3.957269  0
C  C136  1  0.65093454  0.36872130  0.77140079  1  -0.161655  0  -0.012345  0.071901  0  3.957053  0
C  C137  1  0.24244410  0.08257681  0.79282353  1  0.040813  0  -0.008506  0.030303  0  4.016611  0
C  C138  1  0.04599111  0.71075070  0.78685023  1  -0.010708  0  -0.009838  0.029894  0  4.019547  0
C  C139  1  0.67713706  0.26712770  0.79690414  1  -0.073394  0  -0.011013  0.027936  0  4.019319  0
C  C140  1  0.13637262  0.30838052  0.25891875  1  0.008681  0  -0.081094  -0.023917  0  3.751804  0
C  C141  1  0.23465470  0.72815068  0.27379101  1  0.021968  0  -0.078348  -0.014579  0  3.764963  0
C  C142  1  0.54388029  0.27007330  0.26556288  1  0.005817  0  -0.076952  -0.017039  0  3.759717  0
C  C143  1  0.15867497  0.17078550  0.76490821  1  0.007244  0  0.012501  0.020434  0  3.891209  0
C  C144  1  0.13415073  0.71108619  0.75814558  1  -0.029555  0  0.009677  0.017333  0  3.896412  0
C  C145  1  0.66572633  0.18155301  0.76974993  1  0.002909  0  0.009862  0.018566  0  3.894892  0
C  C146  1  0.22045804  0.06884644  0.84171748  1  -0.024531  0  -0.079308  -0.128376  0  3.930736  0
C  C147  1  0.03464405  0.74542622  0.83601380  1  -0.020324  0  -0.078115  -0.129923  0  3.920953  0
C  C148  1  0.71381743  0.24718298  0.84568347  1  0.092547  0  -0.082569  -0.133119  0  3.936165  0
C  C149  1  0.20973402  0.21106317  0.61475267  1  -0.029742  0  -0.016574  -0.048928  0  4.02273  0
C  C150  1  0.18212814  0.59951270  0.61025620  1  0.079493  0  -0.017241  -0.042711  0  4.024233  0
C  C151  1  0.56176233  0.22951578  0.62119793  1  0.007253  0  -0.017808  -0.043412  0  4.022794  0
C  C152  1  0.07185790  0.16125583  0.26933153  1  -0.017293  0  -0.155776  -0.240158  0  3.851381  0
C  C153  1  0.05599788  0.71268956  0.26421929  1  -0.04197  0  -0.159141  -0.237589  0  3.857698  0
C  C154  1  0.65094308  0.05914727  0.26897083  1  -0.014045  0  -0.159681  -0.237923  0  3.866609  0
C  C155  1  0.05899654  0.16613555  0.21302866  1  -0.011858  0  -0.053671  0.030425  0  3.658628  0
C  C156  1  0.05643087  0.72821281  0.20838855  1  -0.059567  0  -0.058823  0.035871  0  3.641913  0
C  C157  1  0.65280175  0.06331419  0.21261685  1  -0.063958  0  -0.066017  0.022164  0  3.689564  0
C  C158  1  0.13322234  0.15464134  0.09181711  1  -0.003694  0  -0.048318  -0.219628  0  3.955846  0
C  C159  1  0.15424191  0.74780452  0.09489337  1  0.201648  0  -0.045458  -0.205648  0  3.954269  0
C  C160  1  0.73961691  0.14293486  0.10277490  1  0.105628  0  -0.048211  -0.210567  0  3.956594  0
C  C161  1  0.16243325  0.19529606  0.28381135  1  0.120082  0  0.006539  0.14417  0  3.843212  0
C  C162  1  0.17612527  0.65518502  0.28356694  1  0.128174  0  0.003577  0.143443  0  3.870086  0
C  C163  1  0.64040680  0.16909867  0.29136678  1  0.114613  0  0.003556  0.140957  0  3.872141  0
C  C164  1  0.14587439  0.28968709  0.20241425  1  -0.002968  0  -0.149713  -0.222606  0  3.820582  0
C  C165  1  0.22925135  0.74898312  0.21769808  1  -0.063319  0  -0.158705  -0.230287  0  3.824734  0
C  C166  1  0.57424579  0.26771633  0.21039618  1  -0.046181  0  -0.150655  -0.225066  0  3.823714  0
C  C167  1  0.15701104  0.17445136  0.18796310  1  0.111905  0  -0.002836  0.134677  0  3.921534  0
C  C168  1  0.17570193  0.68678954  0.18855657  1  0.149897  0  -0.002415  0.146167  0  3.902704  0
C  C169  1  0.67802583  0.15836758  0.19640296  1  0.140258  0  -0.002165  0.144813  0  3.895967  0
C  C170  1  0.02468005  0.40790985  0.27203938  1  -0.012433  0  -0.169496  -0.129411  0  3.953198  0
C  C171  1  0.01167816  0.45430703  0.32434479  1  -0.05357  0  -0.25127  -0.358716  0  3.957603  0
C  C172  1  0.18901872  0.83968153  0.30153544  1  -0.005493  0  -0.165918  -0.122314  0  3.957498  0
C  C173  1  0.20367448  0.83594738  0.35728859  1  -0.057094  0  -0.24813  -0.358831  0  3.964094  0
C  C174  1  0.42961303  0.27507099  0.27154887  1  -0.020028  0  -0.168747  -0.137607  0  3.957557  0
C  C175  1  0.38044977  0.30316170  0.32336663  1  -0.056982  0  -0.25428  -0.373677  0  3.945996  0
Br  Br176  1  0.46129949  0.89621525  0.80362127  1  -0.070928  0  0.052633  -0.048437  0  1.44156  0
Br  Br177  1  0.85602004  0.67000710  0.79872077  1  -0.073569  0  0.037684  -0.061134  0  1.425977  0
Br  Br178  1  0.66111813  0.48738769  0.80557427  1  -0.078225  0  0.030678  -0.071167  0  1.41919  0
Br  Br179  1  0.04657856  0.03604727  0.18635881  1  -0.134328  0  0.051383  -0.071449  0  1.507863  0
Br  Br180  1  0.98186015  0.65172404  0.17328780  1  -0.146414  0  0.00076  -0.104091  0  1.371547  0
Br  Br181  1  0.75917418  0.91670017  0.18622594  1  -0.132573  0  -0.016897  -0.13423  0  1.434942  0
O  O182  1  0.52029787  0.31038296  0.44908466  1  -1.215227  0  -0.205904  -0.553336  0  2.286696  0
O  O183  1  0.31864122  0.16743834  0.44571004  1  -1.239098  0  -0.226668  -0.588619  0  2.243667  0
O  O184  1  0.15507917  0.51174083  0.44458610  1  -1.25972  0  -0.242382  -0.6104  0  2.243841  0
O  O185  1  0.02148464  0.82667830  0.03469728  1  -1.2147  0  -0.205932  -0.555182  0  2.282165  0
O  O186  1  0.82129384  0.18486548  0.03646897  1  -1.262532  0  -0.244331  -0.608974  0  2.230326  0
O  O187  1  0.16665507  0.02667455  0.02922978  1  -1.238163  0  -0.223611  -0.582508  0  2.252114  0
O  O188  1  0.32542072  0.50386889  0.43696954  1  -1.21792  0  -0.202044  -0.532208  0  2.272733  0
O  O189  1  0.51564937  0.14490640  0.45218513  1  -1.254902  0  -0.246322  -0.609111  0  2.218902  0
O  O190  1  0.15384328  0.32489957  0.44630346  1  -1.247634  0  -0.227911  -0.58871  0  2.240066  0
O  O191  1  0.49316861  0.34522447  0.55212165  1  -1.254186  0  -0.222828  -0.586007  0  2.365139  0
O  O192  1  0.32289197  0.16062606  0.54348560  1  -1.273754  0  -0.236662  -0.600523  0  2.293351  0
O  O193  1  0.13945001  0.51586614  0.54187453  1  -1.272517  0  -0.250855  -0.615065  0  2.275696  0
O  O194  1  0.29832503  0.53126281  0.54074617  1  -1.243308  0  -0.215424  -0.569664  0  2.355379  0
O  O195  1  0.50158032  0.17463170  0.54862181  1  -1.277205  0  -0.248116  -0.614243  0  2.296937  0
O  O196  1  0.16238058  0.32080866  0.54303771  1  -1.273141  0  -0.232555  -0.596636  0  2.31303  0
O  O197  1  0.33299837  0.34249797  0.49480624  1  -1.615231  0  -0.391151  -1.268254  0  2.293875  0
O  O198  1  0.99983493  0.83767198  0.92895772  1  -1.240862  0  -0.208523  -0.541552  0  2.344699  0
O  O199  1  0.80863858  0.19476936  0.93904636  1  -1.27401  0  -0.248869  -0.608287  0  2.272968  0
O  O200  1  0.16524527  0.02615929  0.93354620  1  -1.277651  0  -0.234299  -0.59271  0  2.306621  0
O  O201  1  0.81040467  0.02710830  0.93570453  1  -1.2432  0  -0.208958  -0.55207  0  2.35402  0
O  O202  1  0.99956766  0.18085408  0.93232377  1  -1.266462  0  -0.231881  -0.593113  0  2.303668  0
O  O203  1  0.16483977  0.84105520  0.92888758  1  -1.276944  0  -0.248691  -0.615877  0  2.293743  0
O  O204  1  0.99041973  0.00661544  0.98373590  1  -1.611021  0  -0.391211  -1.269142  0  2.29773  0
O  O205  1  0.82380058  0.01620689  0.04032299  1  -1.222663  0  -0.210551  -0.566021  0  2.293174  0
O  O206  1  0.00659452  0.18949812  0.02884203  1  -1.243666  0  -0.227341  -0.588389  0  2.242502  0
O  O207  1  0.18615834  0.83071194  0.02653797  1  -1.257132  0  -0.243911  -0.606399  0  2.218552  0
O  O208  1  0.48270458  0.50781052  0.49171001  1  -1.352538  0  -0.581576  -0.999047  0  1.802417  0
O  O209  1  0.83923498  0.84293452  0.98415753  1  -1.36075  0  -0.579871  -1.000154  0  1.792648  0
