# generated using pymatgen
data_Zn6H51C80BrO24
_symmetry_space_group_name_H-M   'P 1'
_cell_length_a   18.22034659
_cell_length_b   18.58140821
_cell_length_c   18.89717382
_cell_angle_alpha   110.31170746
_cell_angle_beta   109.06993910
_cell_angle_gamma   108.66790838
_symmetry_Int_Tables_number   1
_chemical_formula_structural   Zn6H51C80BrO24
_chemical_formula_sum   'Zn6 H51 C80 Br1 O24'
_cell_volume   4946.21879185
_cell_formula_units_Z   1
loop_
 _symmetry_equiv_pos_site_id
 _symmetry_equiv_pos_as_xyz
  1  'x, y, z'
loop_
 _atom_site_type_symbol
 _atom_site_label
 _atom_site_symmetry_multiplicity
 _atom_site_fract_x
 _atom_site_fract_y
 _atom_site_fract_z
 _atom_site_occupancy
 _atom_site_pbe_bader_charge
 _atom_site_pbe_bader_spin_density
 _atom_site_pbe_cm5_charge
 _atom_site_pbe_ddec_charge
 _atom_site_pbe_ddec_spin_density
 _atom_site_pbe_ddec_sum_bond_order
 _atom_site_pbe_magmom
Zn  Zn0  1  0.56570653  0.49766489  0.56976720  1  1.315649  0  0.723421  0.959091  0  2.148519  0
Zn  Zn1  1  0.43820656  0.49827646  0.44601840  1  1.312113  0  0.718964  0.950641  0  2.166967  0
Zn  Zn2  1  0.56917540  0.06768788  0.01191897  1  1.310249  0  0.722507  0.95409  0  2.153286  0
Zn  Zn3  1  0.43440846  0.94242436  0.00266618  1  1.302958  0  0.718302  0.945742  0  2.141012  0
Zn  Zn4  1  0.00531495  0.05475548  0.55751111  1  1.30459  0  0.720564  0.953703  0  2.125208  0
Zn  Zn5  1  0.00062524  0.92415905  0.43138791  1  1.307244  0  0.721087  0.954488  0  2.15676  0
H  H6  1  0.42401123  0.22393494  0.09185176  1  0.043028  0  0.089453  0.087358  0  1.001734  0
H  H7  1  0.61420075  0.75673200  0.74363278  1  0.071122  0  0.110269  0.115532  0  0.981792  0
H  H8  1  0.24314326  0.28368512  0.39611326  1  0.100691  0  0.107131  0.117075  0  1.005172  0
H  H9  1  0.29426521  0.14301829  0.57362149  1  0.094062  0  0.090617  0.091296  0  1.048607  0
H  H10  1  0.42161907  0.27522766  0.60422708  1  0.114797  0  0.108583  0.114165  0  0.989537  0
H  H11  1  0.64376353  0.88739243  0.13174903  1  0.080187  0  0.109286  0.114324  0  0.983452  0
H  H12  1  0.75601268  0.88298985  0.24758870  1  0.082187  0  0.108623  0.113318  0  0.988337  0
H  H13  1  0.87852400  0.16297631  0.41061002  1  0.076359  0  0.111554  0.115285  0  0.981412  0
H  H14  1  0.77560735  0.16935344  0.28948162  1  0.094472  0  0.108758  0.110251  0  0.986439  0
H  H15  1  0.29801903  0.07958422  0.90889383  1  0.096684  0  0.10565  0.111325  0  1.012148  0
H  H16  1  0.59337461  0.21422953  0.26040995  1  0.034478  0  0.095576  0.1028  0  0.976309  0
H  H17  1  0.32394193  0.23407579  0.22346290  1  0.030962  0  0.09569  0.100747  0  1.004023  0
H  H18  1  0.17786885  0.08079390  0.79849646  1  0.096712  0  0.110121  0.114954  0  0.994317  0
H  H19  1  0.51683080  0.14604681  0.27803086  1  0.041894  0  0.094015  0.09441  0  1.000643  0
H  H20  1  0.36365423  0.20140950  0.29808543  1  0.012086  0  0.092598  0.094891  0  0.999856  0
H  H21  1  0.36295665  0.08762676  0.19705955  1  0.035046  0  0.097796  0.069946  0  0.982515  0
H  H22  1  0.42268760  0.33454705  0.19887811  1  0.041286  0  0.092747  0.092965  0  0.996954  0
H  H23  1  0.53954561  0.38299913  0.25855916  1  0.018326  0  0.093332  0.091767  0  0.974187  0
H  H24  1  0.53835233  0.26593569  0.15820760  1  0.051843  0  0.094716  0.103055  0  0.981505  0
H  H25  1  0.44025395  0.15252705  0.35716008  1  0.012768  0  0.097125  0.094593  0  1.023789  0
H  H26  1  0.47276546  0.14427391  0.49035048  1  0.057565  0  0.098412  0.093044  0  0.99923  0
H  H27  1  0.61449974  0.25929762  0.62779525  1  0.037198  0  0.097359  0.091072  0  1.002196  0
H  H28  1  0.61215699  0.68444041  0.42853371  1  0.124997  0  0.108452  0.116274  0  0.995388  0
H  H29  1  0.72305042  0.38381730  0.62974634  1  0.058256  0  0.097366  0.091979  0  0.999058  0
H  H30  1  0.68798626  0.39438595  0.49665311  1  0.028805  0  0.097333  0.096832  0  1.003619  0
H  H31  1  0.24795317  0.96442334  0.07298586  1  0.070527  0  0.099311  0.101398  0  1.004005  0
H  H32  1  0.10805609  0.88941540  0.93422843  1  0.043519  0  0.099974  0.094425  0  0.996636  0
H  H33  1  0.06379678  0.97681837  0.87129851  1  0.049711  0  0.098719  0.094101  0  1.008089  0
H  H34  1  0.15882604  0.13982807  0.95180019  1  0.051272  0  0.100546  0.096436  0  0.992023  0
H  H35  1  0.29553020  0.21430381  0.09173812  1  0.012395  0  0.10009  0.098783  0  1.023935  0
H  H36  1  0.97787135  0.74927535  0.48996855  1  0.053441  0  0.099618  0.108094  0  1.014068  0
H  H37  1  0.13598126  0.79027218  0.57021599  1  0.049304  0  0.096944  0.092021  0  1.00527  0
H  H38  1  0.20918265  0.84506075  0.72971825  1  0.051622  0  0.095981  0.094477  0  1.014006  0
H  H39  1  0.72295658  0.78661111  0.41091566  1  0.077476  0  0.108451  0.111718  0  0.981923  0
H  H40  1  0.12255297  0.85838362  0.80620080  1  0.082442  0  0.095138  0.090646  0  1.032977  0
H  H41  1  0.96386571  0.81804417  0.72572129  1  0.03051  0  0.097934  0.096252  0  1.007929  0
H  H42  1  0.09772182  0.26846190  0.38680999  1  0.061656  0  0.100813  0.100797  0  1.000133  0
H  H43  1  0.94916880  0.21260102  0.26482581  1  0.047843  0  0.100061  0.095756  0  0.995338  0
H  H44  1  0.85867469  0.05424988  0.15104642  1  0.068512  0  0.098509  0.094807  0  1.002478  0
H  H45  1  0.91842607  0.95209041  0.15896415  1  0.096389  0  0.100448  0.095014  0  0.993185  0
H  H46  1  0.06669970  0.00797492  0.28057189  1  0.077123  0  0.100104  0.108477  0  1.006377  0
H  H47  1  0.49358872  0.12675398  0.75032915  1  0.050002  0  0.100876  0.103711  0  0.989706  0
H  H48  1  0.59884210  0.08676199  0.71222327  1  0.053392  0  0.100305  0.095798  0  0.99507  0
H  H49  1  0.57456325  0.93376097  0.66297429  1  0.049177  0  0.100193  0.095487  0  0.994627  0
H  H50  1  0.82248166  0.67537092  0.60713616  1  0.076375  0  0.106791  0.114479  0  1.002627  0
H  H51  1  0.44552573  0.82205123  0.65352214  1  0.07649  0  0.095031  0.090434  0  1.032351  0
H  H52  1  0.34103907  0.86272149  0.69193290  1  0.054813  0  0.097401  0.099229  0  1.007143  0
H  H53  1  0.32807176  0.61089503  0.61656940  1  0.064908  0  0.110788  0.114936  0  0.982441  0
H  H54  1  0.33140332  0.71544365  0.74598032  1  0.091502  0  0.109895  0.113466  0  0.98595  0
H  H55  1  0.61563488  0.86904338  0.86584858  1  0.099717  0  0.109763  0.115937  0  0.986568  0
H  H56  1  0.60526178  0.33994388  0.35515517  1  0.041786  0  0.098247  0.070694  0  0.970663  0
C  C57  1  0.64292231  0.61299732  0.52808613  1  1.533455  0  0.220159  0.606606  0  4.128883  0
C  C58  1  0.71104702  0.67460373  0.51968239  1  -0.095299  0  -0.021895  -0.037186  0  3.996961  0
C  C59  1  0.39099716  0.66651056  0.67222100  1  -0.039918  0  -0.079535  -0.102515  0  3.970567  0
C  C60  1  0.47100093  0.37824151  0.36379996  1  1.552275  0  0.225912  0.602382  0  4.063888  0
C  C61  1  0.39271749  0.72490670  0.74393967  1  -0.031918  0  -0.076967  -0.091103  0  3.966054  0
C  C62  1  0.47389920  0.79781073  0.81359622  1  -0.010572  0  -0.012501  -0.026265  0  3.969147  0
C  C63  1  0.55346551  0.81085474  0.81216709  1  -0.00103  0  -0.078116  -0.090335  0  3.977173  0
C  C64  1  0.55240702  0.74949227  0.74356305  1  0.019652  0  -0.079473  -0.097392  0  3.974425  0
C  C65  1  0.47101055  0.67763456  0.67280188  1  -0.058583  0  -0.007109  -0.012924  0  3.959408  0
C  C66  1  0.25355981  0.25199083  0.43445863  1  0.014664  0  -0.078314  -0.132452  0  3.932246  0
C  C67  1  0.18177737  0.17654346  0.41439356  1  0.003428  0  -0.001073  0.046339  0  3.980264  0
C  C68  1  0.45484845  0.16790604  0.17391397  1  0.037992  0  -0.011596  0.006164  0  3.776835  0
C  C69  1  0.19795552  0.13842566  0.46658147  1  -0.029045  0  -0.002872  -0.04452  0  3.898554  0
C  C70  1  0.28388307  0.17339487  0.53389146  1  -0.053729  0  -0.090234  -0.105095  0  3.987995  0
C  C71  1  0.35479744  0.24763884  0.55180025  1  -0.011744  0  -0.078803  -0.083337  0  3.970863  0
C  C72  1  0.41036642  0.37045367  0.52091566  1  1.531099  0  0.218655  0.601232  0  4.134549  0
C  C73  1  0.33913622  0.28835734  0.50289172  1  -0.068004  0  -0.020172  -0.03687  0  3.99854  0
C  C74  1  0.63808247  0.02931245  0.13214972  1  1.54306  0  0.223398  0.608148  0  4.133334  0
C  C75  1  0.45961458  0.09506108  0.10979070  1  1.525446  0  0.228103  0.602468  0  4.062646  0
C  C76  1  0.42020582  0.03715477  0.89142334  1  1.561463  0  0.224467  0.613647  0  4.135318  0
C  C77  1  0.47750055  0.86476983  0.88835195  1  1.534006  0  0.22177  0.603129  0  4.135187  0
C  C78  1  0.13336805  0.02849983  0.63478242  1  1.558615  0  0.218636  0.61426  0  4.126928  0
C  C79  1  0.36689904  0.13775216  0.17796105  1  0.016214  0  -0.075633  -0.043162  0  3.78701  0
C  C80  1  0.89621953  0.85371528  0.48752764  1  1.566476  0  0.2294  0.622466  0  4.129363  0
C  C81  1  0.88713665  0.01696984  0.40399192  1  1.53008  0  0.224713  0.608344  0  4.129327  0
C  C82  1  0.12189401  0.06968758  0.46124812  1  1.551964  0  0.224459  0.614964  0  4.13735  0
C  C83  1  0.69675620  0.94755932  0.19217425  1  -0.020799  0  -0.08143  -0.100246  0  3.979097  0
C  C84  1  0.47295246  0.61127423  0.60193076  1  1.561072  0  0.223416  0.609634  0  4.136644  0
C  C85  1  0.75800392  0.94495457  0.25688172  1  -0.046624  0  -0.078693  -0.089393  0  3.976252  0
C  C86  1  0.82277209  0.02250725  0.33607143  1  0.037206  0  -0.009513  -0.02308  0  3.95861  0
C  C87  1  0.82784650  0.10323800  0.34884198  1  -0.039507  0  -0.074135  -0.08362  0  3.959626  0
C  C88  1  0.77028653  0.10663391  0.28166732  1  0.000351  0  -0.078787  -0.099426  0  3.974668  0
C  C89  1  0.70379217  0.02872007  0.20379646  1  -0.035779  0  -0.008617  -0.017269  0  3.966861  0
C  C90  1  0.47436910  0.24551222  0.15717577  1  -0.048019  0  -0.163594  -0.179244  0  3.880019  0
C  C91  1  0.29269367  0.06429990  0.84569062  1  -0.032766  0  -0.084152  -0.102915  0  3.988711  0
C  C92  1  0.22539723  0.06416192  0.78419952  1  -0.008292  0  -0.075594  -0.074984  0  3.97627  0
C  C93  1  0.21397059  0.03814842  0.70052165  1  0.019452  0  -0.017389  -0.0742  0  3.960832  0
C  C94  1  0.27513089  0.01667798  0.68130542  1  -0.103449  0  -0.001621  0.050896  0  3.884264  0
C  C95  1  0.34664890  0.02071597  0.74397415  1  0.10098  0  -0.003422  -0.000753  0  3.970342  0
C  C96  1  0.54450414  0.28274288  0.33655418  1  -0.010566  0  -0.075419  -0.038854  0  3.78324  0
C  C97  1  0.35305164  0.04294653  0.82563951  1  -0.01728  0  -0.002067  -0.039684  0  3.924438  0
C  C98  1  0.53156788  0.19978047  0.26363287  1  -0.031467  0  -0.154296  -0.211698  0  3.835356  0
C  C99  1  0.37518448  0.21784630  0.25084799  1  0.006627  0  -0.15702  -0.208613  0  3.826332  0
C  C100  1  0.47674450  0.32171016  0.22704632  1  -0.027763  0  -0.157942  -0.178029  0  3.874698  0
C  C101  1  0.68254260  0.70502479  0.46336585  1  -0.059546  0  -0.083618  -0.090159  0  3.990627  0
C  C102  1  0.46686153  0.30006076  0.29662170  1  0.037402  0  -0.010627  0.00479  0  3.772013  0
C  C103  1  0.56098133  0.27551962  0.41737686  1  -0.032203  0  -0.01132  0.098993  0  3.927819  0
C  C104  1  0.50171840  0.20493698  0.41696593  1  -0.042582  0  -0.099018  -0.146086  0  3.983469  0
C  C105  1  0.52037567  0.19942979  0.49218543  1  0.001511  0  -0.096826  -0.081692  0  4.052213  0
C  C106  1  0.59965558  0.26373547  0.56916536  1  -0.066676  0  -0.101058  -0.095405  0  4.052459  0
C  C107  1  0.66030733  0.33355893  0.57023961  1  -0.058828  0  -0.100751  -0.091011  0  4.062334  0
C  C108  1  0.64089364  0.33908250  0.49516674  1  -0.008154  0  -0.098764  -0.140056  0  4.003976  0
C  C109  1  0.28292068  0.09438143  0.09213171  1  -0.032489  0  -0.011713  0.08707  0  3.932032  0
C  C110  1  0.22820074  0.00279138  0.04623481  1  -0.020811  0  -0.094767  -0.131405  0  3.993976  0
C  C111  1  0.14980900  0.96066676  0.96778738  1  -0.071533  0  -0.097862  -0.088707  0  4.054523  0
C  C112  1  0.74428742  0.76120210  0.45317450  1  0.025862  0  -0.087215  -0.108182  0  4.01049  0
C  C113  1  0.12468815  0.00946256  0.93285033  1  -0.059854  0  -0.098111  -0.096531  0  4.045513  0
C  C114  1  0.17818153  0.10075807  0.97780707  1  -0.028191  0  -0.097546  -0.08983  0  4.056192  0
C  C115  1  0.25611029  0.14270976  0.05685542  1  -0.040637  0  -0.096564  -0.145987  0  3.994624  0
C  C116  1  0.95984864  0.78122324  0.60209376  1  -0.02011  0  -0.014288  0.06178  0  4.003314  0
C  C117  1  0.00957244  0.77346188  0.55935483  1  -0.019853  0  -0.095371  -0.126425  0  3.961884  0
C  C118  1  0.09854401  0.79591438  0.60470095  1  -0.080361  0  -0.095699  -0.07777  0  4.033032  0
C  C119  1  0.13934327  0.82617435  0.69350140  1  0.012906  0  -0.097028  -0.089004  0  4.023004  0
C  C120  1  0.09046418  0.83355628  0.73665198  1  -0.111461  0  -0.09823  -0.085203  0  4.040877  0
C  C121  1  0.00151044  0.81117654  0.69150013  1  -0.007599  0  -0.095466  -0.139666  0  3.989781  0
C  C122  1  0.09214437  0.14187817  0.34233684  1  0.004967  0  -0.013075  0.066035  0  4.005108  0
C  C123  1  0.83466627  0.78697555  0.49783198  1  -0.080141  0  -0.001568  -0.045837  0  3.901813  0
C  C124  1  0.05838526  0.19911045  0.33642750  1  -0.074329  0  -0.093141  -0.137158  0  3.987609  0
C  C125  1  0.97504028  0.16771680  0.26799792  1  -0.099971  0  -0.096966  -0.086541  0  4.055903  0
C  C126  1  0.92413396  0.07873999  0.20406483  1  -0.001325  0  -0.094547  -0.088568  0  4.033164  0
C  C127  1  0.95729645  0.02148785  0.20896970  1  -0.097224  0  -0.094516  -0.078961  0  4.038638  0
C  C128  1  0.04057217  0.05263952  0.27749828  1  -0.051188  0  -0.094467  -0.132483  0  3.971248  0
C  C129  1  0.41075477  0.99725452  0.72324179  1  -0.008004  0  -0.02077  0.062781  0  4.04873  0
C  C130  1  0.48359249  0.06009648  0.72901282  1  -0.025478  0  -0.094752  -0.131886  0  4.001305  0
C  C131  1  0.54238070  0.03736663  0.70762077  1  -0.018  0  -0.095004  -0.08325  0  4.042095  0
C  C132  1  0.52885423  0.95168750  0.68019238  1  -0.061582  0  -0.095034  -0.08932  0  4.023529  0
C  C133  1  0.45662301  0.88898971  0.67484425  1  -0.049522  0  -0.094789  -0.074331  0  4.029226  0
C  C134  1  0.86479675  0.75631151  0.55407848  1  0.049539  0  0.000459  0.048898  0  3.962079  0
C  C135  1  0.39790195  0.91178244  0.69658964  1  -0.0591  0  -0.096803  -0.137843  0  3.983602  0
C  C136  1  0.80136257  0.70051257  0.56450699  1  0.017979  0  -0.077282  -0.135536  0  3.928578  0
Br  Br137  1  0.26635052  0.98190699  0.56990976  1  -0.034776  0  0.056237  -0.026957  0  1.538075  0
O  O138  1  0.66932985  0.58547373  0.58036763  1  -1.128823  0  -0.320719  -0.535123  0  2.24276  0
O  O139  1  0.09537343  0.96648039  0.55760292  1  -1.186402  0  -0.307843  -0.57775  0  2.437592  0
O  O140  1  0.91939926  0.93330060  0.53540280  1  -1.161578  0  -0.306748  -0.558517  0  2.282367  0
O  O141  1  0.56227152  0.59121398  0.48200201  1  -1.178858  0  -0.31651  -0.574609  0  2.348559  0
O  O142  1  0.91716168  0.82527847  0.42877607  1  -1.129131  0  -0.312038  -0.528463  0  2.257607  0
O  O143  1  0.91978552  0.07398256  0.48418486  1  -1.128806  0  -0.316074  -0.526627  0  2.236993  0
O  O144  1  0.90534919  0.95546982  0.37804282  1  -1.171533  0  -0.31268  -0.57291  0  2.331968  0
O  O145  1  0.09265031  0.09929932  0.51023643  1  -1.162506  0  -0.303768  -0.558469  0  2.290303  0
O  O146  1  0.09221593  0.98741867  0.41070648  1  -1.123897  0  -0.314543  -0.536395  0  2.254089  0
O  O147  1  0.53054031  0.41552025  0.44187721  1  -1.20067  0  -0.301603  -0.568566  0  2.436427  0
O  O148  1  0.41446387  0.40381925  0.33807495  1  -1.137043  0  -0.32181  -0.53581  0  2.213561  0
O  O149  1  0.55705451  0.97194403  0.09613390  1  -1.168011  0  -0.311338  -0.565964  0  2.304852  0
O  O150  1  0.49195233  0.40024199  0.57645322  1  -1.13171  0  -0.31303  -0.528675  0  2.243267  0
O  O151  1  0.38580332  0.40697702  0.47926924  1  -1.183086  0  -0.316767  -0.576917  0  2.373908  0
O  O152  1  0.53134160  0.58900233  0.62669454  1  -1.169707  0  -0.312581  -0.569378  0  2.321683  0
O  O153  1  0.41713685  0.58215058  0.52281476  1  -1.131601  0  -0.318805  -0.530192  0  2.222615  0
O  O154  1  0.66812555  0.08690458  0.11110724  1  -1.13492  0  -0.319831  -0.533442  0  2.224737  0
O  O155  1  0.51840589  0.11951270  0.08859130  1  -1.186142  0  -0.313576  -0.578168  0  2.368958  0
O  O156  1  0.40883929  0.01407233  0.08402761  1  -1.12898  0  -0.309847  -0.52541  0  2.273727  0
O  O157  1  0.50358002  0.08746648  0.92252283  1  -1.131886  0  -0.30947  -0.517454  0  2.237917  0
O  O158  1  0.38775453  0.98207729  0.91254253  1  -1.171298  0  -0.307113  -0.563453  0  2.305915  0
O  O159  1  0.54027763  0.94324237  0.92669021  1  -1.182173  0  -0.311783  -0.570305  0  2.32972  0
O  O160  1  0.41726025  0.83940368  0.90928102  1  -1.126898  0  -0.318749  -0.529197  0  2.234838  0
O  O161  1  0.10558546  0.08298032  0.66120631  1  -1.126927  0  -0.319358  -0.526659  0  2.213113  0
