# generated using pymatgen
data_CdH18C22(NO)4
_symmetry_space_group_name_H-M   'P 1'
_cell_length_a   11.25390126
_cell_length_b   13.57083264
_cell_length_c   18.61199812
_cell_angle_alpha   70.65332555
_cell_angle_beta   81.09277246
_cell_angle_gamma   67.80622558
_symmetry_Int_Tables_number   1
_chemical_formula_structural   CdH18C22(NO)4
_chemical_formula_sum   'Cd4 H72 C88 N16 O16'
_cell_volume   2481.86095320
_cell_formula_units_Z   4
loop_
 _symmetry_equiv_pos_site_id
 _symmetry_equiv_pos_as_xyz
  1  'x, y, z'
loop_
 _atom_site_type_symbol
 _atom_site_label
 _atom_site_symmetry_multiplicity
 _atom_site_fract_x
 _atom_site_fract_y
 _atom_site_fract_z
 _atom_site_occupancy
 _atom_site_pbe_bader_charge
 _atom_site_pbe_bader_spin_density
 _atom_site_pbe_cm5_charge
 _atom_site_pbe_ddec_charge
 _atom_site_pbe_ddec_spin_density
 _atom_site_pbe_ddec_sum_bond_order
 _atom_site_pbe_magmom
Cd  Cd0  1  0.21056403  0.42044664  0.30378388  1  1.215836  0  0.773087  0.832392  0  2.22798  0
Cd  Cd1  1  0.78943826  0.57955272  0.69621609  1  1.215839  0  0.773089  0.83243  0  2.227993  0
Cd  Cd2  1  0.29645646  0.07546198  0.69747306  1  1.216968  0  0.773368  0.834712  0  2.218066  0
Cd  Cd3  1  0.70354183  0.92454074  0.30252809  1  1.216941  0  0.773364  0.834641  0  2.218117  0
H  H4  1  0.95390754  0.18352129  0.30336237  1  0.107651  0  0.103418  0.11072  0  1.024669  0
H  H5  1  0.04609132  0.81648225  0.69663799  1  0.107688  0  0.103396  0.110653  0  1.024764  0
H  H6  1  0.14428431  0.85385099  0.28095095  1  0.057697  0  0.101165  0.100958  0  1.016997  0
H  H7  1  0.85571522  0.14615089  0.71905135  1  0.057801  0  0.101162  0.100935  0  1.016958  0
H  H8  1  0.35757933  0.87557387  0.27427960  1  0.12092  0  0.097866  0.111833  0  1.050586  0
H  H9  1  0.64242081  0.12442633  0.72571983  1  0.120904  0  0.097876  0.111831  0  1.050628  0
H  H10  1  0.36582291  0.05277377  0.27968598  1  0.09881  0  0.098662  0.100158  0  1.035478  0
H  H11  1  0.63417838  0.94722808  0.72031240  1  0.098663  0  0.09867  0.100196  0  1.035454  0
H  H12  1  0.54482086  0.31903382  0.69926457  1  0.109578  0  0.103955  0.110691  0  1.0234  0
H  H13  1  0.45517913  0.68097136  0.30073258  1  0.109558  0  0.10398  0.110765  0  1.023371  0
H  H14  1  0.34693762  0.64623753  0.72488732  1  0.070725  0  0.100471  0.10012  0  1.01911  0
H  H15  1  0.65306372  0.35376434  0.27511535  1  0.070787  0  0.100481  0.100141  0  1.019115  0
H  H16  1  0.13607820  0.62015166  0.73143457  1  0.140309  0  0.096714  0.11035  0  1.053629  0
H  H17  1  0.86392255  0.37984937  0.26856675  1  0.140361  0  0.096741  0.110373  0  1.053695  0
H  H18  1  0.13303121  0.44171689  0.72484532  1  0.102044  0  0.09811  0.099204  0  1.038043  0
H  H19  1  0.86697100  0.55828495  0.27515459  1  0.10204  0  0.098124  0.099212  0  1.038051  0
H  H20  1  0.96661419  0.35947815  0.41257488  1  0.184474  0  0.135487  0.110515  0  1.02297  0
H  H21  1  0.03338292  0.64052291  0.58742464  1  0.184082  0  0.135501  0.110538  0  1.02298  0
H  H22  1  0.26874697  0.41699901  0.48095907  1  0.092539  0  0.115877  0.106873  0  1.010646  0
H  H23  1  0.73125114  0.58299956  0.51904257  1  0.092484  0  0.115876  0.106803  0  1.010769  0
H  H24  1  0.12623785  0.34365231  0.61000613  1  0.188383  0  0.121534  0.135606  0  1.042381  0
H  H25  1  0.87375935  0.65634627  0.38999506  1  0.188121  0  0.12155  0.135618  0  1.042408  0
H  H26  1  0.85780738  0.37342670  0.60034842  1  0.10728  0  0.110848  0.107857  0  1.015107  0
H  H27  1  0.14218856  0.62657271  0.39964947  1  0.107252  0  0.110858  0.107872  0  1.015093  0
H  H28  1  0.96705770  0.23336141  0.62187922  1  0.128887  0  0.110535  0.107811  0  1.027723  0
H  H29  1  0.03294007  0.76663799  0.37812118  1  0.12889  0  0.110538  0.107777  0  1.027728  0
H  H30  1  0.98195129  0.13503812  0.51314957  1  0.044692  0  0.101195  0.101618  0  1.000361  0
H  H31  1  0.01805071  0.86495956  0.48684708  1  0.044338  0  0.101212  0.101651  0  1.000338  0
H  H32  1  0.83987072  0.09157296  0.44798316  1  0.095472  0  0.099924  0.10257  0  1.026063  0
H  H33  1  0.16012917  0.90842558  0.55201617  1  0.09549  0  0.099933  0.102517  0  1.026091  0
H  H34  1  0.51991764  0.37039094  0.48674114  1  0.04943  0  0.100781  0.101407  0  1.002059  0
H  H35  1  0.48008437  0.62960674  0.51325658  1  0.049414  0  0.100743  0.101365  0  1.002079  0
H  H36  1  0.66176430  0.41321499  0.55256008  1  0.089494  0  0.099991  0.102841  0  1.030556  0
H  H37  1  0.33823802  0.58678186  0.44743674  1  0.089394  0  0.099975  0.102756  0  1.030619  0
H  H38  1  0.53315829  0.27202538  0.37905316  1  0.131054  0  0.110532  0.107483  0  1.025773  0
H  H39  1  0.46684012  0.72797235  0.62094652  1  0.13052  0  0.110526  0.107454  0  1.025794  0
H  H40  1  0.64416747  0.13323207  0.39858953  1  0.094475  0  0.111008  0.110902  0  1.015924  0
H  H41  1  0.35582700  0.86676652  0.60141031  1  0.094468  0  0.111073  0.110922  0  1.015936  0
H  H42  1  0.53616334  0.14499735  0.58787251  1  0.158313  0  0.134419  0.109939  0  1.025364  0
H  H43  1  0.46383072  0.85500457  0.41212602  1  0.158218  0  0.134475  0.109964  0  1.025353  0
H  H44  1  0.24182697  0.07607505  0.52088451  1  0.091911  0  0.116468  0.108675  0  1.006855  0
H  H45  1  0.75816745  0.92392604  0.47911634  1  0.092002  0  0.116481  0.10867  0  1.00687  0
H  H46  1  0.38016308  0.15402477  0.39134393  1  0.204308  0  0.121239  0.13596  0  1.043728  0
H  H47  1  0.61983368  0.84596799  0.60865711  1  0.204267  0  0.12126  0.135946  0  1.043762  0
H  H48  1  0.09323455  0.70144993  0.24660507  1  0.169558  0  0.143985  0.118553  0  0.990448  0
H  H49  1  0.90676648  0.29855026  0.75339267  1  0.169473  0  0.143958  0.118513  0  0.99047  0
H  H50  1  0.05278227  0.48698045  0.13956139  1  0.084102  0  0.120439  0.115639  0  0.997437  0
H  H51  1  0.94721697  0.51301976  0.86043759  1  0.084071  0  0.120441  0.115658  0  0.997431  0
H  H52  1  0.90524953  0.70678609  0.06481351  1  0.114275  0  0.127841  0.127539  0  0.988765  0
H  H53  1  0.09474553  0.29321333  0.93518715  1  0.114315  0  0.127841  0.127546  0  0.988719  0
H  H54  1  0.92768618  0.87803071  0.18656135  1  0.148498  0  0.11955  0.121518  0  1.018257  0
H  H55  1  0.07231069  0.12196870  0.81343914  1  0.148566  0  0.119532  0.121503  0  1.018338  0
H  H56  1  0.81159521  0.87417292  0.13491943  1  0.06363  0  0.113162  0.097981  0  0.97791  0
H  H57  1  0.18840403  0.12582729  0.86507901  1  0.063628  0  0.113162  0.097975  0  0.977931  0
H  H58  1  0.78325075  0.06960358  0.05914976  1  0.060959  0  0.09518  0.095449  0  1.027424  0
H  H59  1  0.21675277  0.93039493  0.94085137  1  0.060938  0  0.095185  0.095472  0  1.027369  0
H  H60  1  0.36346732  0.62331630  0.88896464  1  0.071443  0  0.105349  0.108127  0  0.994069  0
H  H61  1  0.63653577  0.37668552  0.11103304  1  0.071338  0  0.105371  0.108153  0  0.994063  0
H  H62  1  0.72171781  0.49741760  0.00083226  1  0.054184  0  0.098571  0.095042  0  1.008534  0
H  H63  1  0.27828771  0.50258505  0.99916873  1  0.05416  0  0.098472  0.09483  0  1.008574  0
H  H64  1  0.14607870  0.80515629  0.05485048  1  0.071654  0  0.100458  0.101309  0  1.011499  0
H  H65  1  0.85392270  0.19484308  0.94515119  1  0.07168  0  0.100474  0.101366  0  1.011473  0
H  H66  1  0.70059381  0.62746714  0.87811190  1  0.050191  0  0.112096  0.096249  0  0.97612  0
H  H67  1  0.29941202  0.37253467  0.12188819  1  0.050209  0  0.112058  0.096192  0  0.976187  0
H  H68  1  0.59806248  0.61937155  0.81844808  1  0.141432  0  0.117734  0.115937  0  1.031609  0
H  H69  1  0.40194155  0.38063028  0.18155219  1  0.14142  0  0.117734  0.115914  0  1.031633  0
H  H70  1  0.43276233  0.79143338  0.75267380  1  0.166996  0  0.144731  0.120517  0  0.985962  0
H  H71  1  0.56724234  0.20856678  0.24732574  1  0.166986  0  0.144723  0.120569  0  0.98589  0
H  H72  1  0.43645962  0.01342724  0.86553612  1  0.11411  0  0.122472  0.117709  0  0.992935  0
H  H73  1  0.56353777  0.98657548  0.13446511  1  0.114034  0  0.122489  0.117721  0  0.992895  0
H  H74  1  0.58518397  0.79668257  0.94460116  1  0.106465  0  0.127266  0.127272  0  0.991011  0
H  H75  1  0.41481611  0.20332012  0.05539928  1  0.106486  0  0.127274  0.127263  0  0.991035  0
C  C76  1  0.16817978  0.23835655  0.28933381  1  1.532923  0  0.186202  0.548048  0  4.238634  0
C  C77  1  0.83182519  0.76164277  0.71066375  1  1.533009  0  0.186224  0.548088  0  4.238525  0
C  C78  1  0.16083868  0.13009350  0.29009213  1  -0.06424  0  -0.027711  -0.045327  0  4.000392  0
C  C79  1  0.83916622  0.86990831  0.70990590  1  -0.064714  0  -0.027664  -0.045252  0  4.000413  0
C  C80  1  0.04198696  0.11634265  0.29645448  1  -0.016833  0  -0.07985  -0.109344  0  3.932829  0
C  C81  1  0.95801253  0.88365922  0.70354461  1  -0.016413  0  -0.079903  -0.109377  0  3.933007  0
C  C82  1  0.03569057  0.01661215  0.29366322  1  -0.034762  0  -0.026084  -0.046528  0  3.995093  0
C  C83  1  0.96430994  0.98338723  0.70634014  1  -0.034795  0  -0.025969  -0.046254  0  3.99463  0
C  C84  1  0.14969829  0.93062838  0.28430658  1  -0.050724  0  -0.083242  -0.082566  0  3.968702  0
C  C85  1  0.85029793  0.06937270  0.71569463  1  -0.050949  0  -0.083263  -0.08266  0  3.968633  0
C  C86  1  0.26837989  0.94260367  0.27991960  1  -0.011806  0  -0.097194  -0.094612  0  4.002798  0
C  C87  1  0.73161964  0.05739821  0.72008325  1  -0.0118  0  -0.09722  -0.094544  0  4.002947  0
C  C88  1  0.27385881  0.04194324  0.28318388  1  -0.077275  0  -0.085131  -0.083921  0  3.956494  0
C  C89  1  0.72614011  0.95805780  0.71681547  1  -0.077059  0  -0.08515  -0.084048  0  3.956411  0
C  C90  1  0.90895151  0.00087685  0.30081455  1  1.53368  0  0.187724  0.552155  0  4.236812  0
C  C91  1  0.09104870  0.99912337  0.69919078  1  1.534038  0  0.187623  0.552013  0  4.236768  0
C  C92  1  0.33399496  0.25915293  0.71346563  1  1.53623  0  0.184747  0.545007  0  4.24334  0
C  C93  1  0.66600422  0.74084977  0.28653436  1  1.536193  0  0.184717  0.544886  0  4.243366  0
C  C94  1  0.33831461  0.36803236  0.71381390  1  0.01335  0  -0.027591  -0.047849  0  4.00061  0
C  C95  1  0.66168669  0.63196949  0.28618502  1  0.012943  0  -0.027543  -0.047704  0  4.000523  0
C  C96  1  0.45563957  0.38447367  0.70722180  1  -0.097495  0  -0.078887  -0.105498  0  3.930801  0
C  C97  1  0.54436049  0.61552902  0.29277596  1  -0.097378  0  -0.078905  -0.105648  0  3.930804  0
C  C98  1  0.45899139  0.48481785  0.71081781  1  -0.019879  0  -0.026703  -0.044958  0  3.999213  0
C  C99  1  0.54101048  0.51518482  0.28917977  1  -0.019977  0  -0.026689  -0.044782  0  3.999172  0
C  C100  1  0.34372609  0.56880099  0.72130001  1  -0.062022  0  -0.084163  -0.08776  0  3.97603  0
C  C101  1  0.65627342  0.43120088  0.27870015  1  -0.061984  0  -0.08421  -0.087899  0  3.976116  0
C  C102  1  0.22646254  0.55431998  0.72568659  1  -0.068359  0  -0.098993  -0.095524  0  4.005481  0
C  C103  1  0.77354092  0.44568103  0.27431500  1  -0.068296  0  -0.098994  -0.095516  0  4.005504  0
C  C104  1  0.22387883  0.45440427  0.72154751  1  -0.063393  0  -0.084158  -0.082228  0  3.960276  0
C  C105  1  0.77612250  0.54559759  0.27845462  1  -0.063183  0  -0.084204  -0.082294  0  3.960328  0
C  C106  1  0.58394252  0.50370891  0.70254249  1  1.523776  0  0.187662  0.550186  0  4.235854  0
C  C107  1  0.41605854  0.49629128  0.29745740  1  1.5238  0  0.187673  0.550218  0  4.235867  0
C  C108  1  0.02897815  0.36658604  0.44797303  1  0.980017  0  0.136249  0.080782  0  3.93781  0
C  C109  1  0.97101897  0.63341502  0.55202703  1  0.980443  0  0.136215  0.080734  0  3.937912  0
C  C110  1  0.18405126  0.39507713  0.48588319  1  0.37124  0  -0.007644  -0.033566  0  4.027238  0
C  C111  1  0.81594594  0.60492144  0.51411800  1  0.371321  0  -0.007574  -0.033308  0  4.02724  0
C  C112  1  0.11398017  0.36002763  0.54989196  1  0.30686  0  -0.000159  -0.09885  0  3.892645  0
C  C113  1  0.88601612  0.63997095  0.45010932  1  0.307107  0  -0.000202  -0.098916  0  3.892659  0
C  C114  1  0.91648219  0.30653795  0.57548712  1  0.229903  0  -0.052793  -0.128135  0  3.866035  0
C  C115  1  0.08351835  0.69345892  0.42451202  1  0.229705  0  -0.052749  -0.127953  0  3.865919  0
C  C116  1  0.83176946  0.27871793  0.53596452  1  0.021908  0  -0.010347  0.093033  0  3.977006  0
C  C117  1  0.16823083  0.72127728  0.46403451  1  0.022066  0  -0.010399  0.092891  0  3.97719  0
C  C118  1  0.88050444  0.18698308  0.50746287  1  -0.094367  0  -0.089836  -0.127913  0  3.98666  0
C  C119  1  0.11949427  0.81301381  0.49253483  1  -0.094409  0  -0.089842  -0.127875  0  3.98666  0
C  C120  1  0.80064984  0.16141424  0.47176738  1  -0.009223  0  -0.086749  -0.123002  0  3.971386  0
C  C121  1  0.19934653  0.83858185  0.52823450  1  -0.008648  0  -0.086715  -0.1229  0  3.971357  0
C  C122  1  0.66996685  0.22646488  0.46418959  1  -0.043832  0  -0.0094  0.093744  0  3.982539  0
C  C123  1  0.33003107  0.77352953  0.53581147  1  -0.044321  0  -0.009479  0.093572  0  3.982739  0
C  C124  1  0.62125342  0.31820104  0.49265229  1  -0.06832  0  -0.090554  -0.128902  0  3.986476  0
C  C125  1  0.37874621  0.68179583  0.50734640  1  -0.068298  0  -0.090454  -0.128819  0  3.986514  0
C  C126  1  0.70105508  0.34369188  0.52846659  1  -0.043522  0  -0.087715  -0.124414  0  3.970422  0
C  C127  1  0.29894636  0.65630498  0.47153192  1  -0.043381  0  -0.087748  -0.124344  0  3.970496  0
C  C128  1  0.58522516  0.19857655  0.42477251  1  0.242328  0  -0.053691  -0.129641  0  3.86774  0
C  C129  1  0.41477031  0.80141955  0.57523000  1  0.243095  0  -0.053665  -0.129418  0  3.867572  0
C  C130  1  0.47534957  0.13556578  0.55276463  1  0.985699  0  0.136486  0.078923  0  3.938019  0
C  C131  1  0.52464524  0.86443199  0.44723592  1  0.985777  0  0.136394  0.07894  0  3.938024  0
C  C132  1  0.32426107  0.10119941  0.51558525  1  0.403903  0  -0.007039  -0.033092  0  4.02903  0
C  C133  1  0.67573807  0.89879416  0.48441590  1  0.403592  0  -0.007161  -0.033267  0  4.029294  0
C  C134  1  0.39238919  0.13857097  0.45131310  1  0.269907  0  -0.001922  -0.102666  0  3.901737  0
C  C135  1  0.60760995  0.86142259  0.54868752  1  0.269764  0  -0.001866  -0.102511  0  3.90187  0
C  C136  1  0.06444860  0.67142271  0.20737867  1  0.975329  0  0.154931  0.113823  0  3.893187  0
C  C137  1  0.93555153  0.32857749  0.79261969  1  0.975354  0  0.15491  0.113842  0  3.893239  0
C  C138  1  0.04184142  0.56444066  0.14930870  1  0.424311  0  -0.002698  -0.037935  0  4.046542  0
C  C139  1  0.95815781  0.43555954  0.85068975  1  0.424374  0  -0.002674  -0.037927  0  4.046325  0
C  C140  1  0.96701658  0.67180035  0.11292339  1  0.316689  0  0.00259  -0.112017  0  3.943959  0
C  C141  1  0.03298356  0.32819985  0.88707551  1  0.316706  0  0.002602  -0.111963  0  3.943777  0
C  C142  1  0.91478553  0.85767120  0.13635638  1  0.303841  0  -0.047733  -0.123323  0  3.904179  0
C  C143  1  0.08521347  0.14232735  0.86364357  1  0.303769  0  -0.047695  -0.123283  0  3.904096  0
C  C144  1  0.95971415  0.92886847  0.06469096  1  -0.049293  0  -0.016911  0.084757  0  3.991293  0
C  C145  1  0.04028756  0.07113006  0.93530927  1  -0.04959  0  -0.016893  0.08484  0  3.991147  0
C  C146  1  0.87860439  0.03884865  0.03313858  1  -0.009723  0  -0.095964  -0.130137  0  3.998165  0
C  C147  1  0.12139792  0.96115071  0.96686354  1  -0.009396  0  -0.095983  -0.130241  0  3.998054  0
C  C148  1  0.42332538  0.56967368  0.93783729  1  -0.057237  0  -0.089716  -0.121312  0  3.979996  0
C  C149  1  0.57668107  0.43032645  0.06215939  1  -0.056061  0  -0.089733  -0.121376  0  3.980092  0
C  C150  1  0.54800402  0.56909832  0.93786264  1  0.000458  0  -0.015368  0.087357  0  3.989323  0
C  C151  1  0.45200360  0.43090347  0.06213460  1  0.000324  0  -0.015321  0.087419  0  3.989271  0
C  C152  1  0.62419198  0.49868339  0.00048294  1  -0.052366  0  -0.092896  -0.135701  0  4.012347  0
C  C153  1  0.37581687  0.50131755  0.99951546  1  -0.051119  0  -0.092765  -0.135504  0  4.012343  0
C  C154  1  0.08159868  0.89054391  0.03095033  1  -0.072984  0  -0.096577  -0.136578  0  4.012094  0
C  C155  1  0.91840123  0.10945464  0.96905061  1  -0.072998  0  -0.096613  -0.136722  0  4.012144  0
C  C156  1  0.60044857  0.64069913  0.87011956  1  0.289353  0  -0.047731  -0.122601  0  3.897164  0
C  C157  1  0.39955570  0.35930435  0.12987974  1  0.28934  0  -0.047734  -0.122527  0  3.897082  0
C  C158  1  0.45078002  0.82421468  0.79400816  1  1.010917  0  0.152618  0.115114  0  3.892478  0
C  C159  1  0.54922335  0.17578881  0.20599069  1  1.011046  0  0.152597  0.115023  0  3.892384  0
C  C160  1  0.45495957  0.93492175  0.85502004  1  0.447495  0  -0.00254  -0.038201  0  4.045085  0
C  C161  1  0.54503994  0.06508012  0.14498066  1  0.447975  0  -0.002577  -0.038267  0  4.045095  0
C  C162  1  0.53035554  0.82900747  0.89368840  1  0.262614  0  0.001599  -0.111793  0  3.940012  0
C  C163  1  0.46964455  0.17099522  0.10631204  1  0.262251  0  0.001604  -0.11176  0  3.940057  0
N  N164  1  0.13019620  0.39888573  0.42277279  1  -1.225728  0  -0.373933  -0.31418  0  3.609522  0
N  N165  1  0.86980247  0.60111366  0.57722698  1  -1.225682  0  -0.373967  -0.314287  0  3.609638  0
N  N166  1  0.01658695  0.34221940  0.52480715  1  -1.241772  0  -0.235977  0.05253  0  3.758148  0
N  N167  1  0.98341049  0.65778083  0.47519254  1  -1.241634  0  -0.235989  0.052437  0  3.758197  0
N  N168  1  0.37684349  0.09961142  0.57839968  1  -1.224929  0  -0.373833  -0.313546  0  3.610352  0
N  N169  1  0.62314942  0.90038885  0.42159991  1  -1.224901  0  -0.373786  -0.313458  0  3.610333  0
N  N170  1  0.48724757  0.16010262  0.47591662  1  -1.230246  0  -0.236374  0.051908  0  3.761472  0
N  N171  1  0.51275068  0.83989096  0.52408462  1  -1.23001  0  -0.236402  0.051715  0  3.761445  0
N  N172  1  0.10260800  0.56552215  0.20794012  1  -1.212517  0  -0.365738  -0.301196  0  3.567864  0
N  N173  1  0.89739304  0.43447804  0.79205816  1  -1.212526  0  -0.365745  -0.301252  0  3.567799  0
N  N174  1  0.98200235  0.73823674  0.15072061  1  -1.244866  0  -0.238968  0.057863  0  3.79225  0
N  N175  1  0.01799722  0.26176263  0.84927855  1  -1.244833  0  -0.238966  0.057827  0  3.792123  0
N  N176  1  0.40515257  0.93060493  0.79320464  1  -1.218729  0  -0.362784  -0.301733  0  3.568864  0
N  N177  1  0.59484932  0.06939774  0.20679455  1  -1.21884  0  -0.362746  -0.301586  0  3.568796  0
N  N178  1  0.52717624  0.76018756  0.85403121  1  -1.23944  0  -0.237204  0.053788  0  3.774101  0
N  N179  1  0.47282655  0.23981511  0.14596844  1  -1.239471  0  -0.237197  0.053733  0  3.774235  0
O  O180  1  0.06599186  0.32090557  0.28988290  1  -1.184209  0  -0.329469  -0.560139  0  2.198039  0
O  O181  1  0.93401213  0.67909625  0.71011415  1  -1.184284  0  -0.329486  -0.560168  0  2.198026  0
O  O182  1  0.28033000  0.24385794  0.28804984  1  -1.165935  0  -0.338709  -0.565756  0  2.255628  0
O  O183  1  0.71967047  0.75614143  0.71194923  1  -1.165935  0  -0.338702  -0.565776  0  2.255561  0
O  O184  1  0.80623959  0.07340525  0.31481137  1  -1.188275  0  -0.335438  -0.572609  0  2.148475  0
O  O185  1  0.19376402  0.92659330  0.68519834  1  -1.188798  0  -0.335393  -0.572562  0  2.148477  0
O  O186  1  0.91227072  0.90855461  0.29254925  1  -1.16342  0  -0.339906  -0.564687  0  2.287602  0
O  O187  1  0.08772576  0.09144813  0.70745261  1  -1.163205  0  -0.339902  -0.564703  0  2.287555  0
O  O188  1  0.22294655  0.25117590  0.71552978  1  -1.161034  0  -0.339667  -0.565573  0  2.249977  0
O  O189  1  0.77705297  0.74882597  0.28447145  1  -1.161068  0  -0.339677  -0.565523  0  2.249922  0
O  O190  1  0.43756021  0.17861901  0.71127511  1  -1.190964  0  -0.32828  -0.558228  0  2.197364  0
O  O191  1  0.56243894  0.82138369  0.28872220  1  -1.190938  0  -0.328273  -0.558211  0  2.197435  0
O  O192  1  0.57966169  0.59417522  0.71410314  1  -1.162939  0  -0.340032  -0.565122  0  2.276841  0
O  O193  1  0.42033905  0.40582581  0.28589818  1  -1.162932  0  -0.340006  -0.565126  0  2.276906  0
O  O194  1  0.68661706  0.43533639  0.68395624  1  -1.179898  0  -0.334312  -0.570363  0  2.152355  0
O  O195  1  0.31338276  0.56466465  0.31604356  1  -1.179912  0  -0.334341  -0.570408  0  2.152314  0
