# generated using pymatgen
data_CdH9C11IN6O
_symmetry_space_group_name_H-M   'P 1'
_cell_length_a   9.68937850
_cell_length_b   12.20178787
_cell_length_c   13.07300000
_cell_angle_alpha   94.62891933
_cell_angle_beta   90.00000000
_cell_angle_gamma   90.00000000
_symmetry_Int_Tables_number   1
_chemical_formula_structural   CdH9C11IN6O
_chemical_formula_sum   'Cd4 H36 C44 I4 N24 O4'
_cell_volume   1540.54996006
_cell_formula_units_Z   4
loop_
 _symmetry_equiv_pos_site_id
 _symmetry_equiv_pos_as_xyz
  1  'x, y, z'
loop_
 _atom_site_type_symbol
 _atom_site_label
 _atom_site_symmetry_multiplicity
 _atom_site_fract_x
 _atom_site_fract_y
 _atom_site_fract_z
 _atom_site_occupancy
 _atom_site_hle17_bader_spin_density
 _atom_site_hle17_ddec_charge
 _atom_site_hle17_ddec_spin_density
 _atom_site_hle17_ddec_sum_bond_order
 _atom_site_hle17_magmom
 _atom_site_hse06_10hf_bader_spin_density
 _atom_site_hse06_10hf_ddec_charge
 _atom_site_hse06_10hf_ddec_spin_density
 _atom_site_hse06_10hf_ddec_sum_bond_order
 _atom_site_hse06_10hf_magmom
 _atom_site_hse06_bader_spin_density
 _atom_site_hse06_ddec_charge
 _atom_site_hse06_ddec_spin_density
 _atom_site_hse06_ddec_sum_bond_order
 _atom_site_hse06_magmom
 _atom_site_pbe_bader_charge
 _atom_site_pbe_bader_spin_density
 _atom_site_pbe_cm5_charge
 _atom_site_pbe_ddec_charge
 _atom_site_pbe_ddec_spin_density
 _atom_site_pbe_ddec_sum_bond_order
 _atom_site_pbe_magmom
Cd  Cd0  1  0.80152612  0.26801044  0.34035969  1  0  0.878066  0  1.957689  0  0  0.681813  0  2.423588  0  0  0.733923  0  2.384043  0  1.039548  0  0.645077  0.646255  0  2.448944  0
Cd  Cd1  1  0.30152398  0.73198554  0.15964452  1  0  0.878075  0  1.957735  0  0  0.681788  0  2.423674  0  0  0.733905  0  2.384121  0  1.039621  0  0.645064  0.646227  0  2.449034  0
Cd  Cd2  1  0.19846887  0.73198471  0.65964445  1  0  0.878021  0  1.957765  0  0  0.681745  0  2.423699  0  0  0.733882  0  2.384105  0  1.039743  0  0.645053  0.646185  0  2.44906  0
Cd  Cd3  1  0.69848133  0.26801619  0.84035324  1  0  0.877895  0  1.957836  0  0  0.681608  0  2.423778  0  0  0.733722  0  2.384232  0  1.039723  0  0.644996  0.646047  0  2.449135  0
H  H4  1  0.55371869  0.06417947  0.38175462  1  0  0.087595  0  0.962492  0  0  0.092233  0  1.032914  0  0  0.095422  0  1.030988  0  0.127813  0  0.103635  0.08955  0  1.035183  0
H  H5  1  0.05372274  0.93581404  0.11824635  1  0  0.087552  0  0.962453  0  0  0.092213  0  1.032873  0  0  0.095373  0  1.030975  0  0.127969  0  0.103626  0.089528  0  1.035147  0
H  H6  1  0.44626392  0.93581322  0.61826235  1  0  0.087483  0  0.962448  0  0  0.0921  0  1.032943  0  0  0.095289  0  1.031016  0  0.127575  0  0.103595  0.089416  0  1.035211  0
H  H7  1  0.94626606  0.06419591  0.88174285  1  0  0.087508  0  0.962332  0  0  0.092138  0  1.032833  0  0  0.095304  0  1.030927  0  0.127697  0  0.103595  0.089452  0  1.035107  0
H  H8  1  0.32673509  0.05586093  0.47684898  1  0  0.086112  0  0.925409  0  0  0.092868  0  0.987283  0  0  0.096148  0  0.985108  0  0.096221  0  0.114837  0.09027  0  0.989252  0
H  H9  1  0.82674033  0.94413505  0.02315064  1  0  0.08603  0  0.925521  0  0  0.092816  0  0.987371  0  0  0.096091  0  0.985195  0  0.086523  0  0.114834  0.090222  0  0.989334  0
H  H10  1  0.67326816  0.94413011  0.52318851  1  0  0.086078  0  0.925461  0  0  0.092898  0  0.987258  0  0  0.096184  0  0.985083  0  0.086009  0  0.114886  0.090303  0  0.989223  0
H  H11  1  0.17325673  0.05587244  0.97683073  1  0  0.086024  0  0.925535  0  0  0.092812  0  0.987364  0  0  0.096094  0  0.985189  0  0.08618  0  0.114866  0.090217  0  0.989328  0
H  H12  1  0.41232366  0.35633316  0.63543215  1  0  0.099367  0  0.922523  0  0  0.106392  0  0.984151  0  0  0.110476  0  0.981109  0  0.09763  0  0.119974  0.103076  0  0.987043  0
H  H13  1  0.91232374  0.64365952  0.86457105  1  0  0.099408  0  0.922496  0  0  0.106456  0  0.984096  0  0  0.110552  0  0.981043  0  0.09758  0  0.120073  0.103137  0  0.986987  0
H  H14  1  0.58767134  0.64367514  0.36457146  1  0  0.099362  0  0.92259  0  0  0.106367  0  0.984225  0  0  0.110433  0  0.981212  0  0.097714  0  0.119958  0.103052  0  0.987114  0
H  H15  1  0.08767229  0.35633399  0.13543298  1  0  0.099424  0  0.922621  0  0  0.106443  0  0.984242  0  0  0.110556  0  0.981166  0  0.097506  0  0.120027  0.103125  0  0.987132  0
H  H16  1  0.10397468  0.55698209  0.24695826  1  0  0.083365  0  0.941345  0  0  0.088895  0  1.012005  0  0  0.093004  0  1.007408  0  0.08517  0  0.113537  0.085746  0  1.015694  0
H  H17  1  0.60397888  0.44301306  0.25304436  1  0  0.08337  0  0.941436  0  0  0.088917  0  1.012053  0  0  0.093025  0  1.007457  0  0.084985  0  0.113544  0.085768  0  1.015742  0
H  H18  1  0.89603064  0.44301224  0.75303359  1  0  0.083343  0  0.941396  0  0  0.088959  0  1.011985  0  0  0.093067  0  1.007386  0  0.085253  0  0.1136  0.085808  0  1.015678  0
H  H19  1  0.39602230  0.55698784  0.74695869  1  0  0.083361  0  0.941417  0  0  0.0889  0  1.012056  0  0  0.093009  0  1.007459  0  0.085018  0  0.113562  0.085751  0  1.015745  0
H  H20  1  0.17701858  0.88286628  0.34781966  1  0  0.068047  0  0.964943  0  0  0.07307  0  1.038556  0  0  0.076069  0  1.035545  0  0.098133  0  0.096805  0.070471  0  1.04149  0
H  H21  1  0.67702175  0.11712805  0.15218749  1  0  0.068157  0  0.96504  0  0  0.073217  0  1.038606  0  0  0.076184  0  1.035617  0  0.099378  0  0.096854  0.070602  0  1.041554  0
H  H22  1  0.82297332  0.11713133  0.65215790  1  0  0.068032  0  0.964966  0  0  0.073092  0  1.038555  0  0  0.076077  0  1.035559  0  0.097624  0  0.09686  0.070515  0  1.041471  0
H  H23  1  0.32299079  0.88287533  0.84781957  1  0  0.068093  0  0.964926  0  0  0.073106  0  1.038542  0  0  0.076117  0  1.035521  0  0.098151  0  0.096833  0.070514  0  1.04147  0
H  H24  1  0.99860378  0.87674886  0.48694351  1  0  0.102012  0  0.976916  0  0  0.111258  0  1.036334  0  0  0.114624  0  1.035337  0  0.142023  0  0.091783  0.108872  0  1.037144  0
H  H25  1  0.49860370  0.12324382  0.01306428  1  0  0.102021  0  0.97693  0  0  0.111278  0  1.036334  0  0  0.114644  0  1.035339  0  0.142078  0  0.091745  0.108893  0  1.037144  0
H  H26  1  0.00137677  0.12326109  0.51302886  1  0  0.101973  0  0.976854  0  0  0.111247  0  1.036278  0  0  0.114608  0  1.035286  0  0.142047  0  0.091804  0.108863  0  1.037085  0
H  H27  1  0.50138820  0.87674640  0.98695327  1  0  0.101971  0  0.976895  0  0  0.111229  0  1.036331  0  0  0.11459  0  1.035334  0  0.141931  0  0.091794  0.108844  0  1.037138  0
H  H28  1  0.87219010  0.69971861  0.50506611  1  0  0.103011  0  0.945626  0  0  0.109008  0  1.012385  0  0  0.112979  0  1.00836  0  0.106985  0  0.108971  0.106101  0  1.015181  0
H  H29  1  0.37219312  0.30027243  0.99493850  1  0  0.103064  0  0.945675  0  0  0.109023  0  1.012449  0  0  0.112987  0  1.008422  0  0.107154  0  0.109027  0.106116  0  1.015245  0
H  H30  1  0.12780283  0.30028888  0.49491602  1  0  0.102867  0  0.945628  0  0  0.10899  0  1.012276  0  0  0.112966  0  1.00825  0  0.10742  0  0.108977  0.106083  0  1.01507  0
H  H31  1  0.62779362  0.69970792  0.00507601  1  0  0.103016  0  0.945707  0  0  0.108996  0  1.012445  0  0  0.112974  0  1.008424  0  0.107531  0  0.108982  0.106089  0  1.01524  0
H  H32  1  0.70003045  0.54303618  0.60320145  1  0  0.327411  0  0.879445  0  0  0.31629  0  0.933133  0  0  0.323869  0  0.926928  0  0.461344  0  0.311581  0.310716  0  0.937914  0
H  H33  1  0.20003141  0.45695733  0.89680104  1  0  0.327508  0  0.87932  0  0  0.316288  0  0.933125  0  0  0.32389  0  0.926887  0  0.461193  0  0.311597  0.310716  0  0.937903  0
H  H34  1  0.29997590  0.45696144  0.39679829  1  0  0.327408  0  0.879406  0  0  0.31626  0  0.93314  0  0  0.323851  0  0.92692  0  0.4613  0  0.311571  0.310684  0  0.937928  0
H  H35  1  0.79996565  0.54304440  0.10320437  1  0  0.327455  0  0.879366  0  0  0.316291  0  0.93311  0  0  0.323888  0  0.926881  0  0.461144  0  0.311578  0.310717  0  0.937891  0
H  H36  1  0.59685975  0.46155773  0.67613020  1  0  0.325913  0  0.943807  0  0  0.306212  0  1.013824  0  0  0.313837  0  1.008355  0  0.522965  0  0.290202  0.300897  0  1.017498  0
H  H37  1  0.09686070  0.53843742  0.82387089  1  0  0.32588  0  0.943783  0  0  0.306191  0  1.01377  0  0  0.313814  0  1.008302  0  0.522997  0  0.29018  0.300877  0  1.017445  0
H  H38  1  0.40314660  0.53844071  0.32387496  1  0  0.325921  0  0.943715  0  0  0.306275  0  1.013655  0  0  0.313899  0  1.008181  0  0.523053  0  0.2902  0.300959  0  1.017332  0
H  H39  1  0.90314358  0.46156513  0.17612540  1  0  0.325844  0  0.943865  0  0  0.306194  0  1.013806  0  0  0.313816  0  1.00834  0  0.523029  0  0.290192  0.300878  0  1.017481  0
C  C40  1  0.52157525  0.13018183  0.43822774  1  0  0.081932  0  3.707708  0  0  0.055367  0  3.957654  0  0  0.057716  0  3.975637  0  0.45469  0  0.050995  0.053547  0  3.945564  0
C  C41  1  0.02157827  0.86981414  0.06177265  1  0  0.082149  0  3.707487  0  0  0.055529  0  3.957478  0  0  0.057905  0  3.975465  0  0.453986  0  0.051078  0.053705  0  3.945395  0
C  C42  1  0.47842078  0.86981085  0.56178846  1  0  0.082172  0  3.707617  0  0  0.055517  0  3.957714  0  0  0.057867  0  3.9757  0  0.454403  0  0.050992  0.053693  0  3.94563  0
C  C43  1  0.97842189  0.13019992  0.93821380  1  0  0.082183  0  3.707364  0  0  0.055519  0  3.957443  0  0  0.057889  0  3.975432  0  0.45389  0  0.051034  0.053697  0  3.945356  0
C  C44  1  0.39707397  0.12525583  0.49202559  1  0  0.063905  0  3.706526  0  0  0.041935  0  3.966036  0  0  0.044394  0  3.981513  0  0.553829  0  0.050711  0.040854  0  3.955232  0
C  C45  1  0.89707818  0.87474015  0.00797327  1  0  0.064002  0  3.70653  0  0  0.042017  0  3.966065  0  0  0.044485  0  3.981525  0  0.563623  0  0.050743  0.040935  0  3.955264  0
C  C46  1  0.60292722  0.87473850  0.50799838  1  0  0.063902  0  3.706602  0  0  0.041942  0  3.966094  0  0  0.044395  0  3.981572  0  0.564029  0  0.050658  0.040861  0  3.955294  0
C  C47  1  0.10292095  0.12526734  0.99200810  1  0  0.064157  0  3.706477  0  0  0.042216  0  3.965988  0  0  0.044673  0  3.98146  0  0.564292  0  0.050811  0.041133  0  3.955187  0
C  C48  1  0.44429475  0.29103792  0.57850055  1  0  0.063032  0  3.654258  0  0  0.031397  0  3.916674  0  0  0.034656  0  3.929571  0  0.570705  0  0.055746  0.029097  0  3.908969  0
C  C49  1  0.94429586  0.70895641  0.92150201  1  0  0.062943  0  3.654359  0  0  0.031244  0  3.916649  0  0  0.034478  0  3.929566  0  0.570617  0  0.055669  0.028952  0  3.908942  0
C  C50  1  0.55570231  0.70896463  0.42150951  1  0  0.06297  0  3.654547  0  0  0.031344  0  3.916801  0  0  0.034585  0  3.929754  0  0.570775  0  0.055832  0.029046  0  3.909099  0
C  C51  1  0.05570326  0.29104861  0.07849523  1  0  0.062958  0  3.654577  0  0  0.031263  0  3.916929  0  0  0.034498  0  3.929824  0  0.570872  0  0.055732  0.028975  0  3.909216  0
C  C52  1  0.56679487  0.29960067  0.52215019  1  0  0.097359  0  3.742346  0  0  0.099292  0  3.987134  0  0  0.100486  0  4.006514  0  0.505205  0  0.123659  0.097469  0  3.97473  0
C  C53  1  0.06679376  0.70039202  0.97785300  1  0  0.097217  0  3.742886  0  0  0.099404  0  3.987295  0  0  0.1006  0  4.00668  0  0.504674  0  0.123585  0.097574  0  3.974892  0
C  C54  1  0.43320838  0.70039531  0.47785861  1  0  0.097352  0  3.742675  0  0  0.09948  0  3.987146  0  0  0.10068  0  4.006519  0  0.504645  0  0.123572  0.097653  0  3.974741  0
C  C55  1  0.93321878  0.29961876  0.02213855  1  0  0.097298  0  3.742777  0  0  0.099465  0  3.987228  0  0  0.100651  0  4.006617  0  0.504983  0  0.123644  0.097637  0  3.974823  0
C  C56  1  0.65323591  0.39958267  0.52952900  1  0  0.385445  0  3.830073  0  0  0.346238  0  4.108676  0  0  0.366138  0  4.121044  0  1.122239  0  0.23198  0.333796  0  4.098754  0
C  C57  1  0.15323480  0.60041577  0.97047233  1  0  0.385625  0  3.830058  0  0  0.346344  0  4.108585  0  0  0.366246  0  4.120954  0  1.12279  0  0.23201  0.333904  0  4.098666  0
C  C58  1  0.34676734  0.60041495  0.47047533  1  0  0.385501  0  3.830155  0  0  0.346206  0  4.108779  0  0  0.36611  0  4.121144  0  1.122782  0  0.231987  0.333771  0  4.098846  0
C  C59  1  0.84677464  0.39959665  0.02952088  1  0  0.385662  0  3.829937  0  0  0.346356  0  4.108571  0  0  0.366261  0  4.120933  0  1.12275  0  0.231981  0.33391  0  4.098658  0
C  C60  1  0.90333142  0.50843657  0.38062052  1  0  0.458459  0  3.889919  0  0  0.421382  0  4.174659  0  0  0.446312  0  4.182382  0  1.312075  0  0.203478  0.404826  0  4.168573  0
C  C61  1  0.40333443  0.49156022  0.11938299  1  0  0.45818  0  3.890088  0  0  0.421123  0  4.174807  0  0  0.446041  0  4.182548  0  1.312033  0  0.203353  0.404569  0  4.168717  0
C  C62  1  0.09666874  0.49155858  0.61938057  1  0  0.458436  0  3.889983  0  0  0.421342  0  4.174735  0  0  0.446268  0  4.182467  0  1.312152  0  0.203425  0.404785  0  4.168649  0
C  C63  1  0.59666366  0.50844151  0.88061630  1  0  0.458208  0  3.890177  0  0  0.421184  0  4.17486  0  0  0.44611  0  4.182589  0  1.312213  0  0.203381  0.404629  0  4.168771  0
C  C64  1  0.97715762  0.61459520  0.37666851  1  0  -0.06455  0  3.734599  0  0  -0.041734  0  3.968926  0  0  -0.050089  0  3.990674  0  -0.006148  0  -0.006984  -0.036942  0  3.954528  0
C  C65  1  0.47716167  0.38540489  0.12333448  1  0  -0.064341  0  3.734316  0  0  -0.041593  0  3.968704  0  0  -0.04994  0  3.99046  0  -0.006441  0  -0.006972  -0.0368  0  3.954306  0
C  C66  1  0.02284254  0.38540242  0.62332129  1  0  -0.064464  0  3.734314  0  0  -0.041645  0  3.96873  0  0  -0.049999  0  3.990489  0  -0.007012  0  -0.0069  -0.036852  0  3.954333  0
C  C67  1  0.52283642  0.61459355  0.87667068  1  0  -0.064522  0  3.73458  0  0  -0.04176  0  3.968935  0  0  -0.050107  0  3.990684  0  -0.006615  0  -0.006994  -0.036969  0  3.954539  0
C  C68  1  0.07773460  0.62597985  0.30169035  1  0  0.113378  0  3.661894  0  0  0.071807  0  3.913902  0  0  0.081244  0  3.928433  0  0.511386  0  0.041657  0.065033  0  3.905428  0
C  C69  1  0.57774087  0.37401366  0.19831214  1  0  0.11322  0  3.662004  0  0  0.071643  0  3.914043  0  0  0.081087  0  3.928558  0  0.511939  0  0.041629  0.064868  0  3.905569  0
C  C70  1  0.92226142  0.37401284  0.69829907  1  0  0.113431  0  3.661895  0  0  0.071747  0  3.913939  0  0  0.081195  0  3.928449  0  0.512371  0  0.041603  0.064968  0  3.90547  0
C  C71  1  0.42226031  0.62598560  0.80168926  1  0  0.113431  0  3.661794  0  0  0.071871  0  3.913786  0  0  0.081294  0  3.928338  0  0.511804  0  0.041693  0.065097  0  3.905314  0
C  C72  1  0.11848438  0.80814660  0.35868961  1  0  0.129476  0  3.709632  0  0  0.097481  0  3.956524  0  0  0.105048  0  3.976043  0  0.439644  0  0.037543  0.09305  0  3.942871  0
C  C73  1  0.61849065  0.19184773  0.14131524  1  0  0.129333  0  3.709876  0  0  0.097307  0  3.956743  0  0  0.104905  0  3.976282  0  0.438321  0  0.037464  0.092887  0  3.943098  0
C  C74  1  0.88150958  0.19185102  0.64129484  1  0  0.129544  0  3.709858  0  0  0.097512  0  3.956734  0  0  0.10509  0  3.976255  0  0.44021  0  0.037537  0.093058  0  3.94308  0
C  C75  1  0.38151570  0.80815153  0.85868998  1  0  0.129457  0  3.70976  0  0  0.097464  0  3.95666  0  0  0.105022  0  3.976172  0  0.439762  0  0.037568  0.093024  0  3.943012  0
C  C76  1  0.01952550  0.80410779  0.43543350  1  0  -0.128442  0  3.764944  0  0  -0.135177  0  4.012382  0  0  -0.143885  0  4.034115  0  -0.077579  0  -0.091066  -0.129816  0  3.996933  0
C  C77  1  0.51953177  0.19588737  0.06457218  1  0  -0.128583  0  3.765007  0  0  -0.135329  0  4.012437  0  0  -0.144034  0  4.03416  0  -0.077568  0  -0.091112  -0.129971  0  3.996994  0
C  C78  1  0.98046639  0.19589477  0.56454826  1  0  -0.12863  0  3.764679  0  0  -0.135423  0  4.012311  0  0  -0.144114  0  4.034015  0  -0.077882  0  -0.091202  -0.130065  0  3.996874  0
C  C79  1  0.48047354  0.80410861  0.93543586  1  0  -0.128394  0  3.764904  0  0  -0.135182  0  4.012406  0  0  -0.14387  0  4.034111  0  -0.077552  0  -0.091084  -0.129823  0  3.996961  0
C  C80  1  0.94921671  0.70628168  0.44538300  1  0  -0.006222  0  3.683098  0  0  -0.037611  0  3.937431  0  0  -0.031407  0  3.951549  0  0.010287  0  -0.057471  -0.04089  0  3.926947  0
C  C81  1  0.44921870  0.29371265  0.05462338  1  0  -0.00617  0  3.683078  0  0  -0.037507  0  3.937418  0  0  -0.031299  0  3.951531  0  0.010129  0  -0.057422  -0.040785  0  3.926929  0
C  C82  1  0.05077622  0.29372169  0.55460265  1  0  -0.005993  0  3.682954  0  0  -0.03751  0  3.937379  0  0  -0.031318  0  3.951507  0  0.009871  0  -0.057479  -0.040789  0  3.926894  0
C  C83  1  0.55077423  0.70627921  0.94538817  1  0  -0.006212  0  3.683255  0  0  -0.037539  0  3.937553  0  0  -0.031351  0  3.951683  0  0.009634  0  -0.057489  -0.040815  0  3.927061  0
I  I84  1  0.93097612  0.07351182  0.29154959  1  0  -0.505645  0  0.971014  0  0  -0.449509  0  1.261576  0  0  -0.470288  0  1.239727  0  -0.494857  0  -0.248532  -0.435047  0  1.27855  0
I  I85  1  0.43092754  0.92650224  0.20846134  1  0  -0.505639  0  0.971009  0  0  -0.449491  0  1.261555  0  0  -0.470272  0  1.239708  0  -0.494814  0  -0.248533  -0.435029  0  1.27853  0
I  I86  1  0.06904571  0.92649566  0.70842719  1  0  -0.505608  0  0.971064  0  0  -0.449441  0  1.261594  0  0  -0.470231  0  1.239746  0  -0.494929  0  -0.248522  -0.434979  0  1.278577  0
I  I87  1  0.56906952  0.07349949  0.79157620  1  0  -0.505586  0  0.971085  0  0  -0.449432  0  1.261632  0  0  -0.470215  0  1.239788  0  -0.494893  0  -0.248509  -0.434969  0  1.278611  0
N  N88  1  0.60482930  0.21696287  0.45305785  1  0  -0.306166  0  3.224244  0  0  -0.245496  0  3.480005  0  0  -0.258784  0  3.499089  0  -1.209863  0  -0.306039  -0.23599  0  3.46687  0
N  N89  1  0.10483129  0.78303064  0.04694464  1  0  -0.306232  0  3.224334  0  0  -0.245618  0  3.480024  0  0  -0.258905  0  3.499097  0  -1.209328  0  -0.30603  -0.236112  0  3.466889  0
N  N90  1  0.39516673  0.78302900  0.54695446  1  0  -0.306201  0  3.224279  0  0  -0.245533  0  3.479961  0  0  -0.258819  0  3.499043  0  -1.209357  0  -0.305958  -0.236027  0  3.466825  0
N  N91  1  0.89517506  0.21698425  0.95304263  1  0  -0.306311  0  3.224108  0  0  -0.245638  0  3.479779  0  0  -0.258922  0  3.498854  0  -1.209742  0  -0.306094  -0.23613  0  3.46664  0
N  N92  1  0.35929962  0.20490974  0.56281010  1  0  -0.238853  0  3.064741  0  0  -0.208692  0  3.334256  0  0  -0.214375  0  3.346815  0  -1.161306  0  -0.296365  -0.204491  0  3.325108  0
N  N93  1  0.85930176  0.79508623  0.93719028  1  0  -0.2389  0  3.064725  0  0  -0.208765  0  3.334272  0  0  -0.214445  0  3.346835  0  -1.161221  0  -0.296434  -0.204568  0  3.325123  0
N  N94  1  0.64070157  0.79509035  0.43720742  1  0  -0.238872  0  3.064955  0  0  -0.20876  0  3.334502  0  0  -0.214427  0  3.34705  0  -1.161487  0  -0.296383  -0.204561  0  3.325355  0
N  N95  1  0.14069943  0.20491714  0.06279995  1  0  -0.238998  0  3.064769  0  0  -0.208867  0  3.33432  0  0  -0.214549  0  3.34689  0  -1.161179  0  -0.296427  -0.204671  0  3.325175  0
N  N96  1  0.63061423  0.48045842  0.60476186  1  0  -0.65216  0  3.105721  0  0  -0.617281  0  3.340661  0  0  -0.639104  0  3.339131  0  -1.280647  0  -0.573075  -0.602085  0  3.340738  0
N  N97  1  0.13061519  0.51953673  0.89524000  1  0  -0.652246  0  3.105525  0  0  -0.617307  0  3.340585  0  0  -0.639156  0  3.339015  0  -1.280593  0  -0.573078  -0.602098  0  3.340633  0
N  N98  1  0.36939211  0.51953920  0.39524324  1  0  -0.652135  0  3.105648  0  0  -0.617281  0  3.340518  0  0  -0.639119  0  3.338964  0  -1.280698  0  -0.573029  -0.602086  0  3.340593  0
N  N99  1  0.86938806  0.48047158  0.10475826  1  0  -0.652232  0  3.105666  0  0  -0.617318  0  3.340535  0  0  -0.639165  0  3.338979  0  -1.280803  0  -0.573066  -0.602121  0  3.340616  0
N  N100  1  0.74304353  0.40872262  0.45506409  1  0  -0.325262  0  3.339516  0  0  -0.257698  0  3.632137  0  0  -0.278759  0  3.655187  0  -0.845094  0  -0.272953  -0.243432  0  3.615178  0
N  N101  1  0.24304139  0.59127089  0.04493917  1  0  -0.325373  0  3.339313  0  0  -0.257818  0  3.631974  0  0  -0.278883  0  3.655024  0  -0.844989  0  -0.272932  -0.243555  0  3.61502  0
N  N102  1  0.25696179  0.59127335  0.54494165  1  0  -0.325275  0  3.339455  0  0  -0.257724  0  3.632137  0  0  -0.278786  0  3.655187  0  -0.845093  0  -0.27295  -0.243461  0  3.61518  0
N  N103  1  0.75696806  0.40873660  0.95505520  1  0  -0.325184  0  3.339455  0  0  -0.257665  0  3.632185  0  0  -0.278725  0  3.65523  0  -0.845327  0  -0.272884  -0.243399  0  3.615234  0
N  N104  1  0.81396862  0.50525946  0.45784774  1  0  -0.366052  0  3.047837  0  0  -0.347309  0  3.340311  0  0  -0.367312  0  3.361985  0  -0.757568  0  -0.259544  -0.333481  0  3.32542  0
N  N105  1  0.31396854  0.49473240  0.04215769  1  0  -0.365876  0  3.047655  0  0  -0.347116  0  3.340063  0  0  -0.367117  0  3.361745  0  -0.757567  0  -0.259507  -0.333292  0  3.325172  0
N  N106  1  0.18603876  0.49473651  0.54215494  1  0  -0.366022  0  3.047734  0  0  -0.347273  0  3.340225  0  0  -0.36728  0  3.361909  0  -0.757562  0  -0.259555  -0.333445  0  3.325331  0
N  N107  1  0.68603368  0.50526768  0.95783995  1  0  -0.365999  0  3.048059  0  0  -0.347244  0  3.340495  0  0  -0.367252  0  3.362184  0  -0.757073  0  -0.259542  -0.333418  0  3.325601  0
N  N108  1  0.14717456  0.72017661  0.29344943  1  0  -0.327285  0  3.301081  0  0  -0.24344  0  3.568485  0  0  -0.264436  0  3.588323  0  -1.250463  0  -0.34322  -0.229281  0  3.554703  0
N  N109  1  0.64718083  0.27981772  0.20655389  1  0  -0.32719  0  3.301225  0  0  -0.24333  0  3.568593  0  0  -0.264323  0  3.588419  0  -1.250554  0  -0.343176  -0.229172  0  3.554807  0
N  N110  1  0.85282250  0.27981690  0.70653624  1  0  -0.327301  0  3.301529  0  0  -0.243384  0  3.568902  0  0  -0.264379  0  3.588737  0  -1.250535  0  -0.343192  -0.229224  0  3.555124  0
N  N111  1  0.35282552  0.72018155  0.79345133  1  0  -0.327374  0  3.301252  0  0  -0.243521  0  3.568654  0  0  -0.264517  0  3.588498  0  -1.250508  0  -0.343266  -0.229365  0  3.554877  0
O  O112  1  0.92907197  0.42996915  0.31036675  1  0  -0.633278  0  2.013499  0  0  -0.559046  0  2.253022  0  0  -0.587965  0  2.245697  0  -1.174389  0  -0.336957  -0.538216  0  2.256755  0
O  O113  1  0.42907706  0.57002930  0.18963306  1  0  -0.633192  0  2.01359  0  0  -0.558915  0  2.253068  0  0  -0.587831  0  2.245742  0  -1.174439  0  -0.336881  -0.538086  0  2.2568  0
O  O114  1  0.07092921  0.57002518  0.68963275  1  0  -0.633254  0  2.013615  0  0  -0.558983  0  2.253139  0  0  -0.587899  0  2.245814  0  -1.174436  0  -0.33691  -0.538154  0  2.256876  0
O  O115  1  0.57092207  0.42996997  0.81036681  1  0  -0.63314  0  2.013523  0  0  -0.558905  0  2.253021  0  0  -0.58782  0  2.245695  0  -1.174455  0  -0.336908  -0.538076  0  2.256754  0
