# generated using pymatgen
data_ZnH28C26N3O7
_symmetry_space_group_name_H-M   'P 1'
_cell_length_a   14.60342622
_cell_length_b   16.02822403
_cell_length_c   19.29075343
_cell_angle_alpha   89.88669781
_cell_angle_beta   89.82293988
_cell_angle_gamma   89.57217001
_symmetry_Int_Tables_number   1
_chemical_formula_structural   ZnH28C26N3O7
_chemical_formula_sum   'Zn2 H56 C52 N6 O14'
_cell_volume   4515.17246991
_cell_formula_units_Z   2
loop_
 _symmetry_equiv_pos_site_id
 _symmetry_equiv_pos_as_xyz
  1  'x, y, z'
loop_
 _atom_site_type_symbol
 _atom_site_label
 _atom_site_symmetry_multiplicity
 _atom_site_fract_x
 _atom_site_fract_y
 _atom_site_fract_z
 _atom_site_occupancy
 _atom_site_pbe_bader_charge
 _atom_site_pbe_bader_spin_density
 _atom_site_pbe_cm5_charge
 _atom_site_pbe_ddec_charge
 _atom_site_pbe_ddec_spin_density
 _atom_site_pbe_ddec_sum_bond_order
 _atom_site_pbe_magmom
Zn  Zn0  1  0.40720567  0.50192301  0.49756920  1  1.324176  0  0.681615  0.88676  0  2.450527  0
Zn  Zn1  1  0.59710270  0.50149257  0.49859522  1  1.319542  0  0.678984  0.882291  0  2.440734  0
H  H2  1  0.36066708  0.52795260  0.27941418  1  0.107157  0  0.105241  0.111669  0  0.996254  0
H  H3  1  0.64347919  0.45450156  0.27818432  1  0.100797  0  0.10448  0.11032  0  0.996987  0
H  H4  1  0.43890928  0.93036376  0.40094855  1  0.050429  0  0.098556  0.104201  0  0.979649  0
H  H5  1  0.56015290  0.92960455  0.40051235  1  0.056964  0  0.098622  0.104473  0  0.979082  0
H  H6  1  0.08264099  0.42820607  0.59398949  1  0.04414  0  0.105977  0.044797  0  0.974679  0
H  H7  1  0.92553449  0.42905195  0.59579605  1  0.068754  0  0.108646  0.049441  0  0.977365  0
H  H8  1  0.92116263  0.63208753  0.50218620  1  0.064243  0  0.1082  0.11255  0  0.962607  0
H  H9  1  0.08117185  0.63208519  0.50158903  1  0.060995  0  0.108558  0.113236  0  0.962138  0
H  H10  1  0.92199808  0.58397740  0.58451618  1  0.076113  0  0.104625  0.105475  0  0.96565  0
H  H11  1  0.08181501  0.58367451  0.58380538  1  0.042806  0  0.104911  0.106232  0  0.966403  0
H  H12  1  0.92338150  0.43008184  0.40157431  1  0.111904  0  0.110654  0.119365  0  0.965274  0
H  H13  1  0.08255093  0.43283637  0.39897980  1  0.09732  0  0.112372  0.123176  0  0.961573  0
H  H14  1  0.92017803  0.53999379  0.39188391  1  0.049453  0  0.105857  0.107668  0  0.962695  0
H  H15  1  0.08055690  0.54310703  0.39180887  1  0.034458  0  0.105243  0.106488  0  0.963099  0
H  H16  1  0.35615436  0.51696569  0.14953590  1  0.104024  0  0.102604  0.098645  0  1.020641  0
H  H17  1  0.63899703  0.43993051  0.14850564  1  0.088162  0  0.103242  0.101262  0  1.014674  0
H  H18  1  0.35774430  0.45642960  0.71342675  1  0.107091  0  0.10672  0.12831  0  1.006547  0
H  H19  1  0.64379542  0.51518273  0.72148413  1  0.112109  0  0.107036  0.129334  0  1.003513  0
H  H20  1  0.41649704  0.92788091  0.59503675  1  0.05831  0  0.098587  0.032296  0  0.976995  0
H  H21  1  0.58457824  0.92617057  0.59402676  1  0.030674  0  0.098582  0.032517  0  0.976556  0
H  H22  1  0.41558345  0.07407720  0.59651950  1  0.013202  0  0.093161  0.100635  0  0.981109  0
H  H23  1  0.58890052  0.07235135  0.59459356  1  0.01686  0  0.092667  0.098903  0  0.982928  0
H  H24  1  0.64843029  0.06955099  0.51427541  1  0.016678  0  0.099424  0.107386  0  0.99149  0
H  H25  1  0.35354682  0.07378546  0.51760662  1  0.046052  0  0.100181  0.108865  0  0.989092  0
H  H26  1  0.43841613  0.07638187  0.40296521  1  0.056057  0  0.095724  0.096223  0  0.973203  0
H  H27  1  0.55940149  0.07562574  0.40120855  1  0.030663  0  0.095265  0.095756  0  0.973271  0
H  H28  1  0.79080379  0.34507716  0.56956462  1  0.060551  0  0.099812  0.063418  0  0.982397  0
H  H29  1  0.88248999  0.28474412  0.60625881  1  0.015332  0  0.089249  0.038038  0  0.987356  0
H  H30  1  0.87389428  0.18674461  0.50363112  1  0.030826  0  0.090659  0.121029  0  0.998503  0
H  H31  1  0.76796262  0.19222064  0.54997602  1  0.024555  0  0.096313  0.130748  0  0.997416  0
H  H32  1  0.78014810  0.24673760  0.47034902  1  0.065296  0  0.099421  0.13937  0  0.981328  0
H  H33  1  0.04237895  0.26279087  0.57946584  1  0.039234  0  0.093794  0.047247  0  0.999918  0
H  H34  1  0.15461372  0.30055196  0.59922132  1  0.03695  0  0.096249  0.049848  0  0.967533  0
H  H35  1  0.21615706  0.22738801  0.49290542  1  0.067292  0  0.100302  0.141846  0  0.981837  0
H  H36  1  0.16374008  0.15583852  0.55139513  1  0.010364  0  0.09246  0.121589  0  1.003545  0
H  H37  1  0.10438445  0.18844320  0.47530730  1  0.029555  0  0.093888  0.127325  0  0.991868  0
H  H38  1  0.23455341  0.48902115  0.79310668  1  0.035155  0  0.088848  0.04185  0  0.980817  0
H  H39  1  0.28408103  0.55159952  0.85986736  1  0.076602  0  0.09669  0.05204  0  0.984083  0
H  H40  1  0.21846383  0.45940708  0.95069887  1  0.030387  0  0.094828  0.13386  0  0.992485  0
H  H41  1  0.12914660  0.49667168  0.89565041  1  0.010299  0  0.090182  0.119463  0  1.001474  0
H  H42  1  0.17154407  0.39258026  0.88622957  1  0.010287  0  0.089608  0.121502  0  0.996739  0
H  H43  1  0.75604198  0.45142252  0.79858442  1  0.022577  0  0.089662  0.043339  0  0.981342  0
H  H44  1  0.70397468  0.38670371  0.86321858  1  0.04475  0  0.095999  0.051375  0  0.984994  0
H  H45  1  0.77670931  0.46952002  0.95696847  1  0.022023  0  0.094832  0.133559  0  0.990296  0
H  H46  1  0.86247434  0.43130881  0.89898329  1  0.026258  0  0.09095  0.120275  0  1.00008  0
H  H47  1  0.82656138  0.53786704  0.89445149  1  0.038007  0  0.089893  0.12218  0  0.997066  0
H  H48  1  0.72829361  0.87355104  0.59429243  1  0.017132  0  0.091029  0.0414  0  0.97376  0
H  H49  1  0.76197186  0.97577257  0.56806994  1  0.004845  0  0.087249  0.037819  0  0.981751  0
H  H50  1  0.83752953  0.91649503  0.46179184  1  0.04748  0  0.09097  0.123682  0  0.996229  0
H  H51  1  0.88304441  0.86934207  0.53819441  1  0.009159  0  0.085807  0.111234  0  1.012015  0
H  H52  1  0.80206197  0.81451969  0.48635648  1  0.015926  0  0.093182  0.128791  0  0.992851  0
H  H53  1  0.23847243  0.97968502  0.57189359  1  0.006855  0  0.086246  0.035771  0  0.985403  0
H  H54  1  0.27363931  0.87695209  0.59655776  1  0.039736  0  0.091638  0.043037  0  0.974764  0
H  H55  1  0.19856302  0.81958590  0.48943384  1  0.021067  0  0.093314  0.12904  0  0.992757  0
H  H56  1  0.11795520  0.87444169  0.54268037  1  0.028068  0  0.085985  0.111515  0  1.011232  0
H  H57  1  0.16182797  0.92207839  0.46596127  1  0.052757  0  0.090673  0.12346  0  0.996185  0
C  C58  1  0.50415894  0.33937163  0.49946007  1  1.720872  0  0.214708  0.673487  0  4.24303  0
C  C59  1  0.49421773  0.47051794  0.06546350  1  0.9413  0  0.241836  0.256818  0  3.983696  0
C  C60  1  0.41692789  0.45911502  0.81617600  1  0.5678  0  0.087294  0.241477  0  4.06911  0
C  C61  1  0.57908958  0.49121833  0.82060566  1  0.499874  0  0.086394  0.24115  0  4.062685  0
C  C62  1  0.41879877  0.46713459  0.74431434  1  -0.040299  0  -0.101358  -0.229934  0  3.972952  0
C  C63  1  0.58100444  0.49862091  0.74863017  1  0.003758  0  -0.101317  -0.232097  0  3.973205  0
C  C64  1  0.50071793  0.48707708  0.71064675  1  -0.057136  0  -0.01109  0.026076  0  3.982986  0
C  C65  1  0.49691777  0.47192078  0.85555996  1  0.047811  0  -0.017303  -0.185198  0  3.966908  0
C  C66  1  0.41571467  0.05009899  0.54317805  1  -0.014428  0  -0.159803  -0.276795  0  3.850952  0
C  C67  1  0.58669856  0.04787729  0.54143825  1  0.055652  0  -0.16056  -0.278364  0  3.856922  0
C  C68  1  0.58618567  0.95136839  0.54059874  1  0.410338  0  0.010452  0.141791  0  3.815224  0
C  C69  1  0.41467640  0.95350913  0.54176809  1  0.438053  0  0.010849  0.142363  0  3.811875  0
C  C70  1  0.49984774  0.75328175  0.50190697  1  0.189072  0  -0.060685  -0.209839  0  3.9847  0
C  C71  1  0.50098734  0.08307682  0.50441479  1  0.200214  0  -0.000253  0.193159  0  3.901469  0
C  C72  1  0.49987943  0.91953090  0.50233168  1  0.122681  0  0.001433  0.065543  0  3.87625  0
C  C73  1  0.50396088  0.49874674  0.36357968  1  1.590403  0  0.21465  0.591838  0  4.172097  0
C  C74  1  0.49958326  0.95433936  0.42736795  1  -0.00779  0  -0.15437  -0.17825  0  3.834836  0
C  C75  1  0.49947855  0.05068285  0.42864856  1  -0.061628  0  -0.151477  -0.182637  0  3.833037  0
C  C76  1  0.49956855  0.82902378  0.50204896  1  -0.471271  0  -0.029625  -0.032415  0  4.068057  0
C  C77  1  0.50192142  0.17348393  0.50403465  1  -0.414398  0  -0.034542  -0.055194  0  4.049569  0
C  C78  1  0.50338706  0.24925184  0.50225655  1  -0.014079  0  -0.063235  -0.214916  0  4.002599  0
C  C79  1  0.94895093  0.42081515  0.54179512  1  0.505987  0  0.014439  0.072467  0  3.795202  0
C  C80  1  0.05746181  0.42106050  0.54030467  1  0.468726  0  0.015618  0.070688  0  3.81996  0
C  C81  1  0.94882568  0.57878542  0.53143363  1  -0.078284  0  -0.144249  -0.183622  0  3.85737  0
C  C82  1  0.05456910  0.57873947  0.53098002  1  -0.002297  0  -0.143695  -0.185946  0  3.858098  0
C  C83  1  0.91415205  0.49703070  0.49844321  1  0.181649  0  0.008541  0.04764  0  3.915809  0
C  C84  1  0.09028080  0.49724067  0.49728763  1  0.192042  0  0.011657  0.057269  0  3.910074  0
C  C85  1  0.05471223  0.49009818  0.42201557  1  -0.027607  0  -0.143907  -0.180455  0  3.828445  0
C  C86  1  0.94905861  0.48874499  0.42286727  1  -0.072344  0  -0.144532  -0.178495  0  3.833749  0
C  C87  1  0.18943346  0.49734972  0.49710145  1  0.86937  0  0.245614  0.303978  0  3.876667  0
C  C88  1  0.81515680  0.49783247  0.49875627  1  0.852118  0  0.244956  0.300883  0  3.884194  0
C  C89  1  0.49989131  0.66317140  0.50063240  1  1.677356  0  0.216916  0.680334  0  4.229224  0
C  C90  1  0.50215650  0.49522831  0.63304405  1  1.585392  0  0.21422  0.593645  0  4.162858  0
C  C91  1  0.42120513  0.50959197  0.24986326  1  -0.073487  0  -0.082014  -0.087682  0  3.970467  0
C  C92  1  0.58099098  0.46749175  0.24924766  1  -0.085747  0  -0.081549  -0.087725  0  3.970107  0
C  C93  1  0.41865699  0.50315814  0.17811419  1  -0.086914  0  -0.084363  -0.108642  0  3.977394  0
C  C94  1  0.57851583  0.45972817  0.17748353  1  -0.061868  0  -0.084827  -0.111951  0  3.980216  0
C  C95  1  0.49728777  0.47772111  0.14129320  1  0.084123  0  -0.007414  0.013225  0  4.004448  0
C  C96  1  0.50231816  0.49208366  0.28598926  1  0.032927  0  -0.009006  -0.013786  0  3.93507  0
C  C97  1  0.49397357  0.46752166  0.93159404  1  0.950532  0  0.244979  0.288201  0  3.979909  0
C  C98  1  0.84885595  0.30321853  0.55717197  1  0.404451  0  -0.06899  0.079041  0  3.937794  0
C  C99  1  0.81611965  0.22767295  0.51772045  1  -0.044649  0  -0.241645  -0.390128  0  3.967053  0
C  C100  1  0.10894263  0.28057344  0.55679718  1  0.407469  0  -0.067408  0.089855  0  3.935291  0
C  C101  1  0.15083197  0.20886940  0.51648390  1  -0.033023  0  -0.240729  -0.393049  0  3.964817  0
C  C102  1  0.26151510  0.48815682  0.84655817  1  0.380161  0  -0.066992  0.093358  0  3.932751  0
C  C103  1  0.19090964  0.45714895  0.89786446  1  0.000499  0  -0.24416  -0.393287  0  3.985158  0
C  C104  1  0.73006775  0.44980122  0.85242044  1  0.405249  0  -0.0677  0.091861  0  3.930192  0
C  C105  1  0.80334681  0.47377407  0.90380263  1  -0.014958  0  -0.243876  -0.393613  0  3.984287  0
C  C106  1  0.74352238  0.91311552  0.54859953  1  0.475577  0  -0.070812  0.092656  0  3.970656  0
C  C107  1  0.82129002  0.87613177  0.50617611  1  -0.035281  0  -0.245304  -0.393723  0  3.991629  0
C  C108  1  0.25723553  0.91723511  0.55149972  1  0.436736  0  -0.07091  0.091081  0  3.972645  0
C  C109  1  0.17913330  0.88117315  0.50984412  1  -0.058192  0  -0.245171  -0.393608  0  3.991345  0
N  N110  1  0.55977602  0.42460143  0.03319969  1  -0.623281  0  -0.164481  -0.164627  0  3.207403  0
N  N111  1  0.42334220  0.50803028  0.03214784  1  -0.53262  0  -0.16055  -0.159279  0  3.216199  0
N  N112  1  0.55908795  0.42232563  0.96473714  1  -0.517354  0  -0.155305  -0.148206  0  3.214779  0
N  N113  1  0.42374326  0.50746327  0.96391722  1  -0.564157  0  -0.150497  -0.142208  0  3.218116  0
N  N114  1  0.26859401  0.49980622  0.49736162  1  -1.205055  0  -0.284053  -0.293994  0  3.134117  0
N  N115  1  0.73592648  0.50023889  0.49922131  1  -1.197346  0  -0.284852  -0.295583  0  3.13399  0
O  O116  1  0.42849004  0.37507706  0.48473743  1  -1.144754  0  -0.316996  -0.548763  0  2.247396  0
O  O117  1  0.58041010  0.37446266  0.51195198  1  -1.144204  0  -0.317985  -0.551772  0  2.249763  0
O  O118  1  0.42849329  0.51702656  0.39340466  1  -1.164598  0  -0.318531  -0.552945  0  2.317667  0
O  O119  1  0.58018449  0.48519113  0.39362168  1  -1.16098  0  -0.318608  -0.552311  0  2.307478  0
O  O120  1  0.42344746  0.62776260  0.51217476  1  -1.148467  0  -0.321322  -0.554342  0  2.247481  0
O  O121  1  0.57640818  0.62735500  0.48802153  1  -1.147836  0  -0.320538  -0.553634  0  2.252314  0
O  O122  1  0.42656458  0.48326165  0.60196601  1  -1.158359  0  -0.319321  -0.552338  0  2.31975  0
O  O123  1  0.57835117  0.51287572  0.60460817  1  -1.162675  0  -0.320277  -0.551965  0  2.302011  0
O  O124  1  0.91469806  0.34609282  0.51398734  1  -1.041076  0  -0.218881  -0.24465  0  2.491066  0
O  O125  1  0.09629513  0.34956563  0.50982957  1  -1.030246  0  -0.215278  -0.236411  0  2.502944  0
O  O126  1  0.33972116  0.43263182  0.85047769  1  -1.065846  0  -0.202849  -0.241224  0  2.51149  0
O  O127  1  0.65520881  0.50864591  0.85984760  1  -1.070639  0  -0.205205  -0.242675  0  2.498373  0
O  O128  1  0.66442578  0.91808446  0.50560917  1  -1.048667  0  -0.224873  -0.252809  0  2.466844  0
O  O129  1  0.33556528  0.92247264  0.50744218  1  -1.042803  0  -0.224743  -0.252723  0  2.464839  0
