# generated using pymatgen
data_ZnH10C16NO4
_symmetry_space_group_name_H-M   'P 1'
_cell_length_a   10.84071788
_cell_length_b   10.84072860
_cell_length_c   18.52313578
_cell_angle_alpha   90.00002551
_cell_angle_beta   89.99991809
_cell_angle_gamma   115.95644023
_symmetry_Int_Tables_number   1
_chemical_formula_structural   ZnH10C16NO4
_chemical_formula_sum   'Zn4 H40 C64 N4 O16'
_cell_volume   1957.27610550
_cell_formula_units_Z   4
loop_
 _symmetry_equiv_pos_site_id
 _symmetry_equiv_pos_as_xyz
  1  'x, y, z'
loop_
 _atom_site_type_symbol
 _atom_site_label
 _atom_site_symmetry_multiplicity
 _atom_site_fract_x
 _atom_site_fract_y
 _atom_site_fract_z
 _atom_site_occupancy
 _atom_site_pbe_bader_charge
 _atom_site_pbe_bader_spin_density
 _atom_site_pbe_cm5_charge
 _atom_site_pbe_ddec_charge
 _atom_site_pbe_ddec_spin_density
 _atom_site_pbe_ddec_sum_bond_order
 _atom_site_pbe_magmom
Zn  Zn0  1  0.67050598  0.32949432  0.74999966  1  1.302212  0  0.674744  0.836421  0  2.39254  0
Zn  Zn1  1  0.82949327  0.17050551  0.75000012  1  1.297612  0  0.674713  0.836381  0  2.392746  0
Zn  Zn2  1  0.32949333  0.67050577  0.24999974  1  1.297567  0  0.674679  0.836356  0  2.392877  0
Zn  Zn3  1  0.17050605  0.82949366  0.24999982  1  1.302202  0  0.674746  0.836417  0  2.392447  0
H  H4  1  0.37561724  0.10437238  0.92860936  1  0.063405  0  0.098174  0.095261  0  1.020279  0
H  H5  1  0.12438271  0.39562739  0.92860843  1  0.06339  0  0.098182  0.095285  0  1.020244  0
H  H6  1  0.89562941  0.62438356  0.57139108  1  0.06342  0  0.098195  0.095286  0  1.020222  0
H  H7  1  0.60437004  0.87561572  0.57139070  1  0.063407  0  0.098185  0.095259  0  1.020263  0
H  H8  1  0.62438208  0.89562771  0.07139112  1  0.063398  0  0.09819  0.095292  0  1.020287  0
H  H9  1  0.87561764  0.60437315  0.07139043  1  0.063401  0  0.098176  0.095251  0  1.020299  0
H  H10  1  0.10437095  0.37561422  0.42860832  1  0.063379  0  0.098181  0.095301  0  1.020232  0
H  H11  1  0.39562928  0.12438345  0.42860924  1  0.063401  0  0.09817  0.095266  0  1.020284  0
H  H12  1  0.70637244  0.98970106  0.94761584  1  0.099957  0  0.105018  0.111847  0  0.996924  0
H  H13  1  0.79362705  0.51029853  0.94761628  1  0.099957  0  0.105016  0.111866  0  0.996946  0
H  H14  1  0.01029561  0.29362553  0.55238383  1  0.100373  0  0.105011  0.111842  0  0.996942  0
H  H15  1  0.48970327  0.20637348  0.55238415  1  0.100374  0  0.105017  0.111862  0  0.996925  0
H  H16  1  0.29362688  0.01029811  0.05238410  1  0.099956  0  0.105021  0.111882  0  0.996925  0
H  H17  1  0.20637329  0.48970201  0.05238366  1  0.099954  0  0.105009  0.111842  0  0.996951  0
H  H18  1  0.98970474  0.70637317  0.44761611  1  0.10039  0  0.105041  0.111892  0  0.996899  0
H  H19  1  0.51029606  0.79362569  0.44761525  1  0.100374  0  0.105013  0.111858  0  0.996914  0
H  H20  1  0.41751696  0.30827237  0.82190390  1  0.141687  0  0.119268  0.093776  0  1.014494  0
H  H21  1  0.08248222  0.19172975  0.82190402  1  0.141486  0  0.119255  0.093773  0  1.014434  0
H  H22  1  0.69172770  0.58248343  0.67809502  1  0.141498  0  0.119288  0.093781  0  1.014453  0
H  H23  1  0.80827146  0.91751765  0.67809501  1  0.141528  0  0.119304  0.09381  0  1.01443  0
H  H24  1  0.58248132  0.69172910  0.17809712  1  0.141388  0  0.119258  0.093784  0  1.014453  0
H  H25  1  0.91751606  0.80827265  0.17809646  1  0.141701  0  0.119292  0.093805  0  1.01447  0
H  H26  1  0.30826853  0.41751806  0.32190492  1  0.141451  0  0.119285  0.093811  0  1.014417  0
H  H27  1  0.19172683  0.08248290  0.32190493  1  0.141519  0  0.119289  0.09382  0  1.014438  0
H  H28  1  0.27300238  0.43732328  0.82400945  1  0.081316  0  0.11041  0.116546  0  1.01873  0
H  H29  1  0.22699679  0.06267884  0.82400888  1  0.081339  0  0.110392  0.116515  0  1.018804  0
H  H30  1  0.56267819  0.72699908  0.67599123  1  0.081299  0  0.110394  0.116524  0  1.018753  0
H  H31  1  0.93732199  0.77300337  0.67599108  1  0.081323  0  0.110394  0.116519  0  1.018777  0
H  H32  1  0.72699590  0.56267820  0.17599103  1  0.081368  0  0.110407  0.116546  0  1.01877  0
H  H33  1  0.77300252  0.93732309  0.17599052  1  0.081308  0  0.110399  0.116524  0  1.01874  0
H  H34  1  0.43732008  0.27300332  0.32400925  1  0.081366  0  0.110392  0.116503  0  1.018796  0
H  H35  1  0.06267731  0.22699855  0.32400886  1  0.081318  0  0.110402  0.116537  0  1.018725  0
H  H36  1  0.12859032  0.49498715  0.74998696  1  0.101707  0  0.102748  0.112634  0  1.02702  0
H  H37  1  0.37140906  0.00501408  0.74998625  1  0.10168  0  0.102739  0.112634  0  1.027029  0
H  H38  1  0.50501537  0.87141189  0.75001384  1  0.101687  0  0.102732  0.112653  0  1.027002  0
H  H39  1  0.99498565  0.62859007  0.75001468  1  0.1017  0  0.102753  0.112671  0  1.026987  0
H  H40  1  0.87140797  0.50501341  0.25001406  1  0.10169  0  0.102746  0.112631  0  1.027023  0
H  H41  1  0.62859128  0.99498646  0.25001369  1  0.10171  0  0.102746  0.112663  0  1.02701  0
H  H42  1  0.49498600  0.12858911  0.24998556  1  0.101675  0  0.102731  0.11262  0  1.02703  0
H  H43  1  0.00501366  0.37141094  0.24998580  1  0.101704  0  0.102732  0.112635  0  1.02703  0
C  C44  1  0.59880564  0.11132068  0.85786693  1  1.572563  0  0.215375  0.589076  0  4.176439  0
C  C45  1  0.90119435  0.38868141  0.85786630  1  1.572247  0  0.215306  0.588916  0  4.176493  0
C  C46  1  0.88867897  0.40119442  0.64213286  1  1.572515  0  0.215405  0.589082  0  4.17649  0
C  C47  1  0.61131953  0.09880500  0.64213347  1  1.572332  0  0.215327  0.588934  0  4.17646  0
C  C48  1  0.40119470  0.88868078  0.14213355  1  1.572243  0  0.215281  0.588888  0  4.176486  0
C  C49  1  0.09880393  0.61132007  0.14213256  1  1.572552  0  0.21539  0.589077  0  4.176452  0
C  C50  1  0.11131932  0.59880429  0.35786600  1  1.572534  0  0.215247  0.588861  0  4.176514  0
C  C51  1  0.38867978  0.90119601  0.35786647  1  1.572566  0  0.215387  0.589078  0  4.17656  0
C  C52  1  0.54540893  0.05163270  0.93063864  1  -0.010018  0  -0.014236  -0.025549  0  3.959123  0
C  C53  1  0.95459192  0.44836521  0.93063798  1  -0.009989  0  -0.01423  -0.025502  0  3.959144  0
C  C54  1  0.94836557  0.45459073  0.56936114  1  -0.009991  0  -0.014235  -0.025565  0  3.95906  0
C  C55  1  0.55163518  0.04540963  0.56936125  1  -0.00999  0  -0.014278  -0.025606  0  3.959156  0
C  C56  1  0.45459143  0.94836416  0.06936184  1  -0.009988  0  -0.014239  -0.02551  0  3.959055  0
C  C57  1  0.04540946  0.55163394  0.06936142  1  -0.009983  0  -0.014268  -0.025591  0  3.959138  0
C  C58  1  0.05163685  0.54540704  0.43063772  1  -0.009989  0  -0.01423  -0.02548  0  3.959088  0
C  C59  1  0.44836825  0.95459043  0.43063815  1  -0.009967  0  -0.014246  -0.025577  0  3.959184  0
C  C60  1  0.42939780  0.05818158  0.96015745  1  -0.058978  0  -0.08562  -0.095449  0  3.990248  0
C  C61  1  0.07060309  0.44181863  0.96015711  1  -0.059011  0  -0.085624  -0.095514  0  3.990358  0
C  C62  1  0.94182023  0.57060278  0.53984186  1  -0.059014  0  -0.08564  -0.09548  0  3.99025  0
C  C63  1  0.55818135  0.92939650  0.53984207  1  -0.059047  0  -0.085614  -0.095422  0  3.990255  0
C  C64  1  0.57060358  0.94181757  0.03984195  1  -0.059021  0  -0.08564  -0.095494  0  3.99036  0
C  C65  1  0.92939828  0.55818236  0.03984283  1  -0.059027  0  -0.085618  -0.09543  0  3.990301  0
C  C66  1  0.05818115  0.42939545  0.46015808  1  -0.059024  0  -0.085637  -0.095543  0  3.99036  0
C  C67  1  0.44182001  0.07060450  0.46015679  1  -0.058987  0  -0.08561  -0.095461  0  3.990302  0
C  C68  1  0.61579323  0.99310916  0.97108653  1  -0.027601  0  -0.084126  -0.091472  0  3.968825  0
C  C69  1  0.88420620  0.50688950  0.97108635  1  -0.027559  0  -0.084114  -0.091511  0  3.968688  0
C  C70  1  0.00688944  0.38420494  0.52891265  1  -0.028026  0  -0.084109  -0.09144  0  3.968761  0
C  C71  1  0.49311258  0.11579451  0.52891349  1  -0.028001  0  -0.084098  -0.091435  0  3.968757  0
C  C72  1  0.38420610  0.00688817  0.02891395  1  -0.027563  0  -0.084119  -0.091535  0  3.968681  0
C  C73  1  0.11579517  0.49311057  0.02891305  1  -0.02758  0  -0.084107  -0.091431  0  3.968748  0
C  C74  1  0.99311297  0.61579374  0.47108621  1  -0.027983  0  -0.084147  -0.091536  0  3.968725  0
C  C75  1  0.50688982  0.88420694  0.47108645  1  -0.028019  0  -0.084123  -0.09149  0  3.96882  0
C  C76  1  0.44381832  0.40072062  0.78986991  1  0.476902  0  0.050155  0.09586  0  3.937898  0
C  C77  1  0.05617993  0.09927922  0.78986949  1  0.477028  0  0.050187  0.095858  0  3.938003  0
C  C78  1  0.59927829  0.55618131  0.71013012  1  0.477029  0  0.050131  0.095819  0  3.938017  0
C  C79  1  0.90072078  0.94381975  0.71013005  1  0.477079  0  0.05012  0.095788  0  3.938012  0
C  C80  1  0.55617895  0.59927856  0.21013057  1  0.477203  0  0.050149  0.09582  0  3.938001  0
C  C81  1  0.94381937  0.90072271  0.21013045  1  0.476856  0  0.050137  0.095835  0  3.938018  0
C  C82  1  0.40071897  0.44381971  0.28986982  1  0.477033  0  0.050136  0.09578  0  3.938019  0
C  C83  1  0.09927647  0.05618127  0.28986989  1  0.477131  0  0.050124  0.095783  0  3.938077  0
C  C84  1  0.36507280  0.47282827  0.79074075  1  0.015841  0  -0.079269  -0.176732  0  3.938482  0
C  C85  1  0.13492646  0.02717478  0.79074133  1  0.015777  0  -0.079259  -0.176715  0  3.938565  0
C  C86  1  0.52717324  0.63492728  0.70925936  1  0.015802  0  -0.079244  -0.176675  0  3.938454  0
C  C87  1  0.97282583  0.86507471  0.70925974  1  0.015798  0  -0.079253  -0.176694  0  3.938577  0
C  C88  1  0.63492239  0.52717461  0.20926027  1  0.015818  0  -0.079252  -0.176712  0  3.938665  0
C  C89  1  0.86507387  0.97282852  0.20925915  1  0.015807  0  -0.079262  -0.176704  0  3.938461  0
C  C90  1  0.47282299  0.36507237  0.29074058  1  0.015729  0  -0.079236  -0.176645  0  3.938587  0
C  C91  1  0.02717348  0.13492814  0.29074020  1  0.015757  0  -0.079246  -0.176697  0  3.938496  0
C  C92  1  0.40629921  0.59370212  0.75000089  1  -0.158869  0  0.024063  0.131983  0  3.972704  0
C  C93  1  0.09369989  0.90629849  0.74999998  1  -0.158821  0  0.024062  0.13196  0  3.97266  0
C  C94  1  0.59369908  0.40629844  0.25000013  1  -0.158841  0  0.024032  0.131916  0  3.972764  0
C  C95  1  0.90629942  0.09370252  0.24999996  1  -0.15886  0  0.024058  0.131972  0  3.972696  0
C  C96  1  0.32634772  0.67365473  0.75000039  1  0.004647  0  -0.007781  0.054358  0  4.001007  0
C  C97  1  0.17365446  0.82634723  0.75000102  1  0.004631  0  -0.007717  0.054528  0  4.001008  0
C  C98  1  0.67365159  0.32634628  0.25000009  1  0.004636  0  -0.00778  0.054389  0  4.00103  0
C  C99  1  0.82634588  0.17365423  0.24999946  1  0.004628  0  -0.007731  0.054464  0  4.001016  0
C  C100  1  0.18226911  0.60667414  0.75035999  1  0.023942  0  -0.084578  -0.113105  0  3.946452  0
C  C101  1  0.31772999  0.89332554  0.75035890  1  0.024021  0  -0.084597  -0.113176  0  3.946535  0
C  C102  1  0.39332526  0.81773215  0.74964137  1  -0.099004  0  -0.08461  -0.113272  0  3.946562  0
C  C103  1  0.10667486  0.68226983  0.74964201  1  -0.099896  0  -0.084631  -0.113314  0  3.946543  0
C  C104  1  0.81772918  0.39332457  0.24964103  1  0.024016  0  -0.084575  -0.113107  0  3.946476  0
C  C105  1  0.68227035  0.10667500  0.24964104  1  -0.098975  0  -0.084629  -0.113275  0  3.946505  0
C  C106  1  0.60667302  0.18226933  0.25035857  1  0.024003  0  -0.084572  -0.113139  0  3.946392  0
C  C107  1  0.89332548  0.31773163  0.25035847  1  -0.09997  0  -0.084604  -0.113257  0  3.946518  0
N  N108  1  0.55901314  0.44098830  0.74999918  1  -1.266733  0  -0.327309  -0.213058  0  3.524092  0
N  N109  1  0.94098609  0.05901429  0.75000005  1  -1.266786  0  -0.327341  -0.21304  0  3.524106  0
N  N110  1  0.44098411  0.55901364  0.25000022  1  -1.266806  0  -0.327314  -0.213003  0  3.524033  0
N  N111  1  0.05901218  0.94098811  0.25000043  1  -1.266745  0  -0.327298  -0.213053  0  3.524185  0
O  O112  1  0.54905372  0.18557027  0.82797353  1  -1.184266  0  -0.317669  -0.563203  0  2.327992  0
O  O113  1  0.95094947  0.31442583  0.82797068  1  -1.183954  0  -0.317679  -0.5632  0  2.327743  0
O  O114  1  0.81443166  0.45095034  0.67202686  1  -1.184202  0  -0.317707  -0.563248  0  2.327978  0
O  O115  1  0.68557088  0.04904904  0.67202848  1  -1.184021  0  -0.317676  -0.563178  0  2.327837  0
O  O116  1  0.45095077  0.81442380  0.17202965  1  -1.183993  0  -0.317691  -0.563222  0  2.327714  0
O  O117  1  0.04905090  0.68556919  0.17202656  1  -1.184254  0  -0.317692  -0.563242  0  2.328016  0
O  O118  1  0.18557591  0.54904417  0.32796768  1  -1.183713  0  -0.317716  -0.563254  0  2.327643  0
O  O119  1  0.31443256  0.95094826  0.32797308  1  -1.184244  0  -0.317741  -0.563252  0  2.328089  0
O  O120  1  0.69353979  0.08492675  0.83180812  1  -1.174202  0  -0.317479  -0.554256  0  2.363586  0
O  O121  1  0.80646542  0.41507209  0.83180866  1  -1.174171  0  -0.3174  -0.554106  0  2.363778  0
O  O122  1  0.91507090  0.30646086  0.66819106  1  -1.17419  0  -0.317469  -0.554196  0  2.36359  0
O  O123  1  0.58492755  0.19353579  0.66819064  1  -1.174165  0  -0.317439  -0.554158  0  2.36367  0
O  O124  1  0.30646878  0.91507282  0.16819020  1  -1.174133  0  -0.317376  -0.554066  0  2.363826  0
O  O125  1  0.19354007  0.58492703  0.16819236  1  -1.174174  0  -0.317468  -0.55422  0  2.363526  0
O  O126  1  0.08493052  0.69352909  0.33181050  1  -1.174683  0  -0.317313  -0.554029  0  2.363972  0
O  O127  1  0.41507283  0.80645739  0.33180768  1  -1.174218  0  -0.317398  -0.554184  0  2.363531  0
