# generated using pymatgen
data_ZnH20C23N2O5
_symmetry_space_group_name_H-M   'P 1'
_cell_length_a   9.56412689
_cell_length_b   11.45285118
_cell_length_c   11.56260000
_cell_angle_alpha   100.50350382
_cell_angle_beta   100.80877210
_cell_angle_gamma   113.63033537
_symmetry_Int_Tables_number   1
_chemical_formula_structural   ZnH20C23N2O5
_chemical_formula_sum   'Zn2 H40 C46 N4 O10'
_cell_volume   1092.10040677
_cell_formula_units_Z   2
loop_
 _symmetry_equiv_pos_site_id
 _symmetry_equiv_pos_as_xyz
  1  'x, y, z'
loop_
 _atom_site_type_symbol
 _atom_site_label
 _atom_site_symmetry_multiplicity
 _atom_site_fract_x
 _atom_site_fract_y
 _atom_site_fract_z
 _atom_site_occupancy
 _atom_site_hle17_bader_spin_density
 _atom_site_hle17_ddec_charge
 _atom_site_hle17_ddec_spin_density
 _atom_site_hle17_ddec_sum_bond_order
 _atom_site_hle17_magmom
 _atom_site_hse06_10hf_bader_spin_density
 _atom_site_hse06_10hf_ddec_charge
 _atom_site_hse06_10hf_ddec_spin_density
 _atom_site_hse06_10hf_ddec_sum_bond_order
 _atom_site_hse06_10hf_magmom
 _atom_site_hse06_bader_spin_density
 _atom_site_hse06_ddec_charge
 _atom_site_hse06_ddec_spin_density
 _atom_site_hse06_ddec_sum_bond_order
 _atom_site_hse06_magmom
 _atom_site_pbe_bader_charge
 _atom_site_pbe_bader_spin_density
 _atom_site_pbe_cm5_charge
 _atom_site_pbe_ddec_charge
 _atom_site_pbe_ddec_spin_density
 _atom_site_pbe_ddec_sum_bond_order
 _atom_site_pbe_magmom
Zn  Zn0  1  0.18648632  0.87997815  0.11873457  1  0  0.988049  0  1.869402  0  0  0.7921  0  2.348428  0  0  0.840257  0  2.292887  0  1.249933  0  0.694527  0.756524  0  2.388389  0
Zn  Zn1  1  0.81351429  0.12002369  0.88126516  1  0  0.988093  0  1.869318  0  0  0.792125  0  2.348339  0  0  0.840282  0  2.292796  0  1.249862  0  0.694529  0.756551  0  2.388295  0
H  H2  1  0.50774178  0.10647278  0.26069901  1  0  0.103987  0  0.953083  0  0  0.111051  0  1.014952  0  0  0.114563  0  1.011396  0  0.171592  0  0.121598  0.108386  0  1.017645  0
H  H3  1  0.49225829  0.89352608  0.73929924  1  0  0.103969  0  0.9531  0  0  0.11103  0  1.014973  0  0  0.114541  0  1.011417  0  0.171632  0  0.121585  0.108364  0  1.017665  0
H  H4  1  0.73028704  0.88707488  0.07564435  1  0  0.109963  0  0.94547  0  0  0.118538  0  1.010742  0  0  0.122915  0  1.006747  0  0.088952  0  0.10445  0.115179  0  1.013964  0
H  H5  1  0.26971251  0.11292498  0.92435399  1  0  0.109961  0  0.94545  0  0  0.118536  0  1.010727  0  0  0.122914  0  1.006732  0  0.088984  0  0.104455  0.115178  0  1.013949  0
H  H6  1  0.04133490  0.04693189  0.20252382  1  0  0.103589  0  0.934336  0  0  0.113795  0  0.990334  0  0  0.116849  0  0.987488  0  0.152178  0  0.12783  0.111243  0  0.993009  0
H  H7  1  0.95866571  0.95306996  0.79747505  1  0  0.103618  0  0.93428  0  0  0.113817  0  0.990287  0  0  0.116871  0  0.987441  0  0.152164  0  0.127836  0.111264  0  0.992964  0
H  H8  1  0.62707589  0.50723043  0.84396305  1  0  0.10804  0  0.973726  0  0  0.114543  0  1.044034  0  0  0.118591  0  1.041267  0  0.090767  0  0.101961  0.111204  0  1.04674  0
H  H9  1  0.37292578  0.49276942  0.15603563  1  0  0.108031  0  0.973762  0  0  0.11453  0  1.044072  0  0  0.118578  0  1.041304  0  0.090616  0  0.101965  0.111193  0  1.046776  0
H  H10  1  0.24333737  0.60766776  0.87986319  1  0  0.116628  0  0.96041  0  0  0.1246  0  1.02708  0  0  0.128274  0  1.024673  0  0.088314  0  0.103516  0.121899  0  1.028896  0
H  H11  1  0.75665950  0.39232911  0.12013507  1  0  0.116606  0  0.960378  0  0  0.124566  0  1.027069  0  0  0.12824  0  1.024661  0  0.088342  0  0.103502  0.121866  0  1.028885  0
H  H12  1  0.12484277  0.27258889  0.34331790  1  0  0.102268  0  0.94593  0  0  0.11486  0  1.002539  0  0  0.11776  0  1.002146  0  0.072708  0  0.110041  0.112841  0  1.002923  0
H  H13  1  0.87515944  0.72741196  0.65668450  1  0  0.102241  0  0.945921  0  0  0.114847  0  1.002523  0  0  0.117747  0  1.002131  0  0.072677  0  0.110037  0.112829  0  1.002906  0
H  H14  1  0.61340750  0.33523901  0.40353962  1  0  0.101658  0  0.959246  0  0  0.112639  0  1.018517  0  0  0.115047  0  1.019247  0  0.063028  0  0.106289  0.110906  0  1.018117  0
H  H15  1  0.38659151  0.66475985  0.59645932  1  0  0.101707  0  0.959237  0  0  0.112673  0  1.018521  0  0  0.115082  0  1.019251  0  0.06303  0  0.106303  0.110939  0  1.018123  0
H  H16  1  0.32580395  0.47655885  0.48055943  1  0  0.090237  0  0.953169  0  0  0.101844  0  1.015212  0  0  0.104104  0  1.014793  0  0.077189  0  0.104802  0.100624  0  1.014675  0
H  H17  1  0.67419932  0.52344200  0.51944141  1  0  0.090224  0  0.953171  0  0  0.101815  0  1.015235  0  0  0.104077  0  1.014813  0  0.077172  0  0.10479  0.100578  0  1.014714  0
H  H18  1  0.02975299  0.43568031  0.20970109  1  0  0.129295  0  0.950849  0  0  0.137147  0  1.012067  0  0  0.141107  0  1.010033  0  0.143755  0  0.11445  0.134233  0  1.013859  0
H  H19  1  0.97024710  0.56432253  0.79029875  1  0  0.129271  0  0.950812  0  0  0.13717  0  1.011975  0  0  0.14113  0  1.009939  0  0.144048  0  0.114445  0.134256  0  1.013768  0
H  H20  1  0.23599653  0.91480731  0.39555526  1  0  0.070852  0  0.963242  0  0  0.07898  0  1.029596  0  0  0.080936  0  1.028652  0  0.060161  0  0.115299  0.07775  0  1.029797  0
H  H21  1  0.76399982  0.08519254  0.60444432  1  0  0.070866  0  0.963235  0  0  0.078989  0  1.029598  0  0  0.080945  0  1.028654  0  0.06037  0  0.115299  0.07776  0  1.029798  0
H  H22  1  0.95804439  0.38380608  0.38718356  1  0  0.092198  0  0.944031  0  0  0.107069  0  0.999695  0  0  0.109919  0  0.997911  0  0.070534  0  0.107315  0.104939  0  1.000997  0
H  H23  1  0.04195729  0.61619577  0.61281721  1  0  0.092172  0  0.944032  0  0  0.107068  0  0.999672  0  0  0.109917  0  0.997887  0  0.070489  0  0.107313  0.104938  0  1.000973  0
H  H24  1  0.11881233  0.59808345  0.09412162  1  0  0.104586  0  0.924682  0  0  0.112183  0  0.986089  0  0  0.114998  0  0.983168  0  0.158785  0  0.128762  0.109866  0  0.988678  0
H  H25  1  0.88118510  0.40192039  0.90587798  1  0  0.104587  0  0.92468  0  0  0.11218  0  0.986086  0  0  0.114996  0  0.983165  0  0.158778  0  0.128766  0.109863  0  0.988676  0
H  H26  1  0.41649950  0.30791139  0.80684473  1  0  0.054025  0  0.948482  0  0  0.070119  0  1.01002  0  0  0.069166  0  1.012011  0  0.08098  0  0.099963  0.070759  0  1.008715  0
H  H27  1  0.58350003  0.69208648  0.19315412  1  0  0.054009  0  0.948514  0  0  0.070114  0  1.010037  0  0  0.069161  0  1.012029  0  0.080984  0  0.099964  0.070753  0  1.008732  0
H  H28  1  0.42868479  0.35695589  0.66944056  1  0  0.030805  0  0.948104  0  0  0.045625  0  1.014197  0  0  0.045214  0  1.014942  0  0.020255  0  0.087057  0.046317  0  1.013028  0
H  H29  1  0.57131475  0.64304397  0.33055778  1  0  0.030811  0  0.948095  0  0  0.045626  0  1.014194  0  0  0.045216  0  1.014938  0  0.020276  0  0.087064  0.046317  0  1.013024  0
H  H30  1  0.15190127  0.76720734  0.52592980  1  0  0.103097  0  0.948748  0  0  0.117325  0  1.002019  0  0  0.120194  0  1.001401  0  0.10211  0  0.110402  0.1151  0  1.00286  0
H  H31  1  0.84809935  0.23279451  0.47407080  1  0  0.103089  0  0.948724  0  0  0.117329  0  1.001985  0  0  0.12021  0  1.00135  0  0.10214  0  0.110402  0.11509  0  1.002843  0
H  H32  1  0.13070285  0.21859906  0.58227975  1  0  0.047387  0  0.952896  0  0  0.062369  0  1.022022  0  0  0.06274  0  1.023133  0  0.006585  0  0.078994  0.061933  0  1.021568  0
H  H33  1  0.86929722  0.78139980  0.41771936  1  0  0.047387  0  0.95291  0  0  0.062362  0  1.02203  0  0  0.062754  0  1.02312  0  0.006592  0  0.078989  0.061931  0  1.021575  0
H  H34  1  0.12604990  0.16761503  0.71765932  1  0  0.072342  0  0.933416  0  0  0.089499  0  0.994908  0  0  0.089856  0  0.996049  0  0.014355  0  0.091218  0.089169  0  0.994089  0
H  H35  1  0.87394963  0.83238284  0.28233953  1  0  0.072364  0  0.93339  0  0  0.089506  0  0.994885  0  0  0.089842  0  0.996054  0  0.014363  0  0.091206  0.089184  0  0.99406  0
H  H36  1  0.31062882  0.11504753  0.53833338  1  0  0.077616  0  0.974483  0  0  0.095874  0  1.042209  0  0  0.09662  0  1.043766  0  -0.010888  0  0.074201  0.095411  0  1.040816  0
H  H37  1  0.68936965  0.88495034  0.46166617  1  0  0.077619  0  0.97449  0  0  0.095883  0  1.042211  0  0  0.096628  0  1.043769  0  -0.010896  0  0.0742  0.095419  0  1.040819  0
H  H38  1  0.13024884  0.99512714  0.55139612  1  0  0.084116  0  0.971052  0  0  0.105749  0  1.033991  0  0  0.106306  0  1.035377  0  0.005551  0  0.079287  0.105107  0  1.033414  0
H  H39  1  0.86975283  0.00487272  0.44860429  1  0  0.084135  0  0.971033  0  0  0.105774  0  1.033967  0  0  0.10633  0  1.035353  0  0.005524  0  0.079293  0.105133  0  1.033388  0
H  H40  1  0.30959507  0.06539830  0.67552121  1  0  0.118111  0  0.966948  0  0  0.137425  0  1.028152  0  0  0.139705  0  1.026991  0  0.065662  0  0.086711  0.135679  0  1.028969  0
H  H41  1  0.69040500  0.93460056  0.32447791  1  0  0.118143  0  0.966928  0  0  0.137464  0  1.028122  0  0  0.139744  0  1.026959  0  0.065668  0  0.086729  0.135716  0  1.02894  0
C  C42  1  0.42499330  0.84706366  0.04946223  1  0  0.639962  0  3.91847  0  0  0.593741  0  4.206169  0  0  0.626907  0  4.200425  0  1.566901  0  0.199168  0.571267  0  4.209128  0
C  C43  1  0.57500303  0.15293221  0.95053750  1  0  0.639932  0  3.918662  0  0  0.593745  0  4.20631  0  0  0.626912  0  4.200562  0  1.566746  0  0.199177  0.57127  0  4.209268  0
C  C44  1  0.42924667  0.14883929  0.28438624  1  0  0.124499  0  3.693326  0  0  0.091554  0  3.944831  0  0  0.098522  0  3.963176  0  0.443292  0  0.051542  0.087098  0  3.932504  0
C  C45  1  0.57075340  0.85115957  0.71561374  1  0  0.1246  0  3.693272  0  0  0.091653  0  3.944768  0  0  0.098622  0  3.963115  0  0.443311  0  0.05159  0.087198  0  3.932438  0
C  C46  1  0.07520823  0.58512533  0.37852727  1  0  0.131442  0  3.812649  0  0  0.142412  0  4.05234  0  0  0.147944  0  4.074752  0  0.027169  0  0.00713  0.138999  0  4.037056  0
C  C47  1  0.92479292  0.41487751  0.62147360  1  0  0.131389  0  3.812622  0  0  0.142362  0  4.052335  0  0  0.147894  0  4.07475  0  0.027232  0  0.00716  0.138951  0  4.037046  0
C  C48  1  0.64408941  0.79140086  0.01126949  1  0  -0.101891  0  3.723431  0  0  -0.143239  0  3.981102  0  0  -0.141951  0  3.999255  0  -0.009396  0  -0.092294  -0.14368  0  3.969131  0
C  C49  1  0.35591013  0.20859900  0.98873058  1  0  -0.10186  0  3.723389  0  0  -0.143226  0  3.981072  0  0  -0.141935  0  3.999227  0  -0.009388  0  -0.092318  -0.143667  0  3.9691  0
C  C50  1  0.86652309  0.73053412  0.99435669  1  0  0.635579  0  3.929052  0  0  0.588821  0  4.217211  0  0  0.622798  0  4.209979  0  1.577207  0  0.197026  0.566103  0  4.220083  0
C  C51  1  0.13347698  0.26946474  0.00564156  1  0  0.635653  0  3.928884  0  0  0.588902  0  4.217027  0  0  0.62288  0  4.209795  0  1.57755  0  0.197058  0.566184  0  4.2199  0
C  C52  1  0.42020330  0.54329493  0.84852982  1  0  0.265399  0  3.834936  0  0  0.260109  0  4.098506  0  0  0.269392  0  4.114836  0  0.475575  0  0.077422  0.253245  0  4.087893  0
C  C53  1  0.57979891  0.45670592  0.15146912  1  0  0.265372  0  3.834915  0  0  0.260095  0  4.098485  0  0  0.269372  0  4.114818  0  0.475496  0  0.077436  0.253233  0  4.087872  0
C  C54  1  0.48131871  0.75757529  0.98242797  1  0  -0.046214  0  3.785479  0  0  -0.019461  0  4.019689  0  0  -0.026504  0  4.042538  0  -0.050521  0  -0.021789  -0.015375  0  4.00495  0
C  C55  1  0.51867816  0.24242159  0.01757288  1  0  -0.046317  0  3.785477  0  0  -0.019557  0  4.019663  0  0  -0.026604  0  4.042519  0  -0.050355  0  -0.021812  -0.015471  0  4.004925  0
C  C56  1  0.16612663  0.11432045  0.25140969  1  0  0.140013  0  3.673059  0  0  0.107707  0  3.920359  0  0  0.115617  0  3.938204  0  0.460141  0  0.057063  0.102484  0  3.908761  0
C  C57  1  0.83387399  0.88568139  0.74859091  1  0  0.140001  0  3.673066  0  0  0.107699  0  3.920377  0  0  0.115609  0  3.938223  0  0.459961  0  0.057061  0.102476  0  3.908778  0
C  C58  1  0.58238846  0.57577576  0.87920849  1  0  -0.203618  0  3.739245  0  0  -0.237732  0  3.992883  0  0  -0.240673  0  4.012639  0  -0.017669  0  -0.105463  -0.235842  0  3.980297  0
C  C59  1  0.41761054  0.42422310  0.12079046  1  0  -0.203583  0  3.739237  0  0  -0.237696  0  3.992875  0  0  -0.240633  0  4.012632  0  -0.017407  0  -0.10546  -0.235809  0  3.980287  0
C  C60  1  0.69387750  0.70026537  0.96001075  1  0  -0.04317  0  3.786757  0  0  -0.01771  0  4.021473  0  0  -0.02419  0  4.044234  0  -0.051258  0  -0.023195  -0.013148  0  4.005329  0
C  C61  1  0.30612098  0.29973449  0.03998743  1  0  -0.043187  0  3.786762  0  0  -0.017725  0  4.021488  0  0  -0.024209  0  4.04425  0  -0.051308  0  -0.02319  -0.013161  0  4.005339  0
C  C62  1  0.37690127  0.32352916  0.38806560  1  0  0.136849  0  3.800652  0  0  0.150091  0  4.033888  0  0  0.156088  0  4.05576  0  -0.041199  0  0.013067  0.14619  0  4.019427  0
C  C63  1  0.62310254  0.67647269  0.61193637  1  0  0.136764  0  3.800614  0  0  0.149931  0  4.033958  0  0  0.155995  0  4.055742  0  -0.041224  0  0.012993  0.146002  0  4.019531  0
C  C64  1  0.36991225  0.63453984  0.90032532  1  0  -0.174601  0  3.692922  0  0  -0.210348  0  3.94559  0  0  -0.211484  0  3.962161  0  -0.005134  0  -0.096954  -0.209019  0  3.93486  0
C  C65  1  0.63008515  0.36545803  0.09967493  1  0  -0.174504  0  3.692843  0  0  -0.210243  0  3.945507  0  0  -0.211379  0  3.962082  0  -0.005093  0  -0.096935  -0.208915  0  3.934776  0
C  C66  1  0.21405350  0.23944464  0.32922744  1  0  -0.150381  0  3.685453  0  0  -0.16645  0  3.929304  0  0  -0.175344  0  3.951268  0  -0.020494  0  -0.074151  -0.160928  0  3.91508  0
C  C67  1  0.78595031  0.76055721  0.67077453  1  0  -0.150249  0  3.685283  0  0  -0.166313  0  3.929172  0  0  -0.175228  0  3.951113  0  -0.020471  0  -0.07406  -0.160781  0  3.914955  0
C  C68  1  0.48530430  0.27504663  0.36300091  1  0  -0.149538  0  3.691713  0  0  -0.166318  0  3.936577  0  0  -0.174772  0  3.959064  0  0.022655  0  -0.074492  -0.161144  0  3.921968  0
C  C69  1  0.51469523  0.72495123  0.63699794  1  0  -0.149666  0  3.691678  0  0  -0.166402  0  3.936561  0  0  -0.174878  0  3.959026  0  0.022645  0  -0.074532  -0.16122  0  3.921962  0
C  C70  1  0.42424354  0.45413379  0.46958351  1  0  -0.085182  0  3.696031  0  0  -0.106008  0  3.947281  0  0  -0.107444  0  3.964291  0  -0.103769  0  -0.070656  -0.105371  0  3.93586  0
C  C71  1  0.57576081  0.54586905  0.53041872  1  0  -0.084927  0  3.695972  0  0  -0.10571  0  3.94721  0  0  -0.107168  0  3.9642  0  0.031541  0  -0.070548  -0.105052  0  3.935808  0
C  C72  1  0.07354266  0.54076458  0.25642722  1  0  -0.149748  0  3.64136  0  0  -0.167801  0  3.888499  0  0  -0.175967  0  3.907684  0  -0.030565  0  -0.072481  -0.163253  0  3.876781  0
C  C73  1  0.92645530  0.45923826  0.74357315  1  0  -0.149715  0  3.641225  0  0  -0.167833  0  3.888385  0  0  -0.175995  0  3.907563  0  -0.030751  0  -0.072504  -0.163285  0  3.876669  0
C  C74  1  0.18914978  0.80763332  0.35827025  1  0  0.124765  0  3.733233  0  0  0.094954  0  3.982953  0  0  0.102037  0  4.001818  0  0.502003  0  0.047208  0.090834  0  3.968582  0
C  C75  1  0.81085083  0.19236654  0.64172826  1  0  0.124682  0  3.733231  0  0  0.094848  0  3.982934  0  0  0.101928  0  4.001804  0  0.501817  0  0.047183  0.090731  0  3.96856  0
C  C76  1  0.00623585  0.48716465  0.44219546  1  0  -0.102125  0  3.724225  0  0  -0.124473  0  3.98237  0  0  -0.126209  0  4.000629  0  -0.092111  0  -0.078712  -0.123056  0  3.968484  0
C  C77  1  0.99376637  0.51283819  0.55780557  1  0  -0.102077  0  3.724218  0  0  -0.124443  0  3.982362  0  0  -0.126179  0  4.000621  0  -0.001904  0  -0.078713  -0.123028  0  3.968476  0
C  C78  1  0.12445575  0.63149625  0.18998599  1  0  0.167322  0  3.63747  0  0  0.13486  0  3.884951  0  0  0.14386  0  3.900654  0  0.455247  0  0.064826  0.12877  0  3.875068  0
C  C79  1  0.87554379  0.36850361  0.81001409  1  0  0.167361  0  3.637481  0  0  0.13489  0  3.884959  0  0  0.143889  0  3.900663  0  0.45537  0  0.064875  0.128803  0  3.875075  0
C  C80  1  0.34987344  0.32393895  0.72770625  1  0  0.097092  0  3.623874  0  0  0.041218  0  3.888353  0  0  0.049114  0  3.894776  0  0.403747  0  -0.073714  0.035868  0  3.883378  0
C  C81  1  0.65012610  0.67606091  0.27229382  1  0  0.09711  0  3.623856  0  0  0.041239  0  3.88833  0  0  0.049131  0  3.894752  0  0.403711  0  -0.073714  0.03589  0  3.883354  0
C  C82  1  0.14113204  0.72375867  0.43068239  1  0  -0.166883  0  3.716185  0  0  -0.184276  0  3.962109  0  0  -0.19222  0  3.983517  0  -0.079306  0  -0.081796  -0.178856  0  3.947405  0
C  C83  1  0.85886965  0.27624517  0.56931701  1  0  -0.1668  0  3.71611  0  0  -0.184199  0  3.962032  0  0  -0.192153  0  3.983437  0  -0.079321  0  -0.081784  -0.178769  0  3.947332  0
C  C84  1  0.20000657  0.19749389  0.65587722  1  0  -0.093123  0  3.728935  0  0  -0.129706  0  3.994702  0  0  -0.130833  0  4.009173  0  0.022431  0  -0.173906  -0.128868  0  3.984861  0
C  C85  1  0.79999244  0.80250696  0.34412296  1  0  -0.093158  0  3.728964  0  0  -0.129704  0  3.994696  0  0  -0.130834  0  4.009168  0  0.022218  0  -0.173888  -0.128878  0  3.984856  0
C  C86  1  0.23989592  0.08661885  0.60247480  1  0  -0.298403  0  3.721578  0  0  -0.365704  0  3.959683  0  0  -0.369251  0  3.97152  0  -0.057129  0  -0.252608  -0.363012  0  3.951602  0
C  C87  1  0.76010415  0.91338200  0.39752641  1  0  -0.298445  0  3.721588  0  0  -0.36577  0  3.959683  0  0  -0.369314  0  3.971518  0  -0.056911  0  -0.252628  -0.363077  0  3.951606  0
N  N88  1  0.27195777  0.06912022  0.23016508  1  0  -0.326786  0  3.297365  0  0  -0.240789  0  3.579581  0  0  -0.260714  0  3.594079  0  -1.236611  0  -0.325916  -0.227389  0  3.569512  0
N  N89  1  0.72804177  0.93087963  0.76983413  1  0  -0.326872  0  3.297437  0  0  -0.240873  0  3.579657  0  0  -0.260799  0  3.594157  0  -1.236462  0  -0.325955  -0.227471  0  3.569587  0
N  N90  1  0.17739714  0.76300003  0.23874394  1  0  -0.328625  0  3.276822  0  0  -0.245112  0  3.549123  0  0  -0.264443  0  3.563624  0  -1.240816  0  -0.322502  -0.231639  0  3.538451  0
N  N91  1  0.82260134  0.23700182  0.76125460  1  0  -0.328668  0  3.276896  0  0  -0.245087  0  3.549126  0  0  -0.264415  0  3.563627  0  -1.240999  0  -0.322553  -0.23162  0  3.538459  0
O  O92  1  0.27936382  0.82378620  0.99835984  1  0  -0.647955  0  2.038043  0  0  -0.573734  0  2.307128  0  0  -0.601949  0  2.290392  0  -1.154008  0  -0.345216  -0.553845  0  2.318759  0
O  O93  1  0.72063199  0.17621266  0.00163948  1  0  -0.647964  0  2.038108  0  0  -0.573762  0  2.307183  0  0  -0.601976  0  2.290446  0  -1.154038  0  -0.345236  -0.553873  0  2.318814  0
O  O94  1  0.96473853  0.85142017  0.06188592  1  0  -0.663642  0  2.063386  0  0  -0.59002  0  2.337816  0  0  -0.619623  0  2.322583  0  -1.184876  0  -0.340986  -0.56886  0  2.347815  0
O  O95  1  0.03526260  0.14857869  0.93811163  1  0  -0.663677  0  2.063372  0  0  -0.590042  0  2.337782  0  0  -0.619646  0  2.322552  0  -1.184909  0  -0.340983  -0.568881  0  2.347779  0
O  O96  1  0.51217689  0.93086173  0.15070888  1  0  -0.62349  0  1.912444  0  0  -0.578832  0  2.130175  0  0  -0.601382  0  2.120831  0  -1.189987  0  -0.32637  -0.562494  0  2.13574  0
O  O97  1  0.48782157  0.06913614  0.84929067  1  0  -0.623436  0  1.912549  0  0  -0.578778  0  2.130262  0  0  -0.601329  0  2.120911  0  -1.190083  0  -0.326345  -0.562445  0  2.135835  0
O  O98  1  0.30279486  0.42467268  0.77023331  1  0  -0.299018  0  2.297743  0  0  -0.229192  0  2.532227  0  0  -0.247332  0  2.536155  0  -1.092773  0  -0.189895  -0.216317  0  2.52886  0
O  O99  1  0.69720414  0.57532618  0.22976651  1  0  -0.29902  0  2.297713  0  0  -0.229226  0  2.532221  0  0  -0.247356  0  2.536143  0  -1.092777  0  -0.189913  -0.216354  0  2.528853  0
O  O100  1  0.90801817  0.64264413  0.95989536  1  0  -0.617493  0  1.931672  0  0  -0.572016  0  2.157933  0  0  -0.595238  0  2.149885  0  -1.183971  0  -0.320072  -0.553944  0  2.162115  0
O  O101  1  0.09198137  0.35735573  0.04010385  1  0  -0.617528  0  1.931511  0  0  -0.572059  0  2.157767  0  0  -0.595281  0  2.149721  0  -1.184292  0  -0.320087  -0.553986  0  2.161951  0
