# generated using pymatgen
data_CdH40C28S2(N2O5)2
_symmetry_space_group_name_H-M   'P 1'
_cell_length_a   7.47024784
_cell_length_b   9.91758893
_cell_length_c   11.90724960
_cell_angle_alpha   87.55908508
_cell_angle_beta   71.13381374
_cell_angle_gamma   84.14291969
_symmetry_Int_Tables_number   1
_chemical_formula_structural   CdH40C28S2(N2O5)2
_chemical_formula_sum   'Cd1 H40 C28 S2 N4 O10'
_cell_volume   830.37613843
_cell_formula_units_Z   1
loop_
 _symmetry_equiv_pos_site_id
 _symmetry_equiv_pos_as_xyz
  1  'x, y, z'
loop_
 _atom_site_type_symbol
 _atom_site_label
 _atom_site_symmetry_multiplicity
 _atom_site_fract_x
 _atom_site_fract_y
 _atom_site_fract_z
 _atom_site_occupancy
 _atom_site_hle17_bader_spin_density
 _atom_site_hle17_ddec_charge
 _atom_site_hle17_ddec_spin_density
 _atom_site_hle17_ddec_sum_bond_order
 _atom_site_hle17_magmom
 _atom_site_hse06_10hf_bader_spin_density
 _atom_site_hse06_10hf_ddec_charge
 _atom_site_hse06_10hf_ddec_spin_density
 _atom_site_hse06_10hf_ddec_sum_bond_order
 _atom_site_hse06_10hf_magmom
 _atom_site_hse06_bader_spin_density
 _atom_site_hse06_ddec_charge
 _atom_site_hse06_ddec_spin_density
 _atom_site_hse06_ddec_sum_bond_order
 _atom_site_hse06_magmom
 _atom_site_pbe_bader_spin_density
 _atom_site_pbe_cm5_charge
 _atom_site_pbe_ddec_charge
 _atom_site_pbe_ddec_spin_density
 _atom_site_pbe_ddec_sum_bond_order
 _atom_site_pbe_magmom
Cd  Cd0  1  0.27902754  0.49900452  0.60158996  1  0  1.126628  0  1.688115  0  0  0.924864  0  2.142064  0  0  0.979672  0  2.090579  0  0  0.78507  0.885288  0  2.178114  0
H  H1  1  0.89985109  0.58259101  0.55893864  1  0  0.076346  0  0.967107  0  0  0.08457  0  1.032257  0  0  0.08692  0  1.03076  0  0  0.112055  0.082758  0  1.033493  0
H  H2  1  0.72670686  0.56476709  0.41511004  1  0  0.113488  0  0.999428  0  0  0.118804  0  1.066893  0  0  0.122141  0  1.065461  0  0  0.105916  0.116253  0  1.06838  0
H  H3  1  0.24742927  0.37747877  0.17270135  1  0  0.108738  0  0.983349  0  0  0.114826  0  1.051105  0  0  0.118663  0  1.049108  0  0  0.106581  0.111978  0  1.052818  0
H  H4  1  0.39674898  0.39835804  0.32880469  1  0  0.078216  0  0.944558  0  0  0.086508  0  1.009092  0  0  0.088852  0  1.007442  0  0  0.11372  0.084612  0  1.010582  0
H  H5  1  0.85033270  0.32811058  0.94087270  1  0  0.118576  0  0.989084  0  0  0.125121  0  1.058073  0  0  0.129019  0  1.054764  0  0  0.108549  0.122258  0  1.060556  0
H  H6  1  0.69019939  0.65318123  0.26964191  1  0  0.117655  0  0.987018  0  0  0.124267  0  1.056144  0  0  0.128286  0  1.052576  0  0  0.107166  0.121325  0  1.058847  0
H  H7  1  0.10114720  0.22408215  0.91582817  1  0  0.038459  0  0.944149  0  0  0.047954  0  1.008645  0  0  0.048524  0  1.007693  0  0  0.100958  0.04731  0  1.00965  0
H  H8  1  0.26003776  0.04712814  0.08401282  1  0  0.06394  0  0.96415  0  0  0.083164  0  1.025994  0  0  0.083593  0  1.026834  0  0  0.090607  0.082712  0  1.025606  0
H  H9  1  0.30237477  0.01348853  0.93297718  1  0  0.074824  0  0.913843  0  0  0.099551  0  0.961527  0  0  0.099362  0  0.962953  0  0  0.096238  0.099689  0  0.960449  0
H  H10  1  0.43242735  0.25504027  0.03176571  1  0  0.089714  0  0.971387  0  0  0.110216  0  1.036732  0  0  0.111182  0  1.037277  0  0  0.081491  0.109364  0  1.036569  0
H  H11  1  0.46111829  0.23617972  0.87965940  1  0  0.091468  0  0.972222  0  0  0.113783  0  1.0362  0  0  0.11365  0  1.039183  0  0  0.082876  0.113787  0  1.034201  0
H  H12  1  0.57910792  0.11646405  0.95202805  1  0  0.089145  0  0.974985  0  0  0.113345  0  1.037011  0  0  0.113954  0  1.037639  0  0  0.083817  0.112669  0  1.036868  0
H  H13  1  0.79054427  0.13579830  0.04496528  1  0  0.105677  0  0.980019  0  0  0.126273  0  1.044827  0  0  0.127225  0  1.045664  0  0  0.088643  0.125648  0  1.043997  0
H  H14  1  0.92198455  0.02666462  0.11898830  1  0  0.102723  0  0.955033  0  0  0.126114  0  1.015269  0  0  0.127392  0  1.015307  0  0  0.088473  0.125152  0  1.015179  0
H  H15  1  0.95617868  0.00503638  0.96505228  1  0  0.108813  0  0.951345  0  0  0.129186  0  1.017254  0  0  0.130195  0  1.017498  0  0  0.089466  0.128355  0  1.017174  0
H  H16  1  0.42177900  0.73779815  0.30528019  1  0  0.03778  0  0.949311  0  0  0.047774  0  1.013115  0  0  0.048048  0  1.012739  0  0  0.100211  0.04743  0  1.013608  0
H  H17  1  0.52271592  0.93447051  0.09444436  1  0  0.066052  0  0.951834  0  0  0.085342  0  1.013241  0  0  0.085882  0  1.014028  0  0  0.089514  0.084989  0  1.012708  0
H  H18  1  0.66929642  0.86980396  0.17802281  1  0  0.068342  0  0.936636  0  0  0.088078  0  0.994818  0  0  0.088673  0  0.995173  0  0  0.089232  0.087725  0  0.99442  0
H  H19  1  0.44403932  0.99569587  0.35917197  1  0  0.087376  0  0.984523  0  0  0.101867  0  1.05837  0  0  0.102689  0  1.059591  0  0  0.077975  0.101102  0  1.057799  0
H  H20  1  0.31163597  0.07168469  0.26952338  1  0  0.092296  0  0.954991  0  0  0.116069  0  1.011194  0  0  0.117193  0  1.01176  0  0  0.084054  0.115292  0  1.010692  0
H  H21  1  0.55067765  0.10455062  0.24001071  1  0  0.087701  0  0.962802  0  0  0.109603  0  1.024784  0  0  0.110229  0  1.026151  0  0  0.081866  0.109304  0  1.023535  0
H  H22  1  0.11617129  0.72515541  0.27334279  1  0  0.108627  0  0.975563  0  0  0.125765  0  1.043096  0  0  0.126088  0  1.045461  0  0  0.086091  0.125591  0  1.041375  0
H  H23  1  0.16667231  0.85252718  0.16058842  1  0  0.104914  0  0.954426  0  0  0.125641  0  1.016793  0  0  0.127275  0  1.015929  0  0  0.089348  0.124544  0  1.017183  0
H  H24  1  0.12999942  0.89382287  0.31101041  1  0  0.108021  0  0.956997  0  0  0.134304  0  1.011478  0  0  0.134337  0  1.012836  0  0  0.092292  0.134229  0  1.010586  0
H  H25  1  0.28493641  0.57920036  0.04243726  1  0  0.11408  0  0.968788  0  0  0.121445  0  1.032629  0  0  0.125022  0  1.031221  0  0  0.108515  0.118887  0  1.033695  0
H  H26  1  0.14815788  0.57016760  0.87867220  1  0  0.079789  0  0.944084  0  0  0.087848  0  1.008066  0  0  0.090235  0  1.006303  0  0  0.112856  0.085978  0  1.009547  0
H  H27  1  0.66955270  0.43787428  0.63983717  1  0  0.076616  0  0.968894  0  0  0.084127  0  1.035479  0  0  0.086384  0  1.034091  0  0  0.111626  0.082412  0  1.036653  0
H  H28  1  0.83061173  0.44521770  0.79242660  1  0  0.114851  0  0.988418  0  0  0.120348  0  1.055636  0  0  0.123559  0  1.054398  0  0  0.105498  0.117914  0  1.056886  0
H  H29  1  0.89256256  0.18148684  0.45535832  1  0  0.162053  0  0.947331  0  0  0.178548  0  1.005355  0  0  0.181205  0  1.004453  0  0  0.103948  0.176552  0  1.0061  0
H  H30  1  0.83059665  0.18801716  0.32024249  1  0  0.150702  0  0.939809  0  0  0.165487  0  1.00189  0  0  0.168162  0  1.000917  0  0  0.102219  0.16361  0  1.002409  0
H  H31  1  0.81150592  0.03429409  0.40759302  1  0  0.155351  0  0.950682  0  0  0.176005  0  1.004862  0  0  0.177952  0  1.004351  0  0  0.106684  0.174355  0  1.005597  0
H  H32  1  0.41244447  0.17195627  0.69543963  1  0  0.15066  0  0.946511  0  0  0.16689  0  1.004871  0  0  0.169178  0  1.004583  0  0  0.102441  0.165161  0  1.005167  0
H  H33  1  0.66827380  0.15890865  0.65834725  1  0  0.150757  0  0.953993  0  0  0.163562  0  1.019142  0  0  0.166183  0  1.018415  0  0  0.100994  0.161497  0  1.019952  0
H  H34  1  0.55006896  0.01928897  0.62922407  1  0  0.153822  0  0.968891  0  0  0.167309  0  1.033591  0  0  0.170348  0  1.031932  0  0  0.101255  0.164805  0  1.03519  0
H  H35  1  0.90584220  0.84743427  0.55514377  1  0  0.148838  0  0.954637  0  0  0.16336  0  1.017764  0  0  0.165865  0  1.017202  0  0  0.100484  0.161369  0  1.018489  0
H  H36  1  0.15974417  0.83658291  0.52560280  1  0  0.149698  0  0.949786  0  0  0.165394  0  1.00913  0  0  0.167526  0  1.009155  0  0  0.101997  0.163755  0  1.009231  0
H  H37  1  0.01522610  0.98650215  0.59340976  1  0  0.155293  0  0.973556  0  0  0.167129  0  1.039994  0  0  0.170339  0  1.038178  0  0  0.100594  0.164563  0  1.041572  0
H  H38  1  0.71727572  0.80251531  0.89059584  1  0  0.150262  0  0.930903  0  0  0.167842  0  0.987561  0  0  0.170343  0  0.986741  0  0  0.103591  0.165939  0  0.988279  0
H  H39  1  0.66842605  0.81273399  0.75117032  1  0  0.160699  0  0.946726  0  0  0.17629  0  1.006332  0  0  0.179014  0  1.005301  0  0  0.102975  0.174284  0  1.007094  0
H  H40  1  0.73776460  0.95921435  0.80715471  1  0  0.152667  0  0.95357  0  0  0.173252  0  1.008577  0  0  0.174927  0  1.00869  0  0  0.106797  0.171805  0  1.008853  0
C  C41  1  0.97101353  0.53756678  0.47203785  1  0  0.117421  0  3.724204  0  0  0.086816  0  3.975631  0  0  0.093384  0  3.994487  0  0  0.035889  0.082379  0  3.963245  0
C  C42  1  0.87637033  0.52893092  0.39050458  1  0  -0.148054  0  3.694968  0  0  -0.167209  0  3.944515  0  0  -0.173816  0  3.963617  0  0  -0.085254  -0.163171  0  3.932372  0
C  C43  1  0.97211132  0.47329450  0.27784360  1  0  0.123102  0  3.727472  0  0  0.134783  0  3.958161  0  0  0.140898  0  3.977471  0  0  0.01611  0.130602  0  3.945262  0
C  C44  1  0.16348043  0.42328682  0.25690702  1  0  -0.159342  0  3.680637  0  0  -0.181443  0  3.935223  0  0  -0.187276  0  3.952373  0  0  -0.08399  -0.177699  0  3.923834  0
C  C45  1  0.24827050  0.43468836  0.34388516  1  0  0.136991  0  3.704922  0  0  0.106331  0  3.95751  0  0  0.113932  0  3.97506  0  0  0.044854  0.101264  0  3.945619  0
C  C46  1  0.87137201  0.47674356  0.18943493  1  0  -0.034087  0  3.747482  0  0  -0.025361  0  3.987285  0  0  -0.028136  0  4.009923  0  0  -0.018066  -0.023304  0  3.971717  0
C  C47  1  0.91478902  0.38250697  0.09579712  1  0  0.227041  0  3.801648  0  0  0.20908  0  4.069033  0  0  0.218404  0  4.08672  0  0  0.077844  0.202432  0  4.056661  0
C  C48  1  0.81549735  0.39847165  0.01406652  1  0  -0.223696  0  3.75408  0  0  -0.251543  0  4.010991  0  0  -0.255226  0  4.030289  0  0  -0.106416  -0.248856  0  3.997845  0
C  C49  1  0.66686803  0.50071684  0.02415400  1  0  -0.033709  0  3.7607  0  0  -0.025227  0  4.000708  0  0  -0.027835  0  4.022962  0  0  -0.016999  -0.023299  0  3.985665  0
C  C50  1  0.61657932  0.59065443  0.12103491  1  0  0.230379  0  3.8233  0  0  0.209101  0  4.096835  0  0  0.218872  0  4.1141  0  0  0.077148  0.202341  0  4.085213  0
C  C51  1  0.72241723  0.57966221  0.19898123  1  0  -0.22503  0  3.742828  0  0  -0.254367  0  4.003005  0  0  -0.258129  0  4.021929  0  0  -0.106775  -0.251805  0  3.99023  0
C  C52  1  0.08820761  0.17354214  0.00197808  1  0  0.242122  0  3.575453  0  0  0.224058  0  3.828775  0  0  0.231767  0  3.838792  0  0  -0.000465  0.218758  0  3.82192  0
C  C53  1  0.27703560  0.09600499  0.99705489  1  0  -0.126253  0  3.701357  0  0  -0.166432  0  3.960516  0  0  -0.167252  0  3.973386  0  0  -0.168839  -0.165801  0  3.951562  0
C  C54  1  0.44588665  0.18050836  0.96335918  1  0  -0.27301  0  3.707073  0  0  -0.354321  0  3.957881  0  0  -0.356083  0  3.969567  0  0  -0.251729  -0.352831  0  3.949944  0
C  C55  1  0.92906345  0.08018883  0.03514819  1  0  -0.362253  0  3.704196  0  0  -0.452492  0  3.953418  0  0  -0.455226  0  3.962447  0  0  -0.250894  -0.450192  0  3.946864  0
C  C56  1  0.40263877  0.78395826  0.22367855  1  0  0.245557  0  3.568909  0  0  0.22708  0  3.823098  0  0  0.234772  0  3.833181  0  0  0.000296  0.221852  0  3.816122  0
C  C57  1  0.52151160  0.90448542  0.18471704  1  0  -0.133817  0  3.692279  0  0  -0.175203  0  3.951169  0  0  -0.176511  0  3.964914  0  0  -0.17282  -0.174122  0  3.941422  0
C  C58  1  0.45238658  0.02525189  0.26789479  1  0  -0.282973  0  3.736085  0  0  -0.355454  0  3.983274  0  0  -0.358539  0  3.996078  0  0  -0.250305  -0.353104  0  3.974237  0
C  C59  1  0.19148611  0.81590799  0.24311044  1  0  -0.344661  0  3.673469  0  0  -0.427483  0  3.913691  0  0  -0.429393  0  3.922595  0  0  -0.249011  -0.425933  0  3.907366  0
C  C60  1  0.57154629  0.50938028  0.93285431  1  0  0.123424  0  3.73451  0  0  0.135704  0  3.96391  0  0  0.141376  0  3.983877  0  0  0.016997  0.131817  0  3.950467  0
C  C61  1  0.37667649  0.54788702  0.95476058  1  0  -0.157103  0  3.688035  0  0  -0.179609  0  3.94023  0  0  -0.185352  0  3.957802  0  0  -0.083615  -0.175792  0  3.928235  0
C  C62  1  0.29914184  0.54301915  0.86366677  1  0  0.131731  0  3.71159  0  0  0.101749  0  3.962685  0  0  0.109096  0  3.980456  0  0  0.042274  0.096817  0  3.950746  0
C  C63  1  0.59047925  0.46936263  0.73034033  1  0  0.117475  0  3.724079  0  0  0.085912  0  3.977301  0  0  0.092464  0  3.996313  0  0  0.035534  0.081503  0  3.964748  0
C  C64  1  0.67827079  0.47147927  0.81622433  1  0  -0.14563  0  3.685992  0  0  -0.163351  0  3.933258  0  0  -0.170418  0  3.953554  0  0  -0.082564  -0.158906  0  3.920105  0
C  C65  1  0.79967565  0.14543921  0.41027582  1  0  -0.437124  0  3.546068  0  0  -0.506281  0  3.789192  0  0  -0.510496  0  3.793302  0  0  -0.234292  -0.502903  0  3.786633  0
C  C66  1  0.54825539  0.13000006  0.63343025  1  0  -0.438577  0  3.547192  0  0  -0.502288  0  3.788453  0  0  -0.506924  0  3.792751  0  0  -0.239293  -0.498751  0  3.786067  0
C  C67  1  0.02072851  0.87603972  0.58548350  1  0  -0.438749  0  3.553034  0  0  -0.502242  0  3.794778  0  0  -0.507211  0  3.799356  0  0  -0.240456  -0.498489  0  3.792131  0
C  C68  1  0.75421963  0.84823076  0.80147658  1  0  -0.432758  0  3.550716  0  0  -0.501529  0  3.793864  0  0  -0.505652  0  3.798135  0  0  -0.233371  -0.498138  0  3.791028  0
S  S69  1  0.55547120  0.19859157  0.49000652  1  0  0.710198  0  3.574158  0  0  0.681753  0  4.017885  0  0  0.698782  0  4.014401  0  0  0.291209  0.669418  0  4.020313  0
S  S70  1  0.00231600  0.79992728  0.72801556  1  0  0.703551  0  3.558386  0  0  0.670829  0  3.999702  0  0  0.688481  0  3.994981  0  0  0.281885  0.658001  0  4.003083  0
N  N71  1  0.15504933  0.49187856  0.44999425  1  0  -0.3421  0  3.285174  0  0  -0.258623  0  3.548818  0  0  -0.27933  0  3.567782  0  0  -0.338781  -0.244576  0  3.535879  0
N  N72  1  0.40329303  0.50375285  0.75299768  1  0  -0.341355  0  3.300663  0  0  -0.258466  0  3.563995  0  0  -0.279222  0  3.583497  0  0  -0.339434  -0.244368  0  3.550751  0
N  N73  1  0.03544572  0.22879526  0.68435578  1  0  0.690889  0  4.143492  0  0  0.724118  0  4.436778  0  0  0.752282  0  4.442444  0  0  0.095651  0.70511  0  4.432283  0
N  N74  1  0.52378640  0.77225061  0.53202028  1  0  0.693284  0  4.138412  0  0  0.735646  0  4.418691  0  0  0.752262  0  4.440713  0  0  0.095856  0.716365  0  4.414628  0
O  O75  1  0.05091395  0.27794704  0.09179722  1  0  -0.323117  0  2.297663  0  0  -0.247502  0  2.525636  0  0  -0.267467  0  2.53118  0  0  -0.17767  -0.233294  0  2.52133  0
O  O76  1  0.46653720  0.68436979  0.12929746  1  0  -0.329665  0  2.342965  0  0  -0.255219  0  2.576963  0  0  -0.275455  0  2.582634  0  0  -0.178744  -0.240951  0  2.572489  0
O  O77  1  0.54859824  0.35296752  0.49819156  1  0  -0.67274  0  1.962919  0  0  -0.599431  0  2.241929  0  0  -0.62404  0  2.232426  0  0  -0.363329  -0.581713  0  2.248318  0
O  O78  1  0.01372433  0.64662400  0.71084117  1  0  -0.675864  0  1.968589  0  0  -0.60232  0  2.249116  0  0  -0.626895  0  2.239069  0  0  -0.364672  -0.584578  0  2.255659  0
O  O79  1  0.11157447  0.32009838  0.72393179  1  0  -0.526393  0  1.814811  0  0  -0.499558  0  2.058827  0  0  -0.518747  0  2.049176  0  0  -0.214243  -0.485601  0  2.065128  0
O  O80  1  0.08446635  0.20821153  0.57462575  1  0  -0.464179  0  1.760604  0  0  -0.460273  0  1.971175  0  0  -0.474197  0  1.96713  0  0  -0.188239  -0.450158  0  1.973581  0
O  O81  1  0.91377524  0.16289786  0.75855507  1  0  -0.460626  0  1.737308  0  0  -0.449285  0  1.947814  0  0  -0.463623  0  1.943522  0  0  -0.186386  -0.43876  0  1.950658  0
O  O82  1  0.45244014  0.68090597  0.48889969  1  0  -0.529021  0  1.824198  0  0  -0.500472  0  2.060241  0  0  -0.516155  0  2.055049  0  0  -0.213499  -0.486367  0  2.067002  0
O  O83  1  0.65801683  0.83165046  0.46193088  1  0  -0.4605  0  1.728447  0  0  -0.453334  0  1.929126  0  0  -0.463367  0  1.929066  0  0  -0.189202  -0.443032  0  1.932496  0
O  O84  1  0.45748539  0.79936126  0.64067112  1  0  -0.462435  0  1.762207  0  0  -0.464468  0  1.970761  0  0  -0.474087  0  1.970803  0  0  -0.186874  -0.454419  0  1.97382  0
