# generated using pymatgen
data_Cu2H8C11N4O7
_symmetry_space_group_name_H-M   'P 1'
_cell_length_a   7.27127391
_cell_length_b   13.72283388
_cell_length_c   14.09742201
_cell_angle_alpha   112.23442433
_cell_angle_beta   89.98353901
_cell_angle_gamma   90.00544427
_symmetry_Int_Tables_number   1
_chemical_formula_structural   Cu2H8C11N4O7
_chemical_formula_sum   'Cu8 H32 C44 N16 O28'
_cell_volume   1302.08010917
_cell_formula_units_Z   4
loop_
 _symmetry_equiv_pos_site_id
 _symmetry_equiv_pos_as_xyz
  1  'x, y, z'
loop_
 _atom_site_type_symbol
 _atom_site_label
 _atom_site_symmetry_multiplicity
 _atom_site_fract_x
 _atom_site_fract_y
 _atom_site_fract_z
 _atom_site_occupancy
 _atom_site_hle17_ddec_charge
 _atom_site_hle17_ddec_spin_density
 _atom_site_hle17_ddec_sum_bond_order
 _atom_site_hle17_magmom
 _atom_site_hse06_10hf_bader_charge
 _atom_site_hse06_10hf_bader_spin_density
 _atom_site_hse06_10hf_ddec_charge
 _atom_site_hse06_10hf_ddec_spin_density
 _atom_site_hse06_10hf_ddec_sum_bond_order
 _atom_site_hse06_10hf_magmom
 _atom_site_hse06_bader_charge
 _atom_site_hse06_bader_spin_density
 _atom_site_hse06_ddec_charge
 _atom_site_hse06_ddec_spin_density
 _atom_site_hse06_ddec_sum_bond_order
 _atom_site_hse06_magmom
 _atom_site_pbe_cm5_charge
 _atom_site_pbe_ddec_charge
 _atom_site_pbe_ddec_spin_density
 _atom_site_pbe_ddec_sum_bond_order
 _atom_site_pbe_magmom
Cu  Cu0  1  0.89665280  0.09391114  0.58854438  1  0.95695  0.614422  1.784574  0.456  1.154735  0.622572  0.960093  0.767129  2.181802  0.621  1.249573  0.728692  1.058861  0.865731  2.105046  0.725  0.711209  0.886608  0.613703  2.244498  0.488
Cu  Cu1  1  0.39649303  0.40613270  0.91144611  1  0.957279  0.616635  1.783786  0.457  1.155212  0.622735  0.959996  0.767328  2.181005  0.621  1.248992  0.728513  1.058329  0.865525  2.104646  0.725  0.71177  0.887354  0.615073  2.242875  0.489
Cu  Cu2  1  0.10335656  0.90608683  0.41145464  1  0.956832  -0.615414  1.784621  -0.456  1.154714  -0.622588  0.959929  -0.768004  2.181894  -0.621  1.249691  -0.7287  1.058761  -0.866947  2.105128  -0.725  0.711141  0.886517  -0.615241  2.244481  -0.488
Cu  Cu3  1  0.60351770  0.59386683  0.08854852  1  0.957386  0.616584  1.783666  0.457  1.154995  0.622677  0.95993  0.767265  2.18111  0.621  1.24917  0.728475  1.058372  0.865481  2.104565  0.725  0.711741  0.88724  0.614951  2.242996  0.489
Cu  Cu4  1  0.56475261  0.34825372  0.09068461  1  0.959423  -0.611576  1.798649  -0.451  1.161973  -0.617708  0.955591  -0.762721  2.197004  -0.615  1.250001  -0.721036  1.046638  -0.859104  2.125246  -0.716  0.728241  0.890861  -0.608212  2.254113  -0.481
Cu  Cu5  1  0.06468265  0.15168824  0.40920989  1  0.960145  0.61434  1.798303  0.454  1.16191  0.618378  0.955693  0.763225  2.197084  0.616  1.249563  0.720864  1.046771  0.858105  2.125052  0.716  0.728873  0.891532  0.610648  2.253578  0.484
Cu  Cu6  1  0.43521962  0.65174819  0.90931657  1  0.95953  -0.611482  1.798618  -0.451  1.161857  -0.617686  0.955722  -0.762686  2.196995  -0.615  1.249921  -0.721027  1.046794  -0.859091  2.125167  -0.716  0.72827  0.89095  -0.608097  2.254104  -0.481
Cu  Cu7  1  0.93532671  0.84831052  0.59079226  1  0.960152  -0.615333  1.79815  -0.454  1.161909  -0.618417  0.955685  -0.764121  2.196908  -0.616  1.249717  -0.720892  1.046761  -0.85934  2.124896  -0.716  0.728823  0.891487  -0.612099  2.253462  -0.484
H  H8  1  0.27337341  0.07893774  0.49669496  1  0.397502  -7.3e-05  0.920929  0.0  0.668432  -0.000212  0.373792  -0.000135  0.979364  -0.001  0.68255  -0.000257  0.387623  -0.000175  0.960289  -0.001  0.270952  0.363343  -7e-05  0.993705  0.0
H  H9  1  0.77364754  0.42098470  0.00324489  1  0.397265  -2.3e-05  0.921393  0.0  0.667265  6.2e-05  0.373693  6.1e-05  0.979588  0.0  0.681823  0.000139  0.387523  0.000127  0.960499  0.0  0.270672  0.363257  -1.3e-05  0.993921  0.0
H  H10  1  0.72664282  0.92105867  0.50330704  1  0.397582  7.3e-05  0.920814  0.0  0.668386  0.000213  0.37387  0.000135  0.979258  0.001  0.682662  0.000255  0.387694  0.000174  0.960188  0.001  0.270997  0.36342  6.7e-05  0.993597  0.0
H  H11  1  0.22634257  0.57901249  0.99675526  1  0.397193  -2.6e-05  0.921511  0.0  0.667275  6.1e-05  0.373657  5.8e-05  0.979651  0.0  0.681695  0.000138  0.387486  0.000125  0.960564  0.0  0.270676  0.363212  -1.7e-05  0.993988  0.0
H  H12  1  0.10361836  0.14423452  0.01238015  1  0.31497  -0.000113  0.953429  0.0  0.543238  -8.6e-05  0.30014  -6.9e-05  1.02287  0.0  0.554556  -6e-05  0.306689  -5.1e-05  1.016425  0.0  0.296304  0.295436  -7.7e-05  1.027415  0.0
H  H13  1  0.60363542  0.35572867  0.48761561  1  0.315066  4e-06  0.953368  0.0  0.543029  -2.1e-05  0.300061  3.5e-05  1.023108  0.0  0.555549  -2.6e-05  0.306609  1.9e-05  1.016668  0.0  0.296231  0.295368  4.7e-05  1.027625  0.0
H  H14  1  0.89637174  0.85576344  0.98761887  1  0.314953  -1e-05  0.953505  0.0  0.543148  1.3e-05  0.300148  -3.3e-05  1.02292  0.0  0.554417  2e-05  0.306698  -1.9e-05  1.016473  0.0  0.296278  0.295437  -4.3e-05  1.027466  0.0
H  H15  1  0.39636432  0.64428737  0.51238081  1  0.315073  -0.000103  0.953333  0.0  0.541459  -8.2e-05  0.300147  -6e-05  1.022952  0.0  0.555518  -5.6e-05  0.306696  -4.4e-05  1.01651  0.0  0.29623  0.295456  -6.8e-05  1.027459  0.0
H  H16  1  0.88581468  0.18904381  0.00494614  1  0.293601  -3.1e-05  0.922551  0.0  0.457664  -3e-05  0.278663  5.6e-05  0.997792  0.0  0.465799  -1.2e-05  0.284043  7e-05  0.99278  0.0  0.302432  0.274626  3.8e-05  1.001603  0.0
H  H17  1  0.38578449  0.31091741  0.49509824  1  0.293624  -0.000159  0.922587  0.0  0.457303  -0.000256  0.278709  -0.000165  0.997824  0.0  0.465516  -0.000223  0.28409  -0.000153  0.992828  0.0  0.302281  0.274671  -0.000143  1.001615  0.0
H  H18  1  0.11417955  0.81095730  0.99505048  1  0.293584  0.000196  0.92262  0.0  0.457695  0.000249  0.2787  0.00019  0.997785  0.0  0.466159  0.000213  0.284082  0.000174  0.992771  0.0  0.302437  0.274657  0.000172  1.00159  0.0
H  H19  1  0.61421799  0.68910023  0.50490231  1  0.293601  -4.4e-05  0.92261  0.0  0.457016  -2.4e-05  0.278681  4.9e-05  0.997859  0.0  0.465302  -6e-06  0.284065  5.9e-05  0.992852  0.0  0.302228  0.274641  3.2e-05  1.001645  0.0
H  H20  1  0.97975115  0.22684987  0.83959335  1  0.142335  -0.000278  0.933413  0.0  0.251494  -0.000443  0.148771  -0.000267  0.995573  0.0  0.258479  -0.00034  0.152156  -0.000218  0.991215  0.0  0.151649  0.145947  -0.000255  0.999166  0.0
H  H21  1  0.47984004  0.27307473  0.66044605  1  0.142468  -0.000288  0.933432  0.0  0.250232  -0.000453  0.148558  -0.000275  0.995962  0.0  0.25676  -0.000347  0.151926  -0.00022  0.991612  0.0  0.151638  0.145751  -0.000273  0.999548  0.0
H  H22  1  0.02023758  0.77314808  0.16040141  1  0.142305  0.000337  0.933398  0.0  0.251122  0.000495  0.148697  0.000322  0.995619  0.0  0.258463  0.000364  0.152068  0.000242  0.991259  0.0  0.151643  0.145868  0.000331  0.999201  0.0
H  H23  1  0.52017757  0.72693974  0.33954837  1  0.142533  -0.000352  0.933393  0.0  0.249959  -0.000496  0.148591  -0.000331  0.995922  0.0  0.256515  -0.000359  0.151958  -0.000249  0.991576  0.0  0.15165  0.145781  -0.000343  0.999502  0.0
H  H24  1  0.97024196  0.91970343  0.84340170  1  0.137505  0.000185  0.916727  0.0  0.241346  0.000282  0.145055  0.000197  0.978092  0.0  0.251274  0.000227  0.148626  0.000166  0.97337  0.0  0.156453  0.141984  0.000177  0.982074  0.0
H  H25  1  0.47013395  0.58020461  0.65663756  1  0.137474  0.000225  0.91686  0.0  0.243484  0.000327  0.145406  0.000242  0.977816  0.0  0.251555  0.000255  0.148961  0.000195  0.973121  0.0  0.156515  0.142362  0.000229  0.981741  0.0
H  H26  1  0.02976877  0.08029612  0.15659932  1  0.137604  -0.000174  0.916713  0.0  0.241288  -0.00027  0.145081  -0.000193  0.97812  0.0  0.251299  -0.000217  0.14865  -0.000167  0.9734  0.0  0.156464  0.142014  -0.000171  0.9821  0.0
H  H27  1  0.52985340  0.41981146  0.34336596  1  0.13753  0.000222  0.916872  0.0  0.243446  0.000318  0.145487  0.000241  0.977796  0.0  0.251786  0.000246  0.149034  0.000197  0.973121  0.0  0.15655  0.142444  0.000229  0.981729  0.0
H  H28  1  0.54862612  0.22182945  0.33422845  1  0.105742  -0.000155  0.963228  0.0  0.139535  -9.6e-05  0.118523  -0.000129  1.022842  0.0  0.146576  -7.4e-05  0.121597  -9.4e-05  1.021285  0.0  0.106852  0.116227  -0.000135  1.02422  0.0
H  H29  1  0.04873359  0.27824107  0.16575380  1  0.105678  0.000159  0.962643  0.0  0.140242  0.000293  0.118469  0.000216  1.022337  0.0  0.147887  0.000195  0.121554  0.00015  1.020791  0.0  0.106741  0.116187  0.000238  1.023687  0.0
H  H30  1  0.45135436  0.77816774  0.66577597  1  0.105876  -7e-05  0.963102  0.0  0.139379  -0.00025  0.118622  -0.000191  1.022741  0.0  0.146546  -0.000158  0.121697  -0.000131  1.021185  0.0  0.106904  0.116323  -0.000214  1.024112  0.0
H  H31  1  0.95124964  0.72175532  0.83424394  1  0.105734  -0.000237  0.962525  0.0  0.140365  -0.000109  0.118578  -0.000118  1.022154  0.0  0.148041  -8.4e-05  0.12167  -8.5e-05  1.020611  0.0  0.106748  0.116288  -0.000127  1.0235  0.0
H  H32  1  0.56419585  0.90310460  0.32155622  1  0.11526  0.00012  0.95745  0.0  0.112869  0.000215  0.122272  0.00019  1.025396  0.0  0.115803  0.000148  0.126331  0.000143  1.021565  0.0  0.105686  0.119364  0.000197  1.028285  0.0
H  H33  1  0.06430837  0.59699819  0.17851659  1  0.1151  -0.000292  0.957688  0.0  0.112223  -0.000251  0.12225  -0.000251  1.02544  0.0  0.116444  -0.000192  0.126314  -0.000198  1.0216  0.0  0.105529  0.119332  -0.000258  1.028328  0.0
H  H34  1  0.43582452  0.09689494  0.67843911  1  0.115226  0.000219  0.957432  0.0  0.112523  1.7e-05  0.122231  4.2e-05  1.025368  0.0  0.115858  -2e-06  0.126289  1e-05  1.021538  0.0  0.105682  0.119327  6.3e-05  1.028261  0.0
H  H35  1  0.93570374  0.40300057  0.82148485  1  0.115194  -7.2e-05  0.957583  0.0  0.112082  0.000111  0.122407  2.1e-05  1.025264  0.0  0.116188  3.1e-05  0.126434  -2.2e-05  1.021466  0.0  0.105604  0.119491  6.1e-05  1.028159  0.0
H  H36  1  0.40082601  0.96565748  0.05613657  1  0.115611  -0.000139  0.946545  0.0  0.151822  -8.2e-05  0.122635  -6.2e-05  1.013569  0.0  0.157174  -4.9e-05  0.126401  -4.1e-05  1.010614  0.0  0.10887  0.119826  -7.3e-05  1.015891  0.0
H  H37  1  0.90090137  0.53435940  0.44393253  1  0.115236  -0.000145  0.947061  0.0  0.151221  -6e-05  0.122291  -5.1e-05  1.014039  0.0  0.156467  -4.1e-05  0.126051  -3.6e-05  1.011106  0.0  0.108845  0.119481  -5.4e-05  1.01635  0.0
H  H38  1  0.59916135  0.03434758  0.94386576  1  0.1156  6.3e-05  0.946572  0.0  0.151804  -8.9e-05  0.122649  -7.3e-05  1.01356  0.0  0.157218  -3.7e-05  0.126415  -4.2e-05  1.010606  0.0  0.108905  0.119845  -9.3e-05  1.015882  0.0
H  H39  1  0.09910386  0.46563621  0.55606917  1  0.115344  -7.4e-05  0.946905  0.0  0.150957  4.5e-05  0.122364  5.4e-05  1.013924  0.0  0.156564  1.3e-05  0.126126  2.8e-05  1.010982  0.0  0.108857  0.119552  6.9e-05  1.016242  0.0
C  C40  1  0.97423478  0.14158386  0.81293976  1  0.155509  -0.004187  3.561915  -0.004  0.986943  -0.002749  0.084391  -0.001551  3.824045  -0.001  1.037898  -0.003391  0.099771  -0.001935  3.834597  -0.002  0.173939  0.074454  -0.001244  3.817492  -0.001
C  C41  1  0.47431021  0.35833767  0.68710715  1  0.155614  -0.00397  3.561601  -0.004  0.987492  -0.002646  0.08453  -0.001422  3.823685  -0.001  1.038456  -0.003345  0.099945  -0.001858  3.834194  -0.002  0.17416  0.074567  -0.001036  3.817161  -0.001
C  C42  1  0.02575945  0.85841569  0.18705913  1  0.155443  0.004214  3.561948  0.004  0.986719  0.002918  0.084352  0.001586  3.824073  0.002  1.038054  0.003505  0.099756  0.001944  3.834601  0.002  0.173944  0.074422  0.001296  3.81751  0.001
C  C43  1  0.52570328  0.64167287  0.31288725  1  0.155471  -0.004047  3.561968  -0.004  0.987896  -0.002791  0.084455  -0.001575  3.82388  -0.002  1.037931  -0.003405  0.099867  -0.001949  3.834399  -0.002  0.174145  0.074496  -0.001227  3.817339  -0.001
C  C44  1  0.97099243  0.98304870  0.81537629  1  0.172734  0.004959  3.576862  0.005  1.017559  0.002907  0.104518  0.001621  3.832976  0.002  1.094878  0.003929  0.119457  0.002273  3.843608  0.002  0.185937  0.09472  0.001012  3.826718  0.001
C  C45  1  0.47095955  0.51686404  0.68466031  1  0.172202  0.005028  3.57728  0.005  1.016274  0.003038  0.103479  0.001713  3.833476  0.002  1.094084  0.003984  0.118419  0.002309  3.844101  0.002  0.185465  0.093682  0.001189  3.827195  0.001
C  C46  1  0.02901693  0.01695162  0.18462217  1  0.172551  -0.005002  3.576682  -0.005  1.017495  -0.002924  0.104402  -0.001631  3.832727  -0.002  1.094612  -0.003922  0.119331  -0.00227  3.843384  -0.002  0.185914  0.094595  -0.001049  3.826488  -0.001
C  C47  1  0.52903193  0.48315046  0.31534547  1  0.172081  0.00502  3.57748  0.005  1.01624  0.003018  0.103284  0.001702  3.833624  0.002  1.093187  0.003995  0.118213  0.002318  3.844257  0.003  0.185295  0.093483  0.001153  3.82736  0.001
C  C48  1  0.46969509  0.10154873  0.19089187  1  -0.058345  -0.007523  3.756623  -0.008  0.048316  -0.006466  -0.030307  -0.004338  3.988  -0.005  0.048385  -0.004966  -0.039192  -0.003244  4.009858  -0.004  -0.016484  -0.024531  -0.004449  3.973728  -0.005
C  C49  1  0.96978803  0.39849202  0.30913431  1  -0.058611  0.005408  3.756853  0.006  0.047171  0.005661  -0.030411  0.003868  3.988127  0.004  0.049601  0.003929  -0.039275  0.002643  4.010005  0.003  -0.016593  -0.02463  0.00421  3.973806  0.005
C  C50  1  0.53029089  0.89845477  0.80911485  1  -0.058284  -0.004189  3.756623  -0.005  0.047895  -0.004812  -0.030171  -0.00329  3.987844  -0.004  0.048323  -0.003093  -0.039056  -0.002093  4.00971  -0.003  -0.016507  -0.024386  -0.003682  3.973562  -0.004
C  C51  1  0.03020483  0.60149887  0.69086354  1  -0.058808  -0.008537  3.756969  -0.009  0.047047  -0.00704  -0.030401  -0.004675  3.988072  -0.006  0.049537  -0.005532  -0.039273  -0.003553  4.009951  -0.004  -0.016643  -0.024623  -0.004776  3.97374  -0.006
C  C52  1  0.52473045  0.13804195  0.29353801  1  -0.076796  0.001029  3.690625  0.001  -0.128846  0.000385  -0.119212  5.6e-05  3.943264  0.0  -0.1338  0.000305  -0.116585  2.1e-05  3.960079  0.0  -0.079648  -0.121004  -2.2e-05  3.932553  0.0
C  C53  1  0.02482332  0.36203512  0.20647006  1  -0.076391  0.002269  3.689481  0.002  -0.128268  0.001693  -0.119182  0.001172  3.942142  0.001  -0.135783  0.001436  -0.116597  0.00098  3.959038  0.001  -0.079416  -0.120923  0.001094  3.931311  0.001
C  C54  1  0.47525552  0.86195917  0.70646501  1  -0.077039  -0.004351  3.690535  -0.004  -0.128346  -0.003201  -0.119437  -0.001927  3.943227  -0.002  -0.133645  -0.002279  -0.116824  -0.0013  3.960057  -0.001  -0.079687  -0.121221  -0.002337  3.932492  -0.002
C  C55  1  0.97517091  0.63795655  0.79352382  1  -0.076437  0.004276  3.689142  0.004  -0.128079  0.003475  -0.119232  0.002166  3.941807  0.002  -0.135531  0.002718  -0.116659  0.001658  3.958727  0.002  -0.079361  -0.120965  0.002414  3.930947  0.002
C  C56  1  0.55154799  0.06705264  0.34179223  1  -0.051015  0.005708  3.746089  0.007  -0.041333  0.004501  -0.030789  0.003123  3.996594  0.004  -0.047606  0.002743  -0.038607  0.00189  4.017292  0.003  -0.013987  -0.025779  0.00355  3.982881  0.004
C  C57  1  0.05174464  0.43304713  0.15824850  1  -0.051023  0.005922  3.745789  0.006  -0.040314  0.005061  -0.030445  0.003545  3.99596  0.004  -0.045475  0.003171  -0.038328  0.002222  4.016734  0.003  -0.01405  -0.025348  0.004061  3.982088  0.005
C  C58  1  0.44845312  0.93294611  0.65820637  1  -0.050913  -0.005618  3.746067  -0.006  -0.041107  -0.004872  -0.030806  -0.003332  3.996775  -0.004  -0.047522  -0.002709  -0.038621  -0.001852  4.017456  -0.003  -0.013944  -0.025789  -0.003963  3.983051  -0.005
C  C59  1  0.94825096  0.56694297  0.84174977  1  -0.050819  0.006332  3.745272  0.007  -0.040374  0.005314  -0.030531  0.003704  3.995837  0.004  -0.045814  0.003176  -0.03842  0.002229  4.01661  0.003  -0.013972  -0.025423  0.00426  3.981942  0.005
C  C60  1  0.53626794  0.95882770  0.28528923  1  -0.071989  0.002504  3.669065  0.002  0.051911  0.001451  -0.117571  0.00103  3.930592  0.001  0.058158  0.001177  -0.115368  0.000823  3.948693  0.0  -0.081692  -0.118497  0.000969  3.918007  0.001
C  C61  1  0.03641524  0.54127218  0.21479307  1  -0.071988  0.002998  3.668735  0.003  0.051203  0.001389  -0.117716  0.000703  3.930068  0.001  0.055769  0.001136  -0.115543  0.000533  3.948301  0.001  -0.081507  -0.118691  0.000685  3.917565  0.001
C  C62  1  0.46373592  0.04117106  0.71471221  1  -0.072018  -0.005542  3.668963  -0.005  0.05231  -0.004912  -0.117527  -0.003116  3.93053  -0.003  0.058101  -0.003817  -0.115321  -0.002362  3.948635  -0.002  -0.081729  -0.118462  -0.003397  3.917954  -0.003
C  C63  1  0.96358449  0.45872108  0.78521062  1  -0.072205  0.004531  3.668837  0.004  0.051104  0.004345  -0.117949  0.00268  3.930309  0.003  0.055625  0.003204  -0.115745  0.001877  3.948559  0.002  -0.081721  -0.118928  0.003098  3.917812  0.003
C  C64  1  0.48441924  0.92190538  0.18193607  1  -0.068146  -0.001511  3.751214  -0.002  -0.086047  0.000574  -0.045655  0.000414  3.992397  0.0  -0.095842  0.000432  -0.056629  0.000305  4.016289  0.0  -0.022052  -0.037988  0.000219  3.976132  0.0
C  C65  1  0.98444253  0.57816126  0.31815224  1  -0.068243  -0.011526  3.751222  -0.013  -0.087515  -0.010928  -0.045737  -0.007329  3.992642  -0.009  -0.093475  -0.008642  -0.056634  -0.005617  4.016512  -0.007  -0.021967  -0.038168  -0.007198  3.9764  -0.008
C  C66  1  0.51558324  0.07809495  0.81806524  1  -0.068184  0.001066  3.751229  0.001  -0.085859  0.001197  -0.045681  0.000782  3.992438  0.001  -0.095344  0.001457  -0.056663  0.000894  4.01634  0.001  -0.022037  -0.038022  0.000335  3.976188  0.001
C  C67  1  0.01555994  0.42183359  0.68185700  1  -0.068195  0.008778  3.751286  0.01  -0.087692  0.010104  -0.045664  0.00678  3.992682  0.008  -0.094178  0.007434  -0.056562  0.004863  4.016544  0.006  -0.02195  -0.038106  0.006909  3.976451  0.008
C  C68  1  0.44548506  0.99375467  0.13570205  1  -0.068624  0.003292  3.691628  0.003  -0.097747  0.001392  -0.110162  0.000853  3.94391  0.001  -0.100011  0.001011  -0.106716  0.000587  3.962168  0.001  -0.078773  -0.112642  0.000999  3.932027  0.001
C  C69  1  0.94559255  0.50628628  0.36437415  1  -0.067874  0.003765  3.692151  0.004  -0.096692  0.001787  -0.109509  0.001074  3.944407  0.001  -0.101544  0.001358  -0.106101  0.000786  3.962706  0.001  -0.078694  -0.111932  0.001155  3.932466  0.001
C  C70  1  0.55451055  0.00624804  0.86430154  1  -0.068495  -0.005174  3.691603  -0.005  -0.098048  -0.003678  -0.11011  -0.00226  3.94388  -0.002  -0.100419  -0.002728  -0.106664  -0.00162  3.962143  -0.002  -0.078777  -0.112594  -0.002532  3.932005  -0.002
C  C71  1  0.05440580  0.49370777  0.63562911  1  -0.067896  0.004926  3.691975  0.005  -0.096064  0.003303  -0.109553  0.002086  3.944156  0.002  -0.100802  0.002451  -0.106133  0.001497  3.962445  0.001  -0.0786  -0.111978  0.002408  3.932225  0.002
C  C72  1  0.43718952  0.17752480  0.13890320  1  0.658524  0.002688  3.900745  0.006  1.615345  0.001236  0.617259  1.3e-05  4.194534  0.002  1.674659  0.001282  0.654737  0.000262  4.186273  0.002  0.209965  0.59155  -0.000238  4.199216  0.002
C  C73  1  0.93725823  0.32247913  0.36109238  1  0.658769  -0.002686  3.900868  -0.006  1.615605  -0.001248  0.617441  -2.8e-05  4.194709  -0.002  1.676941  -0.001295  0.654893  -0.000275  4.186479  -0.002  0.209959  0.591747  0.000227  4.199396  -0.002
C  C74  1  0.56278821  0.82247002  0.86109467  1  0.658297  0.00256  3.900734  0.006  1.615176  0.001178  0.617128  -5.1e-05  4.194351  0.002  1.674597  0.00125  0.654607  0.000218  4.186093  0.002  0.209843  0.591403  -0.000315  4.199026  0.002
C  C75  1  0.06273737  0.67751177  0.63891186  1  0.659124  0.002727  3.900494  0.006  1.615393  0.00127  0.617563  -1.1e-05  4.194629  0.003  1.677114  0.001315  0.65502  0.000252  4.1864  0.002  0.209972  0.591867  -0.000274  4.199299  0.002
C  C76  1  0.60664292  0.10370733  0.45289193  1  0.677572  -0.001765  3.850546  -0.004  1.633728  0.000178  0.633016  0.000886  4.147089  0.0  1.696004  -0.000152  0.67166  0.000468  4.13728  0.0  0.222457  0.606358  0.001261  4.152931  0.0
C  C77  1  0.10689312  0.39637314  0.04714344  1  0.678342  -0.001506  3.851056  -0.003  1.631414  0.000558  0.633685  0.001163  4.14753  0.0  1.691766  0.000184  0.672332  0.000686  4.137732  0.0  0.22341  0.607031  0.001562  4.153337  0.0
C  C78  1  0.39336369  0.89629379  0.54710966  1  0.677718  0.001646  3.850523  0.004  1.633954  -0.000274  0.633109  -0.000938  4.147169  0.0  1.695985  9.3e-05  0.671764  -0.0005  4.137339  0.0  0.222498  0.606447  -0.001336  4.153009  0.0
C  C79  1  0.89309973  0.60362090  0.95285627  1  0.678245  -0.001444  3.851097  -0.003  1.63091  0.000637  0.633733  0.00121  4.147524  0.0  1.692043  0.00024  0.672377  0.000719  4.137732  0.0  0.22332  0.607064  0.001611  4.153326  0.0
C  C80  1  0.47881227  0.80581699  0.11994885  1  0.669195  -0.002081  3.835487  -0.003  1.626062  -0.002433  0.629152  -0.001852  4.126436  -0.003  1.689925  -0.001899  0.670873  -0.001456  4.117865  -0.002  0.22087  0.599875  -0.002094  4.131373  -0.003
C  C81  1  0.97848621  0.69424486  0.38010097  1  0.66945  0.0022  3.835937  0.006  1.625541  -0.001071  0.629318  -0.002839  4.127253  0.0  1.689367  -0.000172  0.671059  -0.001765  4.118755  0.0  0.221111  0.599994  -0.003437  4.132146  -0.001
C  C82  1  0.52120259  0.19418411  0.88004493  1  0.669179  -0.002217  3.835597  -0.003  1.625079  -0.002574  0.629075  -0.001952  4.126672  -0.003  1.689692  -0.001998  0.670796  -0.001532  4.118095  -0.002  0.220829  0.59981  -0.002202  4.131628  -0.003
C  C83  1  0.02151765  0.30574684  0.61990711  1  0.669522  -0.002141  3.835494  -0.006  1.625157  0.001168  0.629348  0.002881  4.126853  0.0  1.689592  0.000227  0.67109  0.001784  4.118346  0.0  0.221168  0.600028  0.003482  4.131762  0.001
N  N84  1  0.95951957  0.97458447  0.71921389  1  -0.230859  -0.05447  3.305491  -0.07  -0.749035  -0.069629  -0.199116  -0.047004  3.629613  -0.065  -0.822396  -0.062191  -0.224868  -0.041514  3.651873  -0.06  -0.256629  -0.181523  -0.043549  3.61537  -0.058
N  N85  1  0.45952720  0.52535041  0.78083252  1  -0.230863  -0.052864  3.304101  -0.068  -0.74698  -0.068623  -0.199138  -0.046265  3.628258  -0.064  -0.818784  -0.061738  -0.224746  -0.041156  3.65052  -0.059  -0.256565  -0.181593  -0.042203  3.614063  -0.056
N  N86  1  0.04049253  0.02541351  0.28078868  1  -0.230889  0.054307  3.305487  0.07  -0.748882  0.069471  -0.199092  0.046855  3.629503  0.065  -0.822043  0.062071  -0.224848  0.041383  3.651768  0.06  -0.256616  -0.181512  0.043355  3.615278  0.058
N  N87  1  0.54046290  0.47466015  0.21916756  1  -0.230797  -0.052995  3.303961  -0.068  -0.746333  -0.068834  -0.198986  -0.046391  3.628003  -0.064  -0.817818  -0.061882  -0.224581  -0.041239  3.650273  -0.06  -0.256441  -0.181453  -0.042367  3.613837  -0.056
N  N88  1  0.95967446  0.07306753  0.71743617  1  -0.23746  0.042787  3.278533  0.056  -0.745134  0.056547  -0.209559  0.038397  3.61191  0.053  -0.78332  0.051765  -0.234732  0.034733  3.630439  0.051  -0.257188  -0.192504  0.03398  3.600899  0.046
N  N89  1  0.45977934  0.42686828  0.78262027  1  -0.236823  0.042799  3.2785  0.056  -0.748975  0.05623  -0.20881  0.038119  3.611888  0.053  -0.788797  0.051405  -0.234076  0.034453  3.630479  0.05  -0.256856  -0.191703  0.033993  3.600732  0.046
N  N90  1  0.04032802  0.92692886  0.28256015  1  -0.237304  -0.042937  3.278545  -0.056  -0.745041  -0.056655  -0.209392  -0.038506  3.611847  -0.053  -0.78356  -0.05183  -0.234583  -0.034822  3.630397  -0.051  -0.257158  -0.192362  -0.034152  3.600835  -0.046
N  N91  1  0.54021902  0.57313911  0.21737439  1  -0.236755  0.042751  3.278523  0.056  -0.749512  0.056111  -0.208753  0.03806  3.611835  0.053  -0.788707  0.051346  -0.234045  0.034427  3.630426  0.05  -0.256878  -0.191629  0.033902  3.600665  0.046
N  N92  1  0.98019494  0.08697367  0.87622419  1  0.092525  -0.000455  3.601371  0.0  -0.961008  -0.000458  0.212809  -0.000337  3.779413  0.0  -1.014379  -0.000386  0.203608  -0.000289  3.795783  0.0  -0.133665  0.217915  -0.000352  3.76915  0.0
N  N93  1  0.48020492  0.41293048  0.62381121  1  0.092149  -0.000285  3.601738  0.0  -0.959449  -0.000286  0.213042  -0.000209  3.779095  0.0  -1.01191  -0.000278  0.203858  -0.000199  3.795463  0.0  -0.133617  0.218137  -0.000201  3.768832  0.0
N  N94  1  0.01980342  0.91302273  0.12377496  1  0.092659  0.000378  3.60121  0.0  -0.960474  0.000354  0.212972  0.000243  3.779188  0.0  -1.01436  0.000307  0.203772  0.000215  3.795549  0.0  -0.13367  0.218077  0.000257  3.768923  0.0
N  N95  1  0.51980169  0.58708794  0.37618891  1  0.092084  -0.000362  3.602509  0.0  -0.959646  -0.000381  0.213019  -0.000297  3.77971  0.0  -1.011656  -0.000337  0.203839  -0.000267  3.796071  0.0  -0.133576  0.218114  -0.000297  3.769446  0.0
N  N96  1  0.97237935  0.12564985  0.98280076  1  -0.537692  0.001606  2.890696  0.002  -0.772617  0.001216  -0.558231  0.000713  3.123743  0.001  -0.790714  0.000681  -0.568243  0.000382  3.121385  0.0  -0.504079  -0.550073  0.000919  3.12533  0.001
N  N97  1  0.47238502  0.37428976  0.51724099  1  -0.537835  0.002132  2.89109  0.002  -0.772167  0.001525  -0.558525  0.000953  3.124181  0.001  -0.790773  0.000788  -0.568564  0.000485  3.121852  0.001  -0.504183  -0.550343  0.001295  3.125721  0.001
N  N98  1  0.02761351  0.87435205  0.01719758  1  -0.537761  -0.002039  2.890831  -0.002  -0.772601  -0.001512  -0.558381  -0.000931  3.12378  -0.001  -0.79105  -0.000797  -0.568393  -0.00048  3.121417  -0.001  -0.50412  -0.550226  -0.001228  3.125364  -0.001
N  N99  1  0.52761472  0.62572551  0.48275727  1  -0.53775  0.001681  2.891184  0.002  -0.770268  0.001241  -0.558533  0.000724  3.124142  0.001  -0.790501  0.000712  -0.568571  0.000388  3.121806  0.0  -0.504126  -0.550355  0.00095  3.125678  0.001
O  O100  1  0.54256300  0.25967606  0.17034456  1  -0.624063  -0.074806  2.052318  -0.102  -1.152616  -0.0807  -0.601303  -0.050666  2.339705  -0.075  -1.205734  -0.063358  -0.644536  -0.039801  2.328734  -0.062  -0.337605  -0.570258  -0.050157  2.346685  -0.072
O  O101  1  0.04262004  0.24032826  0.32957251  1  -0.62424  0.074717  2.052603  0.102  -1.152476  0.080778  -0.601425  0.050661  2.340045  0.075  -1.206123  0.063349  -0.644647  0.039755  2.329047  0.062  -0.337587  -0.570486  0.050098  2.346954  0.072
O  O102  1  0.45739547  0.74033057  0.82965763  1  -0.624  -0.074576  2.052709  -0.101  -1.152595  -0.080559  -0.601281  -0.050591  2.340064  -0.075  -1.205685  -0.063237  -0.64452  -0.039745  2.329084  -0.062  -0.337519  -0.57022  -0.050082  2.347012  -0.071
O  O103  1  0.95739345  0.75966580  0.67043288  1  -0.624425  -0.075042  2.052545  -0.102  -1.152295  -0.080902  -0.601541  -0.050827  2.340078  -0.075  -1.206051  -0.063453  -0.64476  -0.039908  2.329086  -0.062  -0.337631  -0.570602  -0.050307  2.34698  -0.072
O  O104  1  0.31806114  0.15730563  0.07023502  1  -0.615884  -0.000326  1.986823  -0.001  -1.207208  -0.000358  -0.576298  -1.6e-05  2.221464  -0.001  -1.247619  0.000556  -0.60145  0.000478  2.212962  0.0  -0.317298  -0.558529  -0.000453  2.22667  -0.001
O  O105  1  0.81817936  0.34267972  0.42982121  1  -0.616018  0.000285  1.98664  0.001  -1.207114  0.000338  -0.576477  2.4e-05  2.221451  0.001  -1.249333  -0.000651  -0.601629  -0.000511  2.212969  0.0  -0.317252  -0.558692  0.000509  2.226619  0.001
O  O106  1  0.68192758  0.84268055  0.92976820  1  -0.615808  -2.1e-05  1.986253  -0.001  -1.207082  -0.000127  -0.576289  0.00014  2.220863  0.0  -1.247572  0.000776  -0.601448  0.000614  2.212372  0.0  -0.317296  -0.558517  -0.000301  2.226059  -0.001
O  O107  1  0.18182863  0.65731276  0.57018148  1  -0.616169  -0.000393  1.986298  -0.001  -1.206984  -0.000428  -0.576583  -8.7e-05  2.221188  -0.001  -1.249427  0.000522  -0.601739  0.000425  2.212708  0.0  -0.31729  -0.558813  -0.000516  2.226363  -0.001
O  O108  1  0.48840551  0.12584801  0.52298262  1  -0.607104  -0.000757  1.984399  0.0  -1.212133  -0.000178  -0.556666  -0.000344  2.211754  0.0  -1.250027  -0.000682  -0.582217  -0.000581  2.198916  0.0  -0.299571  -0.538699  -0.000143  2.22042  0.0
O  O109  1  0.98878372  0.37408429  0.97702282  1  -0.607069  0.001596  1.984504  0.003  -1.210813  0.002745  -0.55687  0.001552  2.212046  0.003  -1.247189  0.001342  -0.582422  0.000732  2.199222  0.002  -0.299726  -0.53886  0.002051  2.220638  0.003
O  O110  1  0.51160248  0.87415468  0.47701813  1  -0.607197  0.000534  1.984216  0.0  -1.212343  -8.5e-05  -0.556714  0.000176  2.211595  0.0  -1.250095  0.000503  -0.582271  0.000476  2.198751  0.0  -0.299622  -0.538759  -6.8e-05  2.220278  -0.001
O  O111  1  0.01120363  0.62591368  0.02297833  1  -0.606907  0.001817  1.984427  0.003  -1.21073  0.003004  -0.55684  0.001725  2.211949  0.003  -1.247238  0.00153  -0.582409  0.000846  2.199172  0.002  -0.299696  -0.538832  0.002235  2.220532  0.003
O  O112  1  0.78127299  0.10661721  0.46721367  1  -0.620685  0.061793  2.184964  0.087  -1.174594  0.064919  -0.600463  0.041073  2.495363  0.063  -1.234607  0.049909  -0.646472  0.031665  2.483265  0.051  -0.327204  -0.567316  0.040486  2.503093  0.059
O  O113  1  0.28155947  0.39354938  0.03287252  1  -0.620908  0.06444  2.186651  0.088  -1.17256  0.068396  -0.600879  0.043042  2.497321  0.064  -1.232329  0.053781  -0.646874  0.033796  2.485315  0.052  -0.327843  -0.567696  0.042201  2.504938  0.06
O  O114  1  0.21873912  0.89336975  0.53278344  1  -0.620788  -0.061798  2.185062  -0.086  -1.174787  -0.064828  -0.600493  -0.041059  2.495438  -0.062  -1.234767  -0.049831  -0.646515  -0.031662  2.483346  -0.051  -0.327261  -0.567359  -0.040531  2.503163  -0.059
O  O115  1  0.71842926  0.60644464  0.96712009  1  -0.62093  0.064389  2.186689  0.088  -1.172078  0.06834  -0.600844  0.042998  2.497277  0.064  -1.232543  0.053738  -0.646867  0.033764  2.485259  0.052  -0.327834  -0.567638  0.042157  2.504877  0.06
O  O116  1  0.56760276  0.74749203  0.15615145  1  -0.603178  0.055536  2.082395  0.076  -1.167758  0.066982  -0.574271  0.042816  2.361303  0.063  -1.220939  0.054125  -0.615831  0.034622  2.347711  0.054  -0.319091  -0.545331  0.04125  2.371439  0.059
O  O117  1  0.06674917  0.75268111  0.34378423  1  -0.6029  -0.05715  2.083018  -0.078  -1.168424  -0.070446  -0.574359  -0.044549  2.362397  -0.066  -1.222422  -0.05594  -0.616184  -0.035441  2.348939  -0.055  -0.319293  -0.545052  -0.043757  2.372452  -0.063
O  O118  1  0.43244374  0.25250984  0.84383836  1  -0.603155  0.055836  2.082576  0.076  -1.167475  0.067119  -0.574269  0.042914  2.361484  0.064  -1.221005  0.054244  -0.615799  0.034703  2.347902  0.054  -0.319154  -0.545351  0.041336  2.371637  0.059
O  O119  1  0.93325743  0.24731449  0.65621250  1  -0.602893  0.056665  2.083379  0.078  -1.168673  0.070202  -0.574317  0.044354  2.362781  0.066  -1.22252  0.055713  -0.616117  0.03526  2.3493  0.055  -0.319253  -0.545  0.043521  2.372862  0.063
O  O120  1  0.38757501  0.77560176  0.03618836  1  -0.608225  -0.050502  2.130909  -0.069  -1.182025  -0.058749  -0.574563  -0.037297  2.415226  -0.055  -1.232444  -0.048388  -0.614881  -0.030716  2.403669  -0.047  -0.317389  -0.544437  -0.036035  2.421983  -0.051
O  O121  1  0.88734963  0.72448534  0.46392476  1  -0.608213  -0.050347  2.131872  -0.069  -1.180851  -0.058344  -0.574694  -0.036804  2.416376  -0.055  -1.231265  -0.046841  -0.614872  -0.029615  2.404477  -0.046  -0.317464  -0.544697  -0.036149  2.42329  -0.052
O  O122  1  0.61241647  0.22439937  0.96381678  1  -0.608091  -0.050573  2.130814  -0.069  -1.181526  -0.058844  -0.574429  -0.037361  2.415169  -0.055  -1.232142  -0.04839  -0.614743  -0.03072  2.403621  -0.047  -0.317288  -0.544311  -0.03615  2.421953  -0.051
O  O123  1  0.11268310  0.27550713  0.53607722  1  -0.608333  0.050312  2.131177  0.069  -1.180361  0.058423  -0.574876  0.036795  2.41579  0.055  -1.231299  0.046837  -0.615069  0.029559  2.403895  0.046  -0.317611  -0.54488  0.036146  2.422704  0.052
O  O124  1  0.14420659  0.05710357  0.47346421  1  -0.885853  -0.006601  2.026559  -0.008  -1.184709  -0.007927  -0.902246  -0.00459  2.35889  -0.006  -1.251906  -0.005608  -0.972431  -0.003128  2.329816  -0.004  -0.589871  -0.850373  -0.003326  2.379856  -0.005
O  O125  1  0.64450199  0.44283161  0.02646769  1  -0.886036  0.00526  2.025864  0.009  -1.184196  0.006262  -0.902692  0.003731  2.358549  0.007  -1.25177  0.002914  -0.972494  0.001715  2.329447  0.004  -0.590035  -0.851159  0.002936  2.379558  0.005
O  O126  1  0.85580414  0.94289283  0.52653566  1  -0.885867  0.006472  2.02647  0.008  -1.184553  0.007919  -0.90232  0.004519  2.358822  0.006  -1.252087  0.005614  -0.972501  0.003058  2.329768  0.004  -0.5899  -0.850426  0.003199  2.379793  0.005
O  O127  1  0.35548537  0.55716793  0.97353191  1  -0.885962  0.005256  2.025957  0.009  -1.184135  0.006263  -0.902645  0.003727  2.358606  0.007  -1.251661  0.002904  -0.972429  0.001705  2.329465  0.004  -0.590033  -0.851103  0.002942  2.379619  0.005
