# generated using pymatgen
data_NiH22C22N4O9
_symmetry_space_group_name_H-M   'P 1'
_cell_length_a   10.42832871
_cell_length_b   10.54911039
_cell_length_c   12.05296214
_cell_angle_alpha   89.99998901
_cell_angle_beta   112.88638531
_cell_angle_gamma   89.99961027
_symmetry_Int_Tables_number   1
_chemical_formula_structural   NiH22C22N4O9
_chemical_formula_sum   'Ni2 H44 C44 N8 O18'
_cell_volume   1221.56046347
_cell_formula_units_Z   2
loop_
 _symmetry_equiv_pos_site_id
 _symmetry_equiv_pos_as_xyz
  1  'x, y, z'
loop_
 _atom_site_type_symbol
 _atom_site_label
 _atom_site_symmetry_multiplicity
 _atom_site_fract_x
 _atom_site_fract_y
 _atom_site_fract_z
 _atom_site_occupancy
 _atom_site_pbe_bader_spin_density
 _atom_site_pbe_cm5_charge
 _atom_site_pbe_ddec_charge
 _atom_site_pbe_ddec_spin_density
 _atom_site_pbe_ddec_sum_bond_order
 _atom_site_pbe_magmom
Ni  Ni0  1  0.26328905  0.13876789  0.48997947  1  0  0.635202  0.567521  0  2.810481  0
Ni  Ni1  1  0.73672300  0.63876854  0.51002155  1  0  0.635238  0.567535  0  2.810539  0
H  H2  1  0.06280761  0.30149521  0.28588821  1  0  0.269332  0.353353  0  1.000044  0
H  H3  1  0.93718579  0.80148478  0.71409955  1  0  0.269325  0.353392  0  0.999961  0
H  H4  1  0.08913408  0.30381859  0.16502864  1  0  0.270443  0.362503  0  0.98346  0
H  H5  1  0.91086264  0.80380823  0.83495450  1  0  0.270518  0.362633  0  0.983257  0
H  H6  1  0.41000366  0.89457605  0.65304488  1  0  0.276069  0.372685  0  0.965814  0
H  H7  1  0.58999884  0.39459310  0.34696280  1  0  0.276101  0.372723  0  0.965784  0
H  H8  1  0.27742080  0.88951162  0.68002110  1  0  0.286272  0.368139  0  0.954251  0
H  H9  1  0.72257773  0.38951828  0.31998100  1  0  0.286254  0.368098  0  0.954276  0
H  H10  1  0.26235484  0.96888072  0.10264218  1  0  0.11518  0.137826  0  1.003963  0
H  H11  1  0.73763803  0.46887821  0.89735459  1  0  0.115181  0.137831  0  1.003939  0
H  H12  1  0.95721928  0.98489263  0.61546456  1  0  0.115337  0.151069  0  1.009821  0
H  H13  1  0.04277502  0.48490407  0.38451864  1  0  0.115372  0.151145  0  1.009539  0
H  H14  1  0.70727831  0.99099829  0.63553518  1  0  0.119396  0.159704  0  1.002201  0
H  H15  1  0.29272489  0.49100702  0.36446284  1  0  0.119367  0.159666  0  1.002284  0
H  H16  1  0.41416406  0.37187608  0.54942306  1  0  0.12578  0.10306  0  1.03599  0
H  H17  1  0.58582625  0.87186744  0.45057690  1  0  0.125861  0.10317  0  1.035795  0
H  H18  1  0.20197735  0.14274654  0.69999427  1  0  0.132138  0.115917  0  0.980961  0
H  H19  1  0.79802960  0.64275075  0.30000160  1  0  0.132115  0.115865  0  0.980837  0
H  H20  1  0.26218518  0.28343489  0.88072899  1  0  0.120256  0.135498  0  0.97476  0
H  H21  1  0.73782029  0.78344916  0.11927804  1  0  0.120305  0.135564  0  0.97477  0
H  H22  1  0.48263414  0.52276526  0.72304037  1  0  0.112934  0.119804  0  1.013705  0
H  H23  1  0.51736142  0.02276204  0.27697374  1  0  0.112924  0.119763  0  1.013674  0
H  H24  1  0.17294271  0.52233216  0.80780314  1  0  0.110524  0.094276  0  1.008612  0
H  H25  1  0.82705549  0.02234198  0.19219699  1  0  0.110451  0.094137  0  1.00881  0
H  H26  1  0.20051094  0.68526048  0.84596379  1  0  0.110561  0.099626  0  0.970566  0
H  H27  1  0.79949948  0.18527432  0.15404331  1  0  0.110518  0.099539  0  0.970525  0
H  H28  1  0.00718861  0.60845561  0.89683149  1  0  0.113526  0.096339  0  1.026481  0
H  H29  1  0.99280914  0.10845106  0.10316353  1  0  0.113604  0.096474  0  1.026533  0
H  H30  1  0.10982300  0.48004912  0.98278573  1  0  0.108742  0.099224  0  1.010652  0
H  H31  1  0.89016984  0.98004534  0.01720939  1  0  0.108718  0.099218  0  1.010633  0
H  H32  1  0.50832304  0.59836802  0.13028795  1  0  0.116922  0.114991  0  1.008729  0
H  H33  1  0.49167756  0.09837677  0.86971722  1  0  0.116915  0.114928  0  1.008672  0
H  H34  1  0.41770500  0.73651462  0.05009435  1  0  0.103819  0.08535  0  0.998691  0
H  H35  1  0.58229195  0.23651791  0.94989631  1  0  0.103848  0.085371  0  0.998738  0
H  H36  1  0.34330943  0.69681289  0.21640563  1  0  0.113716  0.09962  0  0.995783  0
H  H37  1  0.65668763  0.19680442  0.78359002  1  0  0.113681  0.099541  0  0.995771  0
H  H38  1  0.30954985  0.53432255  0.17612374  1  0  0.122164  0.115314  0  0.94551  0
H  H39  1  0.69044398  0.03432423  0.82387813  1  0  0.122157  0.115255  0  0.945418  0
H  H40  1  0.31147505  0.12882669  0.26858936  1  0  0.129504  0.108845  0  1.000589  0
H  H41  1  0.68850580  0.62882465  0.73140209  1  0  0.12948  0.108847  0  1.000532  0
H  H42  1  0.11143861  0.91234363  0.43926046  1  0  0.126348  0.1034  0  1.012358  0
H  H43  1  0.88856498  0.41234415  0.56074265  1  0  0.126342  0.103371  0  1.012377  0
H  H44  1  0.04233103  0.74880884  0.27621565  1  0  0.110062  0.118522  0  1.014579  0
H  H45  1  0.95767577  0.24881535  0.72379101  1  0  0.110099  0.118609  0  1.014611  0
C  C46  1  0.22576961  0.95246237  0.17490923  1  0  -0.075163  -0.157826  0  3.924777  0
C  C47  1  0.77423057  0.45245682  0.82509266  1  0  -0.075199  -0.157821  0  3.924618  0
C  C48  1  0.97288373  0.18444791  0.44171764  1  0  0.204982  0.516264  0  4.27627  0
C  C49  1  0.02710721  0.68446685  0.55827497  1  0  0.204988  0.516255  0  4.276656  0
C  C50  1  0.86778515  0.14038862  0.48681118  1  0  0.057197  0.055085  0  3.971711  0
C  C51  1  0.13221242  0.64040590  0.51318213  1  0  0.057222  0.055042  0  3.971575  0
C  C52  1  0.87149547  0.04886237  0.56970041  1  0  -0.102911  -0.171118  0  3.972314  0
C  C53  1  0.12850930  0.54887312  0.43028798  1  0  -0.102932  -0.171176  0  3.972235  0
C  C54  1  0.74094494  0.05323002  0.58049992  1  0  -0.09969  -0.172513  0  3.976491  0
C  C55  1  0.25905933  0.55323416  0.41950075  1  0  -0.099727  -0.172544  0  3.97653  0
C  C56  1  0.66492852  0.14740130  0.50365551  1  0  0.061662  0.064433  0  3.952068  0
C  C57  1  0.33507726  0.64740862  0.49634243  1  0  0.061678  0.064424  0  3.951962  0
C  C58  1  0.52156261  0.19578221  0.46963721  1  0  0.198242  0.494284  0  4.306453  0
C  C59  1  0.47844415  0.69577995  0.53038103  1  0  0.198249  0.494357  0  4.306867  0
C  C60  1  0.38283327  0.35701140  0.62460523  1  0  0.051396  0.084164  0  3.900566  0
C  C61  1  0.61716565  0.85700449  0.37539285  1  0  0.051285  0.083814  0  3.900373  0
C  C62  1  0.26209485  0.22911380  0.70899480  1  0  0.056958  0.096574  0  3.883284  0
C  C63  1  0.73791112  0.72912792  0.29100989  1  0  0.056989  0.096606  0  3.882912  0
C  C64  1  0.29646875  0.30799611  0.80867299  1  0  -0.075467  -0.16668  0  3.958835  0
C  C65  1  0.70353351  0.80802099  0.19133041  1  0  -0.07556  -0.166817  0  3.958642  0
C  C66  1  0.42050662  0.43963145  0.72146935  1  0  -0.078646  -0.149656  0  3.95704  0
C  C67  1  0.57949482  0.93963439  0.27852967  1  0  -0.078685  -0.149529  0  3.957052  0
C  C68  1  0.37918035  0.41494701  0.81646428  1  0  0.010254  0.028128  0  3.990425  0
C  C69  1  0.62081597  0.91496585  0.18353538  1  0  0.01024  0.028055  0  3.990784  0
C  C70  1  0.44003394  0.49375244  0.92882727  1  0  0.241732  0.411718  0  4.142516  0
C  C71  1  0.55997816  0.99375760  0.07118558  1  0  0.241778  0.411905  0  4.142542  0
C  C72  1  0.20717276  0.58895184  0.88341984  1  0  -0.057115  -0.083787  0  3.905501  0
C  C73  1  0.79283021  0.08896102  0.11658038  1  0  -0.057037  -0.083459  0  3.905321  0
C  C74  1  0.11300207  0.57826688  0.95298779  1  0  -0.06224  -0.092154  0  3.888929  0
C  C75  1  0.88700288  0.07826503  0.04701811  1  0  -0.062201  -0.092242  0  3.889001  0
C  C76  1  0.40636376  0.63718874  0.07341071  1  0  -0.059549  -0.087977  0  3.877122  0
C  C77  1  0.59363772  0.13719292  0.92659148  1  0  -0.059574  -0.087882  0  3.87697  0
C  C78  1  0.30858768  0.63057713  0.14040515  1  0  -0.048163  -0.072744  0  3.871157  0
C  C79  1  0.69141581  0.13058162  0.85960108  1  0  -0.048082  -0.072569  0  3.871009  0
C  C80  1  0.08874116  0.75770241  0.07026790  1  0  0.24866  0.412478  0  4.127055  0
C  C81  1  0.91125364  0.25770242  0.92971950  1  0  0.248613  0.412386  0  4.127167  0
C  C82  1  0.14688774  0.84553894  0.17617765  1  0  0.011329  0.033492  0  3.984526  0
C  C83  1  0.85310931  0.34552809  0.82381642  1  0  0.011382  0.033485  0  3.984815  0
C  C84  1  0.25659079  0.04067538  0.26767409  1  0  0.055951  0.085583  0  3.895409  0
C  C85  1  0.74340617  0.54067200  0.73232726  1  0  0.056017  0.085639  0  3.895337  0
C  C86  1  0.14114218  0.92046747  0.36248786  1  0  0.049013  0.088651  0  3.896176  0
C  C87  1  0.85886561  0.42046149  0.63751426  1  0  0.049111  0.08888  0  3.896218  0
C  C88  1  0.10377827  0.83049418  0.27164506  1  0  -0.081173  -0.159947  0  3.967634  0
C  C89  1  0.89622697  0.33049544  0.72835859  1  0  -0.081291  -0.160175  0  3.96808  0
N  N90  1  0.30531127  0.25294318  0.61893294  1  0  -0.338202  -0.150765  0  3.642515  0
N  N91  1  0.69469635  0.75294236  0.38107900  1  0  -0.338114  -0.150448  0  3.642284  0
N  N92  1  0.35133155  0.56189783  0.96293506  1  0  -0.273377  -0.100683  0  3.609318  0
N  N93  1  0.64866721  0.06189768  0.03707027  1  0  -0.273341  -0.100793  0  3.609323  0
N  N94  1  0.16619612  0.66059821  0.05871677  1  0  -0.267569  -0.089719  0  3.633557  0
N  N95  1  0.83380727  0.16059688  0.94128612  1  0  -0.26767  -0.089774  0  3.633446  0
N  N96  1  0.21579095  0.02426936  0.36012116  1  0  -0.338012  -0.156442  0  3.652427  0
N  N97  1  0.78420821  0.52426103  0.63988097  1  0  -0.338054  -0.15658  0  3.65244  0
O  O98  1  0.08663072  0.11848624  0.49009860  1  0  -0.301219  -0.491519  0  2.548768  0
O  O99  1  0.91337527  0.61847900  0.50989940  1  0  -0.301272  -0.491598  0  2.548948  0
O  O100  1  0.94823586  0.27404326  0.36816691  1  0  -0.301525  -0.519346  0  2.176125  0
O  O101  1  0.05174450  0.77405058  0.63180866  1  0  -0.301495  -0.519252  0  2.17683  0
O  O102  1  0.74168306  0.20113355  0.44567797  1  0  -0.112253  -0.120942  0  2.688208  0
O  O103  1  0.25832345  0.70113473  0.55431777  1  0  -0.112232  -0.120881  0  2.688355  0
O  O104  1  0.47953973  0.29097430  0.40363031  1  0  -0.299268  -0.506792  0  2.170849  0
O  O105  1  0.52047290  0.79096126  0.59638096  1  0  -0.29917  -0.506685  0  2.171434  0
O  O106  1  0.13218910  0.32161611  0.25167020  1  0  -0.617771  -0.790527  0  1.942586  0
O  O107  1  0.86779681  0.82159855  0.74831652  1  0  -0.617813  -0.790685  0  1.942428  0
O  O108  1  0.45143248  0.12614339  0.51569913  1  0  -0.304618  -0.47028  0  2.442839  0
O  O109  1  0.54856896  0.62614352  0.48430636  1  0  -0.304727  -0.470458  0  2.442526  0
O  O110  1  0.35281900  0.94663560  0.68441132  1  0  -0.604894  -0.776425  0  1.935991  0
O  O111  1  0.64718075  0.44665228  0.31560287  1  0  -0.604916  -0.776395  0  1.936082  0
O  O112  1  0.56842057  0.49045500  0.98558457  1  0  -0.300432  -0.479942  0  2.081638  0
O  O113  1  0.43157072  0.99047439  0.01442161  1  0  -0.300517  -0.480125  0  2.081202  0
O  O114  1  0.96671466  0.77941823  0.99767727  1  0  -0.29235  -0.485676  0  2.157755  0
O  O115  1  0.03328270  0.27941870  0.00232185  1  0  -0.292313  -0.485612  0  2.157662  0
