# generated using pymatgen
data_NaCdH22C21S3N3O5
_symmetry_space_group_name_H-M   'P 1'
_cell_length_a   10.35868987
_cell_length_b   11.44323811
_cell_length_c   11.43788710
_cell_angle_alpha   91.24041869
_cell_angle_beta   106.61023073
_cell_angle_gamma   107.72074587
_symmetry_Int_Tables_number   1
_chemical_formula_structural   NaCdH22C21S3N3O5
_chemical_formula_sum   'Na2 Cd2 H44 C42 S6 N6 O10'
_cell_volume   1228.78988240
_cell_formula_units_Z   2
loop_
 _symmetry_equiv_pos_site_id
 _symmetry_equiv_pos_as_xyz
  1  'x, y, z'
loop_
 _atom_site_type_symbol
 _atom_site_label
 _atom_site_symmetry_multiplicity
 _atom_site_fract_x
 _atom_site_fract_y
 _atom_site_fract_z
 _atom_site_occupancy
 _atom_site_hle17_bader_spin_density
 _atom_site_hle17_ddec_charge
 _atom_site_hle17_ddec_spin_density
 _atom_site_hle17_ddec_sum_bond_order
 _atom_site_hle17_magmom
 _atom_site_hse06_10hf_bader_spin_density
 _atom_site_hse06_10hf_ddec_charge
 _atom_site_hse06_10hf_ddec_spin_density
 _atom_site_hse06_10hf_ddec_sum_bond_order
 _atom_site_hse06_10hf_magmom
 _atom_site_hse06_bader_spin_density
 _atom_site_hse06_ddec_charge
 _atom_site_hse06_ddec_spin_density
 _atom_site_hse06_ddec_sum_bond_order
 _atom_site_hse06_magmom
 _atom_site_pbe_bader_spin_density
 _atom_site_pbe_cm5_charge
 _atom_site_pbe_ddec_charge
 _atom_site_pbe_ddec_spin_density
 _atom_site_pbe_ddec_sum_bond_order
 _atom_site_pbe_magmom
Na  Na0  1  0.79017596  0.62724072  0.26682889  1  0  0.870172  0  0.442353  0  0  0.794867  0  0.627068  0  0  0.809102  0  0.604221  0  0  0.71036  0.78439  0  0.643695  0
Na  Na1  1  0.20982453  0.37275849  0.73316904  1  0  0.870176  0  0.442358  0  0  0.794876  0  0.627063  0  0  0.809109  0  0.60422  0  0  0.710362  0.784398  0  0.643688  0
Cd  Cd2  1  0.03184849  0.75444246  0.97641216  1  0  0.887856  0  2.018902  0  0  0.723872  0  2.49808  0  0  0.764181  0  2.462329  0  0  0.649277  0.697333  0  2.519616  0
Cd  Cd3  1  0.96815097  0.24555675  0.02358725  1  0  0.887853  0  2.01886  0  0  0.723869  0  2.498032  0  0  0.76418  0  2.462281  0  0  0.649276  0.697328  0  2.519567  0
H  H4  1  0.22489982  0.74221346  0.64036709  1  0  0.108833  0  0.991039  0  0  0.119367  0  1.056059  0  0  0.12165  0  1.055265  0  0  0.100162  0.117698  0  1.056814  0
H  H5  1  0.77510100  0.25778668  0.35963269  1  0  0.108795  0  0.991094  0  0  0.11931  0  1.056139  0  0  0.121593  0  1.055345  0  0  0.100142  0.11764  0  1.056892  0
H  H6  1  0.46853685  0.88573482  0.74828411  1  0  0.088607  0  0.952296  0  0  0.100077  0  1.012666  0  0  0.103064  0  1.011233  0  0  0.092648  0.097775  0  1.013968  0
H  H7  1  0.53146229  0.11426624  0.25171612  1  0  0.088641  0  0.952286  0  0  0.100106  0  1.012651  0  0  0.103095  0  1.011217  0  0  0.092691  0.097802  0  1.013951  0
H  H8  1  0.65933610  0.08496037  0.76468820  1  0  0.0845  0  0.987882  0  0  0.090547  0  1.05878  0  0  0.092857  0  1.058577  0  0  0.086051  0.088776  0  1.059236  0
H  H9  1  0.34066506  0.91504069  0.23531257  1  0  0.084502  0  0.987903  0  0  0.090564  0  1.058788  0  0  0.092864  0  1.058595  0  0  0.086053  0.088792  0  1.059246  0
H  H10  1  0.61553490  0.24023024  0.62408398  1  0  0.071935  0  0.976794  0  0  0.079059  0  1.048513  0  0  0.081909  0  1.047127  0  0  0.086804  0.077043  0  1.04954  0
H  H11  1  0.38446560  0.75977175  0.37591663  1  0  0.071954  0  0.97679  0  0  0.07908  0  1.048502  0  0  0.081927  0  1.047124  0  0  0.08679  0.077065  0  1.049531  0
H  H12  1  0.37685016  0.20104275  0.46957759  1  0  0.086229  0  0.960887  0  0  0.094347  0  1.029002  0  0  0.097766  0  1.026833  0  0  0.092993  0.0918  0  1.030858  0
H  H13  1  0.62314998  0.79895831  0.53042465  1  0  0.086231  0  0.96087  0  0  0.094331  0  1.029002  0  0  0.097748  0  1.026834  0  0  0.092996  0.091788  0  1.030857  0
H  H14  1  0.13243968  0.06329509  0.36949299  1  0  0.099732  0  0.993393  0  0  0.106525  0  1.067914  0  0  0.109462  0  1.066855  0  0  0.094096  0.104203  0  1.069466  0
H  H15  1  0.86756080  0.93670412  0.63050581  1  0  0.099737  0  0.993358  0  0  0.106527  0  1.067885  0  0  0.109465  0  1.066823  0  0  0.094098  0.104207  0  1.069438  0
H  H16  1  0.89133133  0.02022657  0.29942548  1  0  0.063717  0  0.943655  0  0  0.073131  0  1.017088  0  0  0.072337  0  1.019139  0  0  0.101775  0.07365  0  1.015804  0
H  H17  1  0.10866848  0.97977357  0.70057403  1  0  0.06371  0  0.943673  0  0  0.073119  0  1.017113  0  0  0.072325  0  1.019163  0  0  0.101767  0.073639  0  1.015828  0
H  H18  1  0.94762810  0.94732531  0.19105019  1  0  0.06193  0  0.950201  0  0  0.073356  0  1.018442  0  0  0.072452  0  1.019928  0  0  0.100169  0.073947  0  1.017506  0
H  H19  1  0.05237171  0.05267483  0.80894845  1  0  0.061992  0  0.950227  0  0  0.073407  0  1.018452  0  0  0.072501  0  1.019941  0  0  0.100207  0.073998  0  1.017516  0
H  H20  1  0.69152301  0.93375319  0.10834435  1  0  0.064358  0  0.928462  0  0  0.079502  0  0.99076  0  0  0.079351  0  0.991069  0  0  0.096844  0.079537  0  0.990648  0
H  H21  1  0.30847782  0.06624695  0.89165457  1  0  0.064362  0  0.928468  0  0  0.079509  0  0.990771  0  0  0.079359  0  0.991081  0  0  0.096849  0.079544  0  0.990655  0
H  H22  1  0.65651675  0.85698285  0.23585956  1  0  0.05794  0  0.961908  0  0  0.06923  0  1.03121  0  0  0.068961  0  1.033011  0  0  0.101219  0.069396  0  1.029995  0
H  H23  1  0.34348342  0.14301821  0.76413919  1  0  0.057934  0  0.961919  0  0  0.069234  0  1.031221  0  0  0.068965  0  1.033024  0  0  0.101224  0.069397  0  1.030003  0
H  H24  1  0.52506166  0.75267504  0.97656694  1  0  0.055191  0  0.947677  0  0  0.068065  0  1.014956  0  0  0.067899  0  1.015341  0  0  0.09448  0.068036  0  1.014798  0
H  H25  1  0.47493881  0.24732418  0.02343274  1  0  0.05517  0  0.947711  0  0  0.068055  0  1.014988  0  0  0.067887  0  1.015373  0  0  0.094495  0.068024  0  1.014829  0
H  H26  1  0.57840049  0.61841434  0.97867693  1  0  0.075267  0  0.935014  0  0  0.087805  0  0.999087  0  0  0.088446  0  0.998704  0  0  0.109298  0.087404  0  0.999172  0
H  H27  1  0.42159997  0.38158488  0.02132449  1  0  0.075243  0  0.935003  0  0  0.087788  0  0.999081  0  0  0.088426  0  0.998696  0  0  0.109294  0.087387  0  0.999167  0
H  H28  1  0.36522987  0.57911621  0.04796157  1  0  0.062952  0  0.92795  0  0  0.078168  0  0.990135  0  0  0.077998  0  0.990773  0  0  0.101187  0.078129  0  0.989871  0
H  H29  1  0.63477093  0.42088393  0.95203996  1  0  0.062982  0  0.927829  0  0  0.078176  0  0.990027  0  0  0.078003  0  0.990662  0  0  0.10122  0.078136  0  0.989762  0
H  H30  1  0.45392177  0.70634046  0.16597268  1  0  0.048464  0  0.957323  0  0  0.05982  0  1.030988  0  0  0.059809  0  1.031773  0  0  0.094741  0.059746  0  1.030474  0
H  H31  1  0.54607872  0.29366153  0.83402792  1  0  0.048438  0  0.957312  0  0  0.059803  0  1.030962  0  0  0.059788  0  1.031744  0  0  0.094742  0.059728  0  1.030443  0
H  H32  1  0.44492683  0.58995033  0.32439304  1  0  0.047577  0  0.943988  0  0  0.060504  0  1.015612  0  0  0.060887  0  1.015064  0  0  0.098239  0.060124  0  1.016212  0
H  H33  1  0.55507297  0.41004982  0.67560735  1  0  0.047601  0  0.943963  0  0  0.060538  0  1.015594  0  0  0.060918  0  1.015043  0  0  0.098248  0.060158  0  1.016191  0
H  H34  1  0.35858058  0.44273642  0.23277842  1  0  0.057661  0  0.950964  0  0  0.07105  0  1.018951  0  0  0.071144  0  1.019098  0  0  0.090875  0.071025  0  1.018675  0
H  H35  1  0.64142023  0.55726372  0.76722136  1  0  0.057647  0  0.951034  0  0  0.071062  0  1.019014  0  0  0.071153  0  1.01916  0  0  0.090884  0.071036  0  1.018739  0
H  H36  1  0.58305963  0.38698409  0.32544583  1  0  0.063567  0  0.929739  0  0  0.077142  0  0.995462  0  0  0.077665  0  0.995185  0  0  0.103661  0.076707  0  0.995783  0
H  H37  1  0.41694016  0.61301605  0.67455543  1  0  0.063547  0  0.929758  0  0  0.077123  0  0.995485  0  0  0.077644  0  0.995209  0  0  0.103648  0.076689  0  0.995808  0
H  H38  1  0.49853426  0.41380644  0.43545981  1  0  0.056962  0  0.935428  0  0  0.072485  0  1.000388  0  0  0.072802  0  1.000133  0  0  0.100134  0.07211  0  1.000809  0
H  H39  1  0.50146452  0.58619370  0.56454119  1  0  0.05699  0  0.935401  0  0  0.072514  0  1.000357  0  0  0.072832  0  1.000102  0  0  0.100141  0.072141  0  1.000777  0
H  H40  1  0.75185546  0.47875723  0.59709373  1  0  0.053661  0  0.933895  0  0  0.069966  0  0.998657  0  0  0.069475  0  0.999434  0  0  0.099128  0.070212  0  0.998174  0
H  H41  1  0.24814670  0.52124383  0.40290730  1  0  0.053685  0  0.933928  0  0  0.069986  0  0.998685  0  0  0.069497  0  0.99946  0  0  0.099133  0.070233  0  0.998202  0
H  H42  1  0.81391218  0.44620427  0.47336509  1  0  0.063791  0  0.934804  0  0  0.075534  0  1.003762  0  0  0.076298  0  1.003003  0  0  0.10517  0.07493  0  1.004398  0
H  H43  1  0.18608797  0.55379679  0.52663454  1  0  0.063827  0  0.934745  0  0  0.075586  0  1.003684  0  0  0.07635  0  1.002925  0  0  0.105187  0.074981  0  1.004322  0
H  H44  1  0.00242445  0.60268321  0.63960370  1  0  0.072121  0  0.946352  0  0  0.084497  0  1.01238  0  0  0.08421  0  1.013426  0  0  0.104947  0.084613  0  1.011809  0
H  H45  1  0.99757706  0.39731878  0.36039630  1  0  0.072119  0  0.946352  0  0  0.084511  0  1.012382  0  0  0.084216  0  1.013427  0  0  0.104968  0.084627  0  1.011813  0
H  H46  1  0.89520809  0.70245978  0.61667180  1  0  0.059387  0  0.925548  0  0  0.070543  0  0.995505  0  0  0.071217  0  0.994755  0  0  0.097944  0.070039  0  0.996124  0
H  H47  1  0.10479207  0.29754128  0.38332696  1  0  0.059345  0  0.925577  0  0  0.07053  0  0.99553  0  0  0.071202  0  0.994776  0  0  0.09793  0.070025  0  0.996149  0
C  C48  1  0.07518540  0.78887908  0.49391977  1  0  0.161151  0  3.831007  0  0  0.149981  0  4.099502  0  0  0.156102  0  4.115598  0  0  0.06411  0.145492  0  4.088892  0
C  C49  1  0.92481543  0.21112106  0.50607915  1  0  0.161174  0  3.831009  0  0  0.149981  0  4.099501  0  0  0.156102  0  4.1156  0  0  0.064098  0.145495  0  4.088882  0
C  C50  1  0.20476014  0.81303146  0.58245286  1  0  -0.22549  0  3.767852  0  0  -0.255455  0  4.022316  0  0  -0.258551  0  4.041876  0  0  -0.107019  -0.253183  0  4.008941  0
C  C51  1  0.79524067  0.18696868  0.41754692  1  0  -0.225423  0  3.76785  0  0  -0.255398  0  4.022322  0  0  -0.258496  0  4.041882  0  0  -0.106976  -0.253124  0  4.008941  0
C  C52  1  0.31374714  0.92832357  0.59806926  1  0  0.056698  0  3.812194  0  0  0.074735  0  4.03428  0  0  0.073809  0  4.059623  0  0  -0.015019  0.075619  0  4.016809  0
C  C53  1  0.68625302  0.07167749  0.40192950  1  0  0.056632  0  3.812238  0  0  0.07473  0  4.034218  0  0  0.073805  0  4.059563  0  0  -0.01506  0.075615  0  4.016749  0
C  C54  1  0.44910630  0.95502147  0.68757111  1  0  -0.116835  0  3.749304  0  0  -0.134837  0  3.995268  0  0  -0.137176  0  4.016341  0  0  -0.095587  -0.133023  0  3.980808  0
C  C55  1  0.55089350  0.04497867  0.31242928  1  0  -0.116845  0  3.749346  0  0  -0.134858  0  3.995285  0  0  -0.137198  0  4.016355  0  0  -0.095599  -0.13304  0  3.98082  0
C  C56  1  0.55503474  0.06582056  0.69686800  1  0  -0.076426  0  3.790666  0  0  -0.092023  0  4.045135  0  0  -0.093638  0  4.066565  0  0  -0.102684  -0.091216  0  4.031171  0
C  C57  1  0.44496542  0.93418050  0.30313163  1  0  -0.076427  0  3.790721  0  0  -0.092042  0  4.045186  0  0  -0.093648  0  4.066622  0  0  -0.102685  -0.091235  0  4.031225  0
C  C58  1  0.52908932  0.15465627  0.61729861  1  0  -0.075911  0  3.805559  0  0  -0.091137  0  4.061927  0  0  -0.092315  0  4.082236  0  0  -0.101337  -0.090383  0  4.048579  0
C  C59  1  0.47091084  0.84534480  0.38270101  1  0  -0.075919  0  3.805557  0  0  -0.091142  0  4.061918  0  0  -0.092321  0  4.082224  0  0  -0.101325  -0.090389  0  4.048579  0
C  C60  1  0.39747434  0.13270212  0.53111712  1  0  -0.113924  0  3.733859  0  0  -0.133316  0  3.982089  0  0  -0.135104  0  4.00115  0  0  -0.093175  -0.132154  0  3.96915  0
C  C61  1  0.60252481  0.86729895  0.46888223  1  0  -0.113926  0  3.733855  0  0  -0.133316  0  3.98209  0  0  -0.135101  0  4.001149  0  0  -0.093174  -0.132153  0  3.96916  0
C  C62  1  0.28679032  0.01931971  0.51873320  1  0  0.076718  0  3.792056  0  0  0.095229  0  4.012659  0  0  0.095969  0  4.036675  0  0  -0.01025  0.095177  0  3.996131  0
C  C63  1  0.71320984  0.98068135  0.48126643  1  0  0.076693  0  3.792061  0  0  0.095224  0  4.012597  0  0  0.095963  0  4.036615  0  0  -0.010251  0.095166  0  3.996085  0
C  C64  1  0.15150203  0.99321262  0.42893869  1  0  -0.228086  0  3.732738  0  0  -0.257928  0  3.986986  0  0  -0.262983  0  4.0068  0  0  -0.111794  -0.255278  0  3.97527  0
C  C65  1  0.84849915  0.00678844  0.57106033  1  0  -0.228083  0  3.732639  0  0  -0.257949  0  3.986877  0  0  -0.263004  0  4.006691  0  0  -0.111825  -0.255299  0  3.975164  0
C  C66  1  0.04699255  0.88096387  0.41702102  1  0  0.18543  0  3.826553  0  0  0.172757  0  4.09089  0  0  0.181393  0  4.107068  0  0  0.070278  0.166969  0  4.080824  0
C  C67  1  0.95300897  0.11903812  0.58297724  1  0  0.185377  0  3.826592  0  0  0.172741  0  4.090901  0  0  0.181373  0  4.107077  0  0  0.0703  0.166964  0  4.080832  0
C  C68  1  0.87783644  0.93166370  0.24976867  1  0  0.06535  0  3.618048  0  0  0.005114  0  3.885874  0  0  0.012348  0  3.89171  0  0  -0.07125  0.000291  0  3.88173  0
C  C69  1  0.12216337  0.06833645  0.75023084  1  0  0.065273  0  3.618066  0  0  0.005082  0  3.885865  0  0  0.012307  0  3.891712  0  0  -0.071259  0.000265  0  3.881722  0
C  C70  1  0.72413104  0.87198696  0.17504104  1  0  0.048537  0  3.661549  0  0  -0.008254  0  3.9283  0  0  -0.001993  0  3.933897  0  0  -0.080266  -0.01245  0  3.924483  0
C  C71  1  0.27586843  0.12801226  0.82495750  1  0  0.048531  0  3.661521  0  0  -0.00828  0  3.928307  0  0  -0.002021  0  3.933906  0  0  -0.080263  -0.01247  0  3.924477  0
C  C72  1  0.56922008  0.69118865  0.03672339  1  0  0.050556  0  3.657938  0  0  -0.007777  0  3.93247  0  0  -0.001316  0  3.937668  0  0  -0.079675  -0.012195  0  3.928715  0
C  C73  1  0.43078072  0.30881149  0.96327727  1  0  0.050661  0  3.65782  0  0  -0.007696  0  3.932383  0  0  -0.001234  0  3.937566  0  0  -0.07967  -0.012119  0  3.928627  0
C  C74  1  0.47026302  0.63476434  0.11098018  1  0  0.043061  0  3.66001  0  0  -0.018045  0  3.932198  0  0  -0.011811  0  3.938141  0  0  -0.080055  -0.02226  0  3.928172  0
C  C75  1  0.52973814  0.36523673  0.88902059  1  0  0.043056  0  3.659816  0  0  -0.018026  0  3.931969  0  0  -0.011773  0  3.937883  0  0  -0.080088  -0.022241  0  3.92794  0
C  C76  1  0.46281464  0.51309435  0.27836011  1  0  0.063458  0  3.661294  0  0  0.003812  0  3.933605  0  0  0.010186  0  3.939282  0  0  -0.075359  -0.000498  0  3.929596  0
C  C77  1  0.53718550  0.48690672  0.72164039  1  0  0.063502  0  3.661323  0  0  0.003781  0  3.933689  0  0  0.010165  0  3.939355  0  0  -0.075373  -0.00053  0  3.929679  0
C  C78  1  0.55594973  0.45777072  0.37165644  1  0  0.045338  0  3.664487  0  0  -0.015857  0  3.939813  0  0  -0.009824  0  3.945721  0  0  -0.07729  -0.019833  0  3.935665  0
C  C79  1  0.44405141  0.54223034  0.62834520  1  0  0.04531  0  3.664426  0  0  -0.015888  0  3.939782  0  0  -0.009857  0  3.945688  0  0  -0.077306  -0.019864  0  3.935639  0
C  C80  1  0.78895276  0.51782705  0.52047228  1  0  0.056282  0  3.656624  0  0  -0.00295  0  3.928744  0  0  0.003636  0  3.933995  0  0  -0.074526  -0.007219  0  3.924895  0
C  C81  1  0.21104840  0.48217401  0.47952849  1  0  0.056194  0  3.656643  0  0  -0.00302  0  3.928766  0  0  0.003556  0  3.934011  0  0  -0.074528  -0.007286  0  3.924918  0
C  C82  1  0.92010983  0.62936958  0.57200196  1  0  0.073345  0  3.594971  0  0  0.013909  0  3.863439  0  0  0.020584  0  3.868184  0  0  -0.06761  0.009429  0  3.860104  0
C  C83  1  0.07989032  0.37063148  0.42799854  1  0  0.073447  0  3.595011  0  0  0.01392  0  3.86355  0  0  0.020619  0  3.868273  0  0  -0.067637  0.009436  0  3.860217  0
C  C84  1  0.07490323  0.54287122  0.15405071  1  0  0.313345  0  3.974168  0  0  0.294946  0  4.267803  0  0  0.315353  0  4.284371  0  0  0.162361  0.281204  0  4.256575  0
C  C85  1  0.92509589  0.45712707  0.84594772  1  0  0.313356  0  3.973992  0  0  0.29496  0  4.267627  0  0  0.315367  0  4.284197  0  0  0.162389  0.281218  0  4.256397  0
C  C86  1  0.23965462  0.67236039  0.84373147  1  0  0.280065  0  4.019372  0  0  0.270288  0  4.319731  0  0  0.287583  0  4.334794  0  0  0.143499  0.258444  0  4.309586  0
C  C87  1  0.76034647  0.32763790  0.15627272  1  0  0.280055  0  4.019138  0  0  0.270282  0  4.3195  0  0  0.287577  0  4.334562  0  0  0.143477  0.258438  0  4.309351  0
C  C88  1  0.84077764  0.93908172  0.88660144  1  0  0.321129  0  3.960459  0  0  0.300958  0  4.255451  0  0  0.322342  0  4.268918  0  0  0.162921  0.286743  0  4.245948  0
C  C89  1  0.15922046  0.06091658  0.11339934  1  0  0.321288  0  3.960466  0  0  0.301119  0  4.255453  0  0  0.322506  0  4.268919  0  0  0.162995  0.286905  0  4.245951  0
S  S90  1  0.07554524  0.68088133  0.19594531  1  0  -0.307083  0  2.195006  0  0  -0.271147  0  2.53278  0  0  -0.286805  0  2.525073  0  0  -0.1069  -0.260637  0  2.537694  0
S  S91  1  0.92445457  0.31911881  0.80405421  1  0  -0.307065  0  2.195062  0  0  -0.271125  0  2.532826  0  0  -0.286787  0  2.525128  0  0  -0.106896  -0.260622  0  2.537749  0
S  S92  1  0.26475391  0.80572060  0.91822198  1  0  -0.332327  0  2.215783  0  0  -0.290286  0  2.5479  0  0  -0.30782  0  2.541839  0  0  -0.134146  -0.278129  0  2.551318  0
S  S93  1  0.73524651  0.19427584  0.08177939  1  0  -0.332319  0  2.215615  0  0  -0.290288  0  2.547749  0  0  -0.307821  0  2.541683  0  0  -0.134133  -0.278136  0  2.55117  0
S  S94  1  0.80981827  0.79738844  0.82971778  1  0  -0.311937  0  2.18701  0  0  -0.271048  0  2.519889  0  0  -0.287876  0  2.509795  0  0  -0.119451  -0.259594  0  2.525536  0
S  S95  1  0.19017812  0.20260802  0.17028338  1  0  -0.312012  0  2.187114  0  0  -0.27113  0  2.520003  0  0  -0.287958  0  2.509907  0  0  -0.119487  -0.259673  0  2.525635  0
N  N96  1  0.07996176  0.44436328  0.12748045  1  0  -0.527469  0  2.873084  0  0  -0.467941  0  3.140009  0  0  -0.489409  0  3.149409  0  0  -0.384267  -0.453267  0  3.132292  0
N  N97  1  0.92003774  0.55563871  0.87251815  1  0  -0.527493  0  2.872876  0  0  -0.467971  0  3.139809  0  0  -0.489439  0  3.14921  0  0  -0.384292  -0.453296  0  3.132091  0
N  N98  1  0.22464723  0.57822789  0.78854496  1  0  -0.557868  0  2.69576  0  0  -0.532122  0  2.953902  0  0  -0.544475  0  2.95951  0  0  -0.449328  -0.524073  0  2.950768  0
N  N99  1  0.77535150  0.42176949  0.21145859  1  0  -0.557848  0  2.695663  0  0  -0.532103  0  2.953816  0  0  -0.544458  0  2.959423  0  0  -0.449313  -0.524059  0  2.950685  0
N  N100  1  0.86291376  0.04182319  0.92601703  1  0  -0.515611  0  2.864708  0  0  -0.454909  0  3.131192  0  0  -0.475371  0  3.138613  0  0  -0.378681  -0.441287  0  3.125422  0
N  N101  1  0.13708702  0.95817418  0.07398357  1  0  -0.515721  0  2.864645  0  0  -0.455021  0  3.131128  0  0  -0.475483  0  3.138547  0  0  -0.378726  -0.441402  0  3.125363  0
O  O102  1  0.96853325  0.67575891  0.46978548  1  0  -0.34557  0  2.355687  0  0  -0.275971  0  2.601219  0  0  -0.290898  0  2.601906  0  0  -0.243972  -0.265298  0  2.600616  0
O  O103  1  0.03146757  0.32424123  0.53021431  1  0  -0.345639  0  2.355801  0  0  -0.275993  0  2.601343  0  0  -0.290933  0  2.602022  0  0  -0.243977  -0.265316  0  2.600734  0
O  O104  1  0.91290498  0.84682300  0.33513498  1  0  -0.31915  0  2.397593  0  0  -0.244122  0  2.637366  0  0  -0.26145  0  2.639628  0  0  -0.226244  -0.232037  0  2.635627  0
O  O105  1  0.08709449  0.15317622  0.66486356  1  0  -0.319063  0  2.397563  0  0  -0.24407  0  2.63734  0  0  -0.261386  0  2.639589  0  0  -0.22624  -0.232009  0  2.635612  0
O  O106  1  0.71157373  0.75710049  0.11246366  1  0  -0.360655  0  2.285818  0  0  -0.293828  0  2.543103  0  0  -0.308992  0  2.543448  0  0  -0.281608  -0.283067  0  2.542596  0
O  O107  1  0.28842708  0.24289965  0.88753613  1  0  -0.360693  0  2.285746  0  0  -0.29389  0  2.543079  0  0  -0.309053  0  2.543419  0  0  -0.281655  -0.28313  0  2.542568  0
O  O108  1  0.53415406  0.55911475  0.19057135  1  0  -0.347624  0  2.303235  0  0  -0.27148  0  2.55571  0  0  -0.287021  0  2.556254  0  0  -0.281493  -0.26059  0  2.555127  0
O  O109  1  0.46584642  0.44088724  0.80943100  1  0  -0.347686  0  2.303237  0  0  -0.271491  0  2.555678  0  0  -0.287041  0  2.556217  0  0  -0.281483  -0.2606  0  2.555093  0
O  O110  1  0.68290149  0.55667591  0.43598847  1  0  -0.340885  0  2.276722  0  0  -0.270738  0  2.533522  0  0  -0.285392  0  2.533317  0  0  -0.266387  -0.260295  0  2.533391  0
O  O111  1  0.31709766  0.44332515  0.56401176  1  0  -0.340885  0  2.27667  0  0  -0.270742  0  2.533463  0  0  -0.285398  0  2.533266  0  0  -0.266383  -0.260299  0  2.533333  0
