# generated using pymatgen
data_Zr3H7C27(Cl5O8)2
_symmetry_space_group_name_H-M   'P 1'
_cell_length_a   14.84995004
_cell_length_b   14.82637767
_cell_length_c   14.75444159
_cell_angle_alpha   60.28279120
_cell_angle_beta   59.75613902
_cell_angle_gamma   59.71928984
_symmetry_Int_Tables_number   1
_chemical_formula_structural   Zr3H7C27(Cl5O8)2
_chemical_formula_sum   'Zr6 H14 C54 Cl20 O32'
_cell_volume   2292.69710644
_cell_formula_units_Z   2
loop_
 _symmetry_equiv_pos_site_id
 _symmetry_equiv_pos_as_xyz
  1  'x, y, z'
loop_
 _atom_site_type_symbol
 _atom_site_label
 _atom_site_symmetry_multiplicity
 _atom_site_fract_x
 _atom_site_fract_y
 _atom_site_fract_z
 _atom_site_occupancy
 _atom_site_pbe_bader_charge
 _atom_site_pbe_bader_spin_density
 _atom_site_pbe_cm5_charge
 _atom_site_pbe_ddec_charge
 _atom_site_pbe_ddec_spin_density
 _atom_site_pbe_ddec_sum_bond_order
 _atom_site_pbe_magmom
Zr  Zr0  1  0.87916881  0.88277564  0.62411469  1  2.633992  0  1.618893  2.386703  0  2.683309  0
Zr  Zr1  1  0.11912700  0.11959706  0.38169256  1  2.632516  0  1.628094  2.384602  0  2.727887  0
Zr  Zr2  1  0.12179819  0.87745157  0.61817610  1  2.629403  0  1.611893  2.377384  0  2.689661  0
Zr  Zr3  1  0.88376537  0.11667566  0.37912584  1  2.63575  0  1.630642  2.377165  0  2.76072  0
Zr  Zr4  1  0.11982707  0.87998557  0.38000746  1  2.633701  0  1.622362  2.379087  0  2.747166  0
Zr  Zr5  1  0.88114186  0.12276133  0.61779783  1  2.633373  0  1.621406  2.383698  0  2.719579  0
H  H6  1  0.09166071  0.71756276  0.59644186  1  0.596714  0  0.322907  0.414906  0  0.873956  0
H  H7  1  0.10107397  0.09111783  0.21585493  1  0.63046  0  0.321778  0.416858  0  0.875572  0
H  H8  1  0.09596567  0.09617408  0.59087386  1  0.598357  0  0.318847  0.412413  0  0.880297  0
H  H9  1  0.71735882  0.09496666  0.59916104  1  0.595284  0  0.320102  0.414806  0  0.873949  0
H  H10  1  0.98250247  0.58369862  0.74093123  1  0.084496  0  0.091076  0.093414  0  1.070295  0
H  H11  1  0.96604936  0.42739122  0.74150239  1  0.031661  0  0.092649  0.093203  0  1.01313  0
H  H12  1  0.96695358  0.25128764  0.07581466  1  0.094926  0  0.09172  0.097685  0  1.066461  0
H  H13  1  0.95516626  0.26122501  0.91118014  1  0.068994  0  0.091956  0.093057  0  1.01585  0
H  H14  1  0.93446122  0.57861417  0.21881635  1  0.031765  0  0.086359  0.122861  0  1.018993  0
H  H15  1  0.97475506  0.43287233  0.27578074  1  0.055915  0  0.086201  0.12758  0  1.047789  0
H  H16  1  0.07637036  0.49717190  0.19327633  1  0.045991  0  0.098291  0.144081  0  0.969249  0
H  H17  1  0.09574980  0.65493941  0.02431826  1  0.053926  0  0.097874  0.143504  0  0.969725  0
H  H18  1  0.02317276  0.75492548  0.93068230  1  0.062716  0  0.086463  0.135205  0  1.050703  0
H  H19  1  0.95055892  0.71540403  0.07558748  1  0.06023  0  0.079401  0.112024  0  1.055924  0
C  C20  1  0.98688966  0.70523417  0.49947845  1  1.62955  0  0.232333  0.651736  0  4.126298  0
C  C21  1  0.31628810  0.99383971  0.21013246  1  1.624368  0  0.232894  0.657294  0  4.120653  0
C  C22  1  0.99139475  0.31143383  0.49427066  1  1.631605  0  0.237138  0.656139  0  4.121201  0
C  C23  1  0.70910220  0.00012129  0.81715928  1  1.618216  0  0.232833  0.6583  0  4.107711  0
C  C24  1  0.99920935  0.70071195  0.80913792  1  1.52737  0  0.241304  0.660537  0  4.061019  0
C  C25  1  0.70046412  0.99895798  0.49851663  1  1.607348  0  0.232966  0.656426  0  4.085838  0
C  C26  1  0.99587829  0.30529774  0.19900213  1  1.541236  0  0.238814  0.656107  0  4.066012  0
C  C27  1  0.31073550  0.98731280  0.49713986  1  1.605895  0  0.234833  0.660013  0  4.079155  0
C  C28  1  0.29861745  0.68609903  0.49179018  1  1.592156  0  0.23035  0.652418  0  4.121163  0
C  C29  1  0.00069070  0.00505374  0.80025661  1  1.637316  0  0.230931  0.649842  0  4.144981  0
C  C30  1  0.69552184  0.30122034  0.49274876  1  1.609933  0  0.231647  0.65383  0  4.129403  0
C  C31  1  0.00990859  0.99017721  0.19598469  1  1.633579  0  0.234149  0.654158  0  4.14895  0
C  C32  1  0.98948328  0.41443067  0.49356917  1  0.082085  0  -0.014245  -0.120265  0  3.920715  0
C  C33  1  0.98590656  0.60431085  0.49820018  1  0.056162  0  -0.012358  -0.114134  0  3.921629  0
C  C34  1  0.08194826  0.41382671  0.49833113  1  0.103154  0  0.01426  0.067312  0  4.028416  0
C  C35  1  0.89347299  0.60487654  0.49370690  1  0.133224  0  0.013955  0.065489  0  4.028049  0
C  C36  1  0.07978203  0.50821022  0.50127804  1  0.139649  0  0.014358  0.067576  0  4.033274  0
C  C37  1  0.89528030  0.51045474  0.49081301  1  0.104333  0  0.017082  0.073949  0  4.019071  0
C  C38  1  0.42341832  0.99811430  0.11487813  1  0.066736  0  -0.018448  -0.118149  0  3.933683  0
C  C39  1  0.61675451  0.00073756  0.92689924  1  0.058903  0  -0.02246  -0.13555  0  3.917998  0
C  C40  1  0.42639491  0.09473532  0.02320900  1  0.109813  0  0.008005  0.061641  0  4.026508  0
C  C41  1  0.61380641  0.90400911  0.01965095  1  0.11054  0  0.008623  0.062302  0  4.029337  0
C  C42  1  0.52837451  0.10050163  0.93812590  1  0.156925  0  0.013374  0.075349  0  4.016856  0
C  C43  1  0.52304893  0.90923283  0.11854771  1  0.092959  0  0.009062  0.067333  0  4.040795  0
C  C44  1  0.00199765  0.00500442  0.90183116  1  0.082693  0  -0.01533  -0.114607  0  3.941716  0
C  C45  1  0.01241697  0.99039277  0.09279210  1  0.052152  0  -0.016409  -0.11857  0  3.946443  0
C  C46  1  0.92874536  0.96518890  0.00604744  1  0.103045  0  0.014799  0.071704  0  4.033774  0
C  C47  1  0.08369913  0.03349665  0.98856431  1  0.143433  0  0.014429  0.069549  0  4.025776  0
C  C48  1  0.93807874  0.95234177  0.10204215  1  0.124719  0  0.012781  0.074369  0  4.035962  0
C  C49  1  0.07749510  0.04172451  0.89264300  1  0.100153  0  0.011154  0.06582  0  4.036388  0
C  C50  1  0.39159013  0.57781761  0.48805591  1  0.074568  0  -0.022031  -0.133096  0  3.915751  0
C  C51  1  0.58825110  0.39568905  0.48833532  1  0.062775  0  -0.01626  -0.114789  0  3.923174  0
C  C52  1  0.47912692  0.56856058  0.38690029  1  0.0832  0  0.015515  0.076937  0  4.014087  0
C  C53  1  0.48921478  0.38827731  0.57729788  1  0.150528  0  0.008666  0.071603  0  4.02041  0
C  C54  1  0.58282431  0.48643119  0.39116425  1  0.138125  0  0.010494  0.062623  0  4.030241  0
C  C55  1  0.39541927  0.48396890  0.58382433  1  0.107672  0  0.008228  0.064423  0  4.034463  0
C  C56  1  0.99838889  0.59902750  0.90985545  1  -0.000657  0  -0.016731  -0.145523  0  3.893399  0
C  C57  1  0.98643606  0.50929350  0.90884663  1  -0.03751  0  -0.00675  0.059813  0  3.964211  0
C  C58  1  0.00641289  0.59358909  0.00273675  1  0.012869  0  -0.001878  0.109955  0  3.90214  0
C  C59  1  0.98096855  0.51103238  0.81446824  1  -0.054077  0  -0.102904  -0.137103  0  3.989333  0
C  C60  1  0.97060952  0.42353366  0.81489684  1  0.011658  0  -0.09825  -0.074871  0  4.031373  0
C  C61  1  0.99236712  0.40850845  0.09980364  1  -0.036565  0  -0.016406  -0.143536  0  3.892256  0
C  C62  1  0.99990193  0.49826244  0.10016982  1  0.016389  0  -0.00113  0.107207  0  3.898177  0
C  C63  1  0.98351055  0.41227235  0.00531484  1  0.034874  0  -0.007009  0.060536  0  3.965207  0
C  C64  1  0.97222933  0.32398045  0.00271748  1  -0.055302  0  -0.104005  -0.139115  0  3.993569  0
C  C65  1  0.96507703  0.32971154  0.91030774  1  -0.086375  0  -0.100395  -0.080469  0  4.044793  0
C  C66  1  0.41489780  0.98330019  0.49672204  1  0.113896  0  -0.017784  -0.125217  0  3.886416  0
C  C67  1  0.59819864  0.99992900  0.49833700  1  0.051101  0  -0.020148  -0.132625  0  3.88555  0
C  C68  1  0.43730310  0.93777164  0.59612168  1  0.079542  0  0.011662  0.069482  0  4.010659  0
C  C69  1  0.57572823  0.04544196  0.39869364  1  0.150475  0  0.013704  0.071805  0  4.003062  0
C  C70  1  0.52470213  0.95044849  0.59744402  1  0.111269  0  0.012199  0.072518  0  4.006352  0
C  C71  1  0.48708823  0.03433288  0.39792099  1  0.084881  0  0.013378  0.071548  0  4.01368  0
C  C72  1  0.99627362  0.50113383  0.20251420  1  -0.043933  0  -0.246966  -0.412418  0  3.972668  0
C  C73  1  0.01936383  0.68518665  0.00743203  1  -0.08667  0  -0.251362  -0.420322  0  3.976309  0
Cl  Cl74  1  0.19794270  0.29723919  0.50306303  1  -0.157865  0  0.017746  -0.022202  0  1.651388  0
Cl  Cl75  1  0.77744761  0.72140010  0.49108736  1  -0.151552  0  0.021749  -0.016474  0  1.667601  0
Cl  Cl76  1  0.19117123  0.50385432  0.51322648  1  -0.164772  0  0.022828  -0.034235  0  1.719537  0
Cl  Cl77  1  0.78314161  0.51434366  0.48058209  1  -0.149965  0  0.024892  -0.02325  0  1.626198  0
Cl  Cl78  1  0.30829967  0.20822164  0.01465130  1  -0.157466  0  0.01788  -0.023753  0  1.64081  0
Cl  Cl79  1  0.72291317  0.78193919  0.01774746  1  -0.140489  0  0.029288  -0.006702  0  1.679897  0
Cl  Cl80  1  0.54106798  0.22785922  0.85836189  1  -0.130729  0  0.026264  -0.012357  0  1.716871  0
Cl  Cl81  1  0.53655646  0.81719766  0.24436654  1  -0.153286  0  0.016438  -0.036836  0  1.704406  0
Cl  Cl82  1  0.82606287  0.93534784  0.01601378  1  -0.161043  0  0.035829  -0.02224  0  1.752714  0
Cl  Cl83  1  0.17789697  0.07546570  0.97925133  1  -0.165821  0  0.023438  -0.034692  0  1.633857  0
Cl  Cl84  1  0.86370931  0.88483650  0.23081330  1  -0.154264  0  0.015205  -0.042937  0  1.703902  0
Cl  Cl85  1  0.15501103  0.10547186  0.76311532  1  -0.170541  0  0.013597  -0.051894  0  1.698315  0
Cl  Cl86  1  0.46218893  0.64572268  0.26055713  1  -0.123541  0  0.030616  -0.00533  0  1.716753  0
Cl  Cl87  1  0.48067941  0.25999360  0.66648237  1  -0.180176  0  0.013679  -0.042325  0  1.664621  0
Cl  Cl88  1  0.69897270  0.49592323  0.27577049  1  -0.140344  0  0.025706  -0.016069  0  1.656059  0
Cl  Cl89  1  0.28267965  0.48102869  0.70399988  1  -0.148847  0  0.019835  -0.026969  0  1.639516  0
Cl  Cl90  1  0.36034430  0.86627611  0.71887734  1  -0.13286  0  0.016547  -0.026599  0  1.695957  0
Cl  Cl91  1  0.65111872  0.11760773  0.27529083  1  -0.128062  0  0.022242  -0.015874  0  1.715678  0
Cl  Cl92  1  0.53342381  0.91064960  0.72457280  1  -0.140296  0  0.011936  -0.028157  0  1.643983  0
Cl  Cl93  1  0.47292287  0.08044652  0.27225520  1  -0.135986  0  0.018989  -0.021226  0  1.728697  0
O  O94  1  0.91738241  0.73704297  0.58344506  1  -1.166126  0  -0.344363  -0.599382  0  2.283114  0
O  O95  1  0.26965489  0.07089821  0.25151651  1  -1.173397  0  -0.369682  -0.626657  0  2.391388  0
O  O96  1  0.06863732  0.27194499  0.41754821  1  -1.178788  0  -0.342008  -0.602475  0  2.309618  0
O  O97  1  0.73672287  0.92692536  0.77794152  1  -1.16081  0  -0.336861  -0.60203  0  2.263909  0
O  O98  1  0.07941452  0.73674141  0.76505126  1  -1.177131  0  -0.35578  -0.617323  0  2.274707  0
O  O99  1  0.74048550  0.07430782  0.42274855  1  -1.168665  0  -0.352568  -0.604868  0  2.375962  0
O  O100  1  0.92147546  0.26298347  0.23914563  1  -1.177266  0  -0.355773  -0.617851  0  2.317924  0
O  O101  1  0.27545842  0.90653259  0.56490199  1  -1.171028  0  -0.35783  -0.615221  0  2.335301  0
O  O102  1  0.25628520  0.73384296  0.41561197  1  -1.163529  0  -0.374602  -0.633289  0  2.402757  0
O  O103  1  0.92622895  0.08429031  0.76079586  1  -1.165017  0  -0.340724  -0.588149  0  2.292532  0
O  O104  1  0.73115741  0.27225221  0.56867904  1  -1.165478  0  -0.333307  -0.604154  0  2.244694  0
O  O105  1  0.08762682  0.91556819  0.23348497  1  -1.171413  0  -0.349236  -0.596038  0  2.289088  0
O  O106  1  0.07486809  0.92445040  0.76508617  1  -1.171546  0  -0.341566  -0.605601  0  2.265587  0
O  O107  1  0.74023035  0.25803954  0.41758332  1  -1.159443  0  -0.358996  -0.604395  0  2.361511  0
O  O108  1  0.93024006  0.06618026  0.23499698  1  -1.170907  0  -0.337435  -0.600416  0  2.271004  0
O  O109  1  0.27100905  0.72313137  0.56650136  1  -1.154224  0  -0.322841  -0.583744  0  2.231459  0
O  O110  1  0.91989736  0.74503922  0.77191092  1  -1.174269  0  -0.350982  -0.61821  0  2.308124  0
O  O111  1  0.26312431  0.07390904  0.43230450  1  -1.167894  0  -0.341325  -0.607345  0  2.347303  0
O  O112  1  0.07445438  0.26449171  0.23636108  1  -1.17547  0  -0.348725  -0.612462  0  2.278834  0
O  O113  1  0.74118801  0.92169195  0.57359565  1  -1.172592  0  -0.353742  -0.623945  0  2.368786  0
O  O114  1  0.74905079  0.07720649  0.76973558  1  -1.178094  0  -0.363114  -0.62257  0  2.389878  0
O  O115  1  0.05883577  0.74677128  0.41818958  1  -1.165984  0  -0.336511  -0.593389  0  2.294256  0
O  O116  1  0.28021808  0.91925747  0.23848406  1  -1.157878  0  -0.324722  -0.584574  0  2.235289  0
O  O117  1  0.91656229  0.27159038  0.57311184  1  -1.17327  0  -0.34686  -0.602793  0  2.287069  0
O  O118  1  0.79787806  0.06734995  0.57150664  1  -1.225856  0  -0.691172  -1.060242  0  2.343079  0
O  O119  1  0.06809847  0.06849519  0.56613633  1  -1.226214  0  -0.691702  -1.062174  0  2.353601  0
O  O120  1  0.07243975  0.06433392  0.29640312  1  -1.263789  0  -0.694082  -1.070544  0  2.352887  0
O  O121  1  0.06570314  0.79773411  0.56827333  1  -1.223005  0  -0.692991  -1.063189  0  2.364842  0
O  O122  1  0.14858986  0.94888274  0.45081564  1  -1.192971  0  -0.789731  -1.141947  0  2.12758  0
O  O123  1  0.95118063  0.94981726  0.45261260  1  -1.201898  0  -0.790472  -1.147466  0  2.129343  0
O  O124  1  0.95019944  0.14905898  0.44952286  1  -1.197629  0  -0.795649  -1.153535  0  2.140823  0
O  O125  1  0.95250265  0.95259179  0.64883692  1  -1.192669  0  -0.784928  -1.141426  0  2.11665  0
