# generated using pymatgen
data_UH10C7N2O7
_symmetry_space_group_name_H-M   'P 1'
_cell_length_a   7.68262158
_cell_length_b   10.03810104
_cell_length_c   14.73137954
_cell_angle_alpha   90.00132664
_cell_angle_beta   104.47339921
_cell_angle_gamma   89.99685946
_symmetry_Int_Tables_number   1
_chemical_formula_structural   UH10C7N2O7
_chemical_formula_sum   'U4 H40 C28 N8 O28'
_cell_volume   1100.01373839
_cell_formula_units_Z   4
loop_
 _symmetry_equiv_pos_site_id
 _symmetry_equiv_pos_as_xyz
  1  'x, y, z'
loop_
 _atom_site_type_symbol
 _atom_site_label
 _atom_site_symmetry_multiplicity
 _atom_site_fract_x
 _atom_site_fract_y
 _atom_site_fract_z
 _atom_site_occupancy
 _atom_site_hle17_bader_spin_density
 _atom_site_hle17_ddec_charge
 _atom_site_hle17_ddec_spin_density
 _atom_site_hle17_ddec_sum_bond_order
 _atom_site_hle17_magmom
 _atom_site_hse06_10hf_bader_spin_density
 _atom_site_hse06_10hf_ddec_charge
 _atom_site_hse06_10hf_ddec_spin_density
 _atom_site_hse06_10hf_ddec_sum_bond_order
 _atom_site_hse06_10hf_magmom
 _atom_site_hse06_bader_spin_density
 _atom_site_hse06_ddec_charge
 _atom_site_hse06_ddec_spin_density
 _atom_site_hse06_ddec_sum_bond_order
 _atom_site_hse06_magmom
 _atom_site_pbe_bader_spin_density
 _atom_site_pbe_cm5_charge
 _atom_site_pbe_ddec_charge
 _atom_site_pbe_ddec_spin_density
 _atom_site_pbe_ddec_sum_bond_order
 _atom_site_pbe_magmom
U  U0  1  0.44479927  0.90750873  0.16539175  1  0  2.468304  0  4.161983  0  0  2.530906  0  4.821625  0  0  2.642343  0  4.782707  0  0  2.19401  2.451281  0  4.85124  0
U  U1  1  0.55520573  0.40756014  0.33461337  1  0  2.468409  0  4.162719  0  0  2.53121  0  4.822016  0  0  2.642392  0  4.783483  0  0  2.194206  2.451682  0  4.851413  0
U  U2  1  0.55518434  0.09248514  0.83459479  1  0  2.468577  0  4.161952  0  0  2.530951  0  4.821783  0  0  2.642621  0  4.782544  0  0  2.194101  2.451516  0  4.851091  0
U  U3  1  0.44479677  0.59247058  0.66538441  1  0  2.468279  0  4.163011  0  0  2.53112  0  4.822096  0  0  2.642274  0  4.783615  0  0  2.194254  2.451292  0  4.852001  0
H  H4  1  0.67544962  0.13062699  0.46619209  1  0  0.317579  0  0.895426  0  0  0.300186  0  0.956314  0  0  0.307951  0  0.950436  0  0  0.322946  0.294678  0  0.960552  0
H  H5  1  0.32454856  0.63063195  0.03379018  1  0  0.317528  0  0.895689  0  0  0.300196  0  0.956477  0  0  0.307959  0  0.95061  0  0  0.323022  0.294684  0  0.960715  0
H  H6  1  0.32458250  0.86936090  0.53381560  1  0  0.317639  0  0.895542  0  0  0.300295  0  0.956367  0  0  0.308058  0  0.950495  0  0  0.323018  0.294784  0  0.960604  0
H  H7  1  0.67546854  0.36935494  0.96618708  1  0  0.317535  0  0.895595  0  0  0.30029  0  0.956289  0  0  0.308051  0  0.950417  0  0  0.323012  0.294785  0  0.960525  0
H  H8  1  0.69951575  0.75507855  0.36581727  1  0  0.321948  0  0.89832  0  0  0.307688  0  0.956159  0  0  0.314675  0  0.950573  0  0  0.323834  0.302902  0  0.960093  0
H  H9  1  0.30054413  0.25510895  0.13420948  1  0  0.321599  0  0.898599  0  0  0.307407  0  0.956416  0  0  0.314396  0  0.950834  0  0  0.323773  0.302623  0  0.960348  0
H  H10  1  0.30052982  0.24490934  0.63419283  1  0  0.321782  0  0.898457  0  0  0.30749  0  0.956373  0  0  0.314474  0  0.95079  0  0  0.323776  0.3027  0  0.960327  0
H  H11  1  0.69945436  0.74490085  0.86579118  1  0  0.32164  0  0.8985  0  0  0.307406  0  0.956386  0  0  0.3144  0  0.950799  0  0  0.323747  0.302618  0  0.960324  0
H  H12  1  0.06342945  0.57681013  0.24462149  1  0  0.11996  0  0.910649  0  0  0.13605  0  0.96434  0  0  0.138494  0  0.963374  0  0  0.116412  0.134334  0  0.96513  0
H  H13  1  0.93658731  0.07683484  0.25537861  1  0  0.119956  0  0.9108  0  0  0.136008  0  0.964516  0  0  0.138463  0  0.963536  0  0  0.116351  0.134286  0  0.965301  0
H  H14  1  0.93659986  0.42318274  0.75537158  1  0  0.119891  0  0.9109  0  0  0.135976  0  0.964575  0  0  0.138427  0  0.963602  0  0  0.116348  0.134268  0  0.965367  0
H  H15  1  0.06345014  0.92313512  0.74462434  1  0  0.120026  0  0.910617  0  0  0.135982  0  0.964425  0  0  0.13843  0  0.963451  0  0  0.116389  0.134259  0  0.96521  0
H  H16  1  0.92046425  0.71454123  0.24252432  1  0  0.132268  0  0.914536  0  0  0.15101  0  0.963978  0  0  0.153079  0  0.963305  0  0  0.119042  0.149655  0  0.964606  0
H  H17  1  0.07955503  0.21454428  0.25745314  1  0  0.13221  0  0.914908  0  0  0.150893  0  0.964379  0  0  0.152964  0  0.963698  0  0  0.119033  0.149529  0  0.965011  0
H  H18  1  0.07945604  0.28541777  0.75743712  1  0  0.132364  0  0.914267  0  0  0.15115  0  0.96361  0  0  0.153224  0  0.962931  0  0  0.119151  0.149804  0  0.964243  0
H  H19  1  0.92048349  0.78541273  0.74251532  1  0  0.132284  0  0.914741  0  0  0.150992  0  0.964162  0  0  0.153064  0  0.963485  0  0  0.11901  0.149624  0  0.964798  0
H  H20  1  0.08673647  0.77575242  0.40754718  1  0  0.1081  0  0.943337  0  0  0.120651  0  1.007856  0  0  0.122884  0  1.007421  0  0  0.105494  0.119064  0  1.008199  0
H  H21  1  0.91318859  0.27574070  0.09242187  1  0  0.108128  0  0.942846  0  0  0.120655  0  1.007499  0  0  0.122892  0  1.007056  0  0  0.10548  0.11907  0  1.007841  0
H  H22  1  0.91319186  0.22426535  0.59241258  1  0  0.108162  0  0.942922  0  0  0.120706  0  1.007565  0  0  0.122947  0  1.007113  0  0  0.105548  0.119118  0  1.007909  0
H  H23  1  0.08676549  0.72421132  0.90756699  1  0  0.108045  0  0.943213  0  0  0.120568  0  1.007751  0  0  0.122796  0  1.007314  0  0  0.105447  0.118962  0  1.008117  0
H  H24  1  0.99581184  0.61397748  0.39989529  1  0  0.135979  0  0.922494  0  0  0.156117  0  0.970815  0  0  0.158218  0  0.969925  0  0  0.121268  0.154715  0  0.971563  0
H  H25  1  0.00418782  0.11401122  0.10012900  1  0  0.135886  0  0.922423  0  0  0.156109  0  0.970709  0  0  0.158214  0  0.969814  0  0  0.121328  0.154713  0  0.971458  0
H  H26  1  0.00415573  0.38600642  0.60010073  1  0  0.135876  0  0.922207  0  0  0.156146  0  0.970474  0  0  0.158254  0  0.969569  0  0  0.121318  0.154743  0  0.97123  0
H  H27  1  0.99578778  0.88596072  0.89986330  1  0  0.135975  0  0.922529  0  0  0.156101  0  0.970842  0  0  0.158201  0  0.969936  0  0  0.121267  0.154708  0  0.971584  0
H  H28  1  0.90230209  0.75689530  0.53913714  1  0  0.086131  0  0.940777  0  0  0.10242  0  0.997477  0  0  0.103764  0  0.997154  0  0  0.110046  0.101362  0  0.997873  0
H  H29  1  0.09776493  0.25688955  0.96089502  1  0  0.086208  0  0.940508  0  0  0.102263  0  0.997422  0  0  0.103619  0  0.997097  0  0  0.110032  0.101217  0  0.997812  0
H  H30  1  0.09772871  0.24308661  0.46087310  1  0  0.086361  0  0.940761  0  0  0.10242  0  0.997649  0  0  0.10378  0  0.997331  0  0  0.110072  0.101358  0  0.998044  0
H  H31  1  0.90225368  0.74309635  0.03910212  1  0  0.086182  0  0.940444  0  0  0.102284  0  0.997348  0  0  0.103629  0  0.997021  0  0  0.109999  0.101228  0  0.997755  0
H  H32  1  0.66614504  0.75612009  0.53055129  1  0  0.072956  0  0.953774  0  0  0.081312  0  1.024184  0  0  0.082428  0  1.023588  0  0  0.110405  0.080539  0  1.024623  0
H  H33  1  0.33388422  0.25613259  0.96945565  1  0  0.073095  0  0.953827  0  0  0.081435  0  1.02417  0  0  0.082562  0  1.023585  0  0  0.110468  0.080663  0  1.024618  0
H  H34  1  0.33388708  0.24386680  0.46945572  1  0  0.073044  0  0.953822  0  0  0.081353  0  1.024178  0  0  0.082481  0  1.023598  0  0  0.110438  0.080577  0  1.024614  0
H  H35  1  0.66611961  0.74386825  0.03054163  1  0  0.072989  0  0.953826  0  0  0.081313  0  1.024212  0  0  0.082428  0  1.02362  0  0  0.11042  0.080542  0  1.024657  0
H  H36  1  0.72606271  0.96686919  0.60938328  1  0  0.09036  0  0.929906  0  0  0.103653  0  0.991479  0  0  0.104532  0  0.991256  0  0  0.116009  0.102955  0  0.991787  0
H  H37  1  0.27393060  0.46684966  0.89061216  1  0  0.090343  0  0.929976  0  0  0.103709  0  0.991425  0  0  0.104592  0  0.9912  0  0  0.11601  0.10302  0  0.991724  0
H  H38  1  0.27396944  0.03312168  0.39062781  1  0  0.090447  0  0.929877  0  0  0.103669  0  0.991489  0  0  0.104579  0  0.991236  0  0  0.116057  0.102943  0  0.991831  0
H  H39  1  0.72605568  0.53313524  0.10937268  1  0  0.090517  0  0.92983  0  0  0.103759  0  0.991402  0  0  0.104638  0  0.991178  0  0  0.116059  0.103055  0  0.991721  0
H  H40  1  0.92839402  0.98947217  0.57232817  1  0  0.052744  0  0.933853  0  0  0.06778  0  0.998874  0  0  0.067799  0  0.999374  0  0  0.098789  0.067686  0  0.998604  0
H  H41  1  0.07159376  0.48945643  0.92767235  1  0  0.052854  0  0.933956  0  0  0.067827  0  0.999018  0  0  0.067856  0  0.99951  0  0  0.09882  0.067735  0  0.99875  0
H  H42  1  0.07164218  0.01051173  0.42768480  1  0  0.052707  0  0.933828  0  0  0.067702  0  0.998931  0  0  0.067731  0  0.999433  0  0  0.098734  0.067611  0  0.998657  0
H  H43  1  0.92840735  0.51053046  0.07231983  1  0  0.052882  0  0.93377  0  0  0.067849  0  0.998833  0  0  0.067853  0  0.999354  0  0  0.098788  0.067758  0  0.998561  0
C  C44  1  0.18731865  0.76267121  0.23603094  1  0  0.694214  0  3.814257  0  0  0.659064  0  4.121236  0  0  0.694916  0  4.114262  0  0  0.211553  0.634616  0  4.124702  0
C  C45  1  0.81281817  0.26267951  0.26410626  1  0  0.694692  0  3.813504  0  0  0.65912  0  4.121125  0  0  0.694972  0  4.114123  0  0  0.21138  0.634684  0  4.124567  0
C  C46  1  0.81258462  0.23740434  0.76398399  1  0  0.693711  0  3.815599  0  0  0.658853  0  4.122087  0  0  0.694741  0  4.115091  0  0  0.211248  0.634413  0  4.125566  0
C  C47  1  0.18726543  0.73730240  0.73595623  1  0  0.694937  0  3.812776  0  0  0.659379  0  4.120347  0  0  0.695264  0  4.113292  0  0  0.21152  0.634922  0  4.123798  0
C  C48  1  0.05794191  0.67781986  0.27262748  1  0  -0.234801  0  3.654364  0  0  -0.269539  0  3.891719  0  0  -0.273984  0  3.89827  0  0  -0.150562  -0.266686  0  3.887347  0
C  C49  1  0.94207887  0.17785236  0.22739101  1  0  -0.23516  0  3.654744  0  0  -0.269561  0  3.892104  0  0  -0.274015  0  3.898678  0  0  -0.150458  -0.266684  0  3.887684  0
C  C50  1  0.94200138  0.32217898  0.72735524  1  0  -0.235052  0  3.654531  0  0  -0.269735  0  3.891695  0  0  -0.274209  0  3.898274  0  0  -0.150595  -0.266902  0  3.887333  0
C  C51  1  0.05794114  0.82212059  0.77261242  1  0  -0.235336  0  3.654784  0  0  -0.269738  0  3.892086  0  0  -0.274208  0  3.898652  0  0  -0.150486  -0.266839  0  3.887651  0
C  C52  1  0.09774163  0.67622093  0.37918177  1  0  -0.254461  0  3.670373  0  0  -0.297826  0  3.911939  0  0  -0.303685  0  3.918114  0  0  -0.155587  -0.293664  0  3.907607  0
C  C53  1  0.90221340  0.17622558  0.12083030  1  0  -0.254187  0  3.669646  0  0  -0.297636  0  3.911437  0  0  -0.30349  0  3.917605  0  0  -0.155664  -0.293466  0  3.907131  0
C  C54  1  0.90220033  0.32378887  0.62080282  1  0  -0.253771  0  3.669898  0  0  -0.297569  0  3.911788  0  0  -0.303411  0  3.917966  0  0  -0.155573  -0.293386  0  3.907493  0
C  C55  1  0.09774747  0.82373242  0.87916690  1  0  -0.254664  0  3.669867  0  0  -0.297819  0  3.911408  0  0  -0.303709  0  3.917489  0  0  -0.155553  -0.293609  0  3.907136  0
C  C56  1  0.27721179  0.61712413  0.42721081  1  0  0.787171  0  3.735374  0  0  0.758487  0  4.025612  0  0  0.799859  0  4.009215  0  0  0.266014  0.729595  0  4.036262  0
C  C57  1  0.72282526  0.11703407  0.07281357  1  0  0.787033  0  3.735088  0  0  0.758237  0  4.025564  0  0  0.799622  0  4.00917  0  0  0.265964  0.729265  0  4.036346  0
C  C58  1  0.72279883  0.38294943  0.57279480  1  0  0.78614  0  3.735507  0  0  0.757904  0  4.025263  0  0  0.799241  0  4.008924  0  0  0.265811  0.728948  0  4.036007  0
C  C59  1  0.27716232  0.88292891  0.92716601  1  0  0.788522  0  3.734009  0  0  0.7593  0  4.02487  0  0  0.80088  0  4.00815  0  0  0.26612  0.730238  0  4.035816  0
C  C60  1  0.67149464  0.95693942  0.38914519  1  0  0.740805  0  3.864707  0  0  0.680712  0  4.168618  0  0  0.71907  0  4.159873  0  0  0.353071  0.654487  0  4.173757  0
C  C61  1  0.32851909  0.45697384  0.11086047  1  0  0.740763  0  3.864931  0  0  0.680624  0  4.168991  0  0  0.71898  0  4.160246  0  0  0.352909  0.654397  0  4.17413  0
C  C62  1  0.32853881  0.04304946  0.61085996  1  0  0.741179  0  3.864886  0  0  0.68081  0  4.169136  0  0  0.719171  0  4.160393  0  0  0.353106  0.654593  0  4.174276  0
C  C63  1  0.67143096  0.54303696  0.88912720  1  0  0.741215  0  3.864293  0  0  0.68116  0  4.168263  0  0  0.719526  0  4.159502  0  0  0.353216  0.654926  0  4.173403  0
C  C64  1  0.77619789  0.81134605  0.51261885  1  0  0.033552  0  3.581631  0  0  -0.021657  0  3.842777  0  0  -0.018034  0  3.853056  0  0  -0.051445  -0.023961  0  3.835573  0
C  C65  1  0.22385861  0.31134984  0.98740399  1  0  0.033396  0  3.581709  0  0  -0.021537  0  3.842762  0  0  -0.017965  0  3.853112  0  0  -0.051293  -0.023865  0  3.835595  0
C  C66  1  0.22384097  0.18864882  0.48739175  1  0  0.033167  0  3.58172  0  0  -0.021773  0  3.842697  0  0  -0.018213  0  3.853056  0  0  -0.051466  -0.024058  0  3.835478  0
C  C67  1  0.77614118  0.68864403  0.01259141  1  0  0.033566  0  3.581618  0  0  -0.021424  0  3.842691  0  0  -0.0178  0  3.852987  0  0  -0.051229  -0.023748  0  3.835504  0
C  C68  1  0.78763059  0.95528502  0.55033782  1  0  0.040561  0  3.592145  0  0  -0.018497  0  3.860563  0  0  -0.013977  0  3.871134  0  0  -0.049537  -0.021445  0  3.853183  0
C  C69  1  0.21236219  0.45528602  0.94966009  1  0  0.040389  0  3.592148  0  0  -0.018591  0  3.860324  0  0  -0.014066  0  3.870914  0  0  -0.049523  -0.021547  0  3.852956  0
C  C70  1  0.21240557  0.04470286  0.44967107  1  0  0.040524  0  3.592052  0  0  -0.018451  0  3.860392  0  0  -0.013962  0  3.871007  0  0  -0.049532  -0.021383  0  3.853012  0
C  C71  1  0.78762950  0.54470286  0.05032884  1  0  0.04011  0  3.592207  0  0  -0.018717  0  3.860431  0  0  -0.014185  0  3.870995  0  0  -0.049603  -0.021653  0  3.853058  0
N  N72  1  0.68933009  0.02963850  0.46796142  1  0  -0.455113  0  3.200003  0  0  -0.398527  0  3.449607  0  0  -0.419353  0  3.453248  0  0  -0.414975  -0.384221  0  3.446861  0
N  N73  1  0.31065903  0.52965096  0.03204119  1  0  -0.45525  0  3.20038  0  0  -0.398657  0  3.449945  0  0  -0.419485  0  3.453597  0  0  -0.415067  -0.384335  0  3.447184  0
N  N74  1  0.31071414  0.97034938  0.53204850  1  0  -0.455173  0  3.199919  0  0  -0.39862  0  3.449654  0  0  -0.419442  0  3.453309  0  0  -0.415031  -0.384304  0  3.446893  0
N  N75  1  0.68931791  0.47034191  0.96795128  1  0  -0.455312  0  3.200007  0  0  -0.398962  0  3.449647  0  0  -0.419788  0  3.45328  0  0  -0.415208  -0.384653  0  3.446904  0
N  N76  1  0.73726581  0.83284522  0.41110090  1  0  -0.487858  0  3.217488  0  0  -0.435831  0  3.47123  0  0  -0.457149  0  3.475868  0  0  -0.423603  -0.421189  0  3.467607  0
N  N77  1  0.26281022  0.33288066  0.08892099  1  0  -0.487448  0  3.217405  0  0  -0.435603  0  3.471301  0  0  -0.456905  0  3.475962  0  0  -0.423648  -0.420961  0  3.467689  0
N  N78  1  0.26278785  0.16713669  0.58891295  1  0  -0.487815  0  3.21767  0  0  -0.435713  0  3.47143  0  0  -0.457008  0  3.476087  0  0  -0.423683  -0.421087  0  3.467808  0
N  N79  1  0.73718289  0.66712516  0.91107831  1  0  -0.487621  0  3.217182  0  0  -0.435754  0  3.471053  0  0  -0.45709  0  3.47571  0  0  -0.423735  -0.421096  0  3.467422  0
O  O80  1  0.29712842  0.05177383  0.13869741  1  0  -0.730765  0  1.575842  0  0  -0.735215  0  1.860993  0  0  -0.756557  0  1.846677  0  0  -0.754544  -0.722093  0  1.871924  0
O  O81  1  0.70290515  0.55181485  0.36134179  1  0  -0.730956  0  1.57587  0  0  -0.735412  0  1.86101  0  0  -0.756709  0  1.846744  0  0  -0.75446  -0.7223  0  1.871911  0
O  O82  1  0.70289878  0.94821904  0.86136463  1  0  -0.731094  0  1.575565  0  0  -0.735427  0  1.860679  0  0  -0.756839  0  1.846328  0  0  -0.754378  -0.722336  0  1.871562  0
O  O83  1  0.29716723  0.44821587  0.63866156  1  0  -0.73088  0  1.576642  0  0  -0.735359  0  1.861832  0  0  -0.756647  0  1.847576  0  0  -0.754675  -0.722181  0  1.872789  0
O  O84  1  0.59302153  0.76426577  0.18850708  1  0  -0.708596  0  1.573028  0  0  -0.717266  0  1.868467  0  0  -0.737293  0  1.854164  0  0  -0.750408  -0.705234  0  1.879483  0
O  O85  1  0.40695631  0.26437343  0.31141697  1  0  -0.708633  0  1.573576  0  0  -0.717349  0  1.868956  0  0  -0.737316  0  1.854696  0  0  -0.750636  -0.705339  0  1.87997  0
O  O86  1  0.40688662  0.23565837  0.81144805  1  0  -0.708457  0  1.573233  0  0  -0.717136  0  1.868797  0  0  -0.737217  0  1.854453  0  0  -0.750594  -0.705136  0  1.879769  0
O  O87  1  0.59307003  0.73568718  0.68854111  1  0  -0.708631  0  1.572874  0  0  -0.717402  0  1.86828  0  0  -0.737388  0  1.854033  0  0  -0.750374  -0.705307  0  1.879317  0
O  O88  1  0.30965722  0.83030789  0.29216784  1  0  -0.638325  0  1.943564  0  0  -0.617502  0  2.193159  0  0  -0.650349  0  2.190292  0  0  -0.343323  -0.593972  0  2.193968  0
O  O89  1  0.69051561  0.33039912  0.20801170  1  0  -0.63826  0  1.943337  0  0  -0.617596  0  2.193491  0  0  -0.650425  0  2.190619  0  0  -0.343726  -0.594082  0  2.194318  0
O  O90  1  0.69043162  0.16959831  0.70787835  1  0  -0.638025  0  1.94423  0  0  -0.617266  0  2.193622  0  0  -0.65015  0  2.190748  0  0  -0.343359  -0.593765  0  2.19444  0
O  O91  1  0.30958559  0.66960670  0.79206866  1  0  -0.638391  0  1.942977  0  0  -0.617582  0  2.192917  0  0  -0.650424  0  2.190042  0  0  -0.3436  -0.594033  0  2.193757  0
O  O92  1  0.33702225  0.52161110  0.38728523  1  0  -0.675018  0  2.067011  0  0  -0.662079  0  2.343171  0  0  -0.69805  0  2.333719  0  0  -0.370296  -0.636056  0  2.348719  0
O  O93  1  0.66306584  0.02153986  0.11276524  1  0  -0.674686  0  2.066365  0  0  -0.661651  0  2.342583  0  0  -0.697649  0  2.333121  0  0  -0.370249  -0.635597  0  2.348177  0
O  O94  1  0.66305570  0.47847741  0.61274259  1  0  -0.674403  0  2.066523  0  0  -0.66162  0  2.342542  0  0  -0.69757  0  2.33313  0  0  -0.370257  -0.635531  0  2.348125  0
O  O95  1  0.33690264  0.97839423  0.88717794  1  0  -0.675486  0  2.065947  0  0  -0.66227  0  2.342336  0  0  -0.698373  0  2.332736  0  0  -0.370378  -0.636216  0  2.347978  0
O  O96  1  0.17696434  0.76738796  0.14792214  1  0  -0.65096  0  1.966707  0  0  -0.638664  0  2.223559  0  0  -0.671089  0  2.219763  0  0  -0.356904  -0.615334  0  2.224946  0
O  O97  1  0.82319766  0.26730517  0.35221293  1  0  -0.651248  0  1.966281  0  0  -0.638656  0  2.223025  0  0  -0.671005  0  2.219199  0  0  -0.356544  -0.615368  0  2.224426  0
O  O98  1  0.82275212  0.23290577  0.85207629  1  0  -0.650871  0  1.967231  0  0  -0.638658  0  2.223878  0  0  -0.671099  0  2.220037  0  0  -0.356736  -0.615376  0  2.2253  0
O  O99  1  0.17692356  0.73266478  0.64785167  1  0  -0.651241  0  1.966243  0  0  -0.638828  0  2.223237  0  0  -0.671206  0  2.219385  0  0  -0.356902  -0.615489  0  2.224649  0
O  O100  1  0.60406735  0.00062609  0.30667844  1  0  -0.678696  0  2.07414  0  0  -0.670337  0  2.365641  0  0  -0.702876  0  2.357136  0  0  -0.378088  -0.646372  0  2.370109  0
O  O101  1  0.39593448  0.50070022  0.19332263  1  0  -0.678478  0  2.073959  0  0  -0.670129  0  2.365558  0  0  -0.702593  0  2.356989  0  0  -0.377801  -0.646181  0  2.370019  0
O  O102  1  0.39596609  0.99933490  0.69332467  1  0  -0.678866  0  2.074261  0  0  -0.670341  0  2.365928  0  0  -0.702884  0  2.357329  0  0  -0.378062  -0.646404  0  2.370381  0
O  O103  1  0.60397938  0.49933947  0.80667464  1  0  -0.678657  0  2.074416  0  0  -0.670258  0  2.36594  0  0  -0.702708  0  2.357338  0  0  -0.377923  -0.646292  0  2.370498  0
O  O104  1  0.35928743  0.66142399  0.50802746  1  0  -0.688029  0  2.065063  0  0  -0.673124  0  2.341904  0  0  -0.707578  0  2.331043  0  0  -0.369643  -0.647662  0  2.348132  0
O  O105  1  0.64070516  0.16125997  0.99195904  1  0  -0.688242  0  2.065265  0  0  -0.673232  0  2.342124  0  0  -0.707837  0  2.331358  0  0  -0.369602  -0.647761  0  2.348322  0
O  O106  1  0.64064649  0.33868245  0.49195881  1  0  -0.687905  0  2.065304  0  0  -0.673046  0  2.341761  0  0  -0.707584  0  2.331123  0  0  -0.369512  -0.647571  0  2.347941  0
O  O107  1  0.35926626  0.83875182  0.00801507  1  0  -0.688574  0  2.065145  0  0  -0.673515  0  2.342276  0  0  -0.708107  0  2.331323  0  0  -0.369612  -0.648002  0  2.348573  0
