# generated using pymatgen
data_ZnH3C2SN3O4
_symmetry_space_group_name_H-M   'P 1'
_cell_length_a   5.19156496
_cell_length_b   7.81388274
_cell_length_c   14.98920202
_cell_angle_alpha   87.57836119
_cell_angle_beta   88.28337070
_cell_angle_gamma   85.74971272
_symmetry_Int_Tables_number   1
_chemical_formula_structural   ZnH3C2SN3O4
_chemical_formula_sum   'Zn4 H12 C8 S4 N12 O16'
_cell_volume   605.62275247
_cell_formula_units_Z   4
loop_
 _symmetry_equiv_pos_site_id
 _symmetry_equiv_pos_as_xyz
  1  'x, y, z'
loop_
 _atom_site_type_symbol
 _atom_site_label
 _atom_site_symmetry_multiplicity
 _atom_site_fract_x
 _atom_site_fract_y
 _atom_site_fract_z
 _atom_site_occupancy
 _atom_site_hle17_bader_spin_density
 _atom_site_hle17_ddec_charge
 _atom_site_hle17_ddec_spin_density
 _atom_site_hle17_ddec_sum_bond_order
 _atom_site_hle17_magmom
 _atom_site_hse06_10hf_bader_spin_density
 _atom_site_hse06_10hf_ddec_charge
 _atom_site_hse06_10hf_ddec_spin_density
 _atom_site_hse06_10hf_ddec_sum_bond_order
 _atom_site_hse06_10hf_magmom
 _atom_site_hse06_bader_spin_density
 _atom_site_hse06_ddec_charge
 _atom_site_hse06_ddec_spin_density
 _atom_site_hse06_ddec_sum_bond_order
 _atom_site_hse06_magmom
 _atom_site_pbe_bader_spin_density
 _atom_site_pbe_cm5_charge
 _atom_site_pbe_ddec_charge
 _atom_site_pbe_ddec_spin_density
 _atom_site_pbe_ddec_sum_bond_order
 _atom_site_pbe_magmom
Zn  Zn0  1  0.49999933  0.50000192  0.00000045  1  0  1.126988  0  1.753761  0  0  0.951178  0  2.20646  0  0  0.995106  0  2.152703  0  0  0.721068  0.920067  0  2.243687  0
Zn  Zn1  1  0.17388450  0.10045823  0.73416563  1  0  1.042814  0  1.875032  0  0  0.856673  0  2.355031  0  0  0.897396  0  2.303679  0  0  0.737466  0.828204  0  2.39056  0
Zn  Zn2  1  0.82611269  0.89954359  0.26583397  1  0  1.042774  0  1.875122  0  0  0.856617  0  2.355129  0  0  0.897338  0  2.30377  0  0  0.737457  0.828149  0  2.390664  0
Zn  Zn3  1  0.49999953  0.99999795  0.50000026  1  0  1.162769  0  1.730465  0  0  0.989541  0  2.183993  0  0  1.032626  0  2.130459  0  0  0.720383  0.958971  0  2.221053  0
H  H4  1  0.67290875  0.09645324  0.85644975  1  0  0.113325  0  0.957976  0  0  0.119471  0  1.02543  0  0  0.122368  0  1.021378  0  0  0.144302  0.117225  0  1.028445  0
H  H5  1  0.32709134  0.90355754  0.14355165  1  0  0.113355  0  0.958122  0  0  0.119444  0  1.025651  0  0  0.122337  0  1.021614  0  0  0.144326  0.117211  0  1.028641  0
H  H6  1  0.13854297  0.71791743  0.83888543  1  0  0.117655  0  0.921115  0  0  0.123309  0  0.98614  0  0  0.125912  0  0.982981  0  0  0.144966  0.12132  0  0.988526  0
H  H7  1  0.86145986  0.28208570  0.16111274  1  0  0.117776  0  0.921059  0  0  0.123385  0  0.986103  0  0  0.125986  0  0.982949  0  0  0.145  0.121399  0  0.988487  0
H  H8  1  0.14760990  0.66683953  0.48218218  1  0  0.111951  0  0.951477  0  0  0.121198  0  1.012117  0  0  0.123958  0  1.008533  0  0  0.144694  0.11905  0  1.014823  0
H  H9  1  0.85238311  0.33316491  0.51781342  1  0  0.112008  0  0.95138  0  0  0.12123  0  1.012056  0  0  0.123994  0  1.008465  0  0  0.144703  0.119074  0  1.014759  0
H  H10  1  0.59224383  0.54995615  0.24882798  1  0  0.125782  0  0.93432  0  0  0.133723  0  0.994429  0  0  0.136381  0  0.991152  0  0  0.150718  0.131643  0  0.996916  0
H  H11  1  0.40776371  0.45003925  0.75117162  1  0  0.125785  0  0.934195  0  0  0.133729  0  0.994299  0  0  0.136389  0  0.991019  0  0  0.150724  0.131649  0  0.996783  0
H  H12  1  0.77820843  0.84618945  0.97443385  1  0  0.321438  0  0.9301  0  0  0.293824  0  1.001024  0  0  0.303274  0  0.993713  0  0  0.320345  0.287072  0  1.006382  0
H  H13  1  0.22179236  0.15381492  0.02556700  1  0  0.321406  0  0.930196  0  0  0.293759  0  1.001155  0  0  0.303235  0  0.993794  0  0  0.32035  0.287006  0  1.006512  0
H  H14  1  0.20926969  0.45377162  0.35206170  1  0  0.341091  0  0.917909  0  0  0.316533  0  0.981826  0  0  0.32649  0  0.97377  0  0  0.313661  0.309499  0  0.987542  0
H  H15  1  0.79073149  0.54622893  0.64793654  1  0  0.341074  0  0.917906  0  0  0.316512  0  0.981828  0  0  0.326449  0  0.973812  0  0  0.313658  0.309479  0  0.987543  0
C  C16  1  0.56794383  0.98225332  0.86709425  1  0  0.266  0  3.6014  0  0  0.193414  0  3.877425  0  0  0.210238  0  3.886077  0  0  0.177381  0.182458  0  3.8715  0
C  C17  1  0.43204818  0.01774332  0.13290817  1  0  0.265958  0  3.600957  0  0  0.193359  0  3.877002  0  0  0.210191  0  3.885662  0  0  0.177341  0.182401  0  3.871089  0
C  C18  1  0.29763019  0.78834074  0.85947096  1  0  0.250712  0  3.604895  0  0  0.189517  0  3.879682  0  0  0.203615  0  3.890614  0  0  0.169344  0.180243  0  3.872286  0
C  C19  1  0.70237237  0.21166494  0.14052851  1  0  0.250615  0  3.605119  0  0  0.189441  0  3.879897  0  0  0.203547  0  3.89083  0  0  0.169344  0.180166  0  3.8725  0
C  C20  1  0.29528966  0.66938672  0.42967756  1  0  0.234292  0  3.607605  0  0  0.168065  0  3.878314  0  0  0.181854  0  3.889558  0  0  0.170811  0.159073  0  3.870669  0
C  C21  1  0.70470572  0.33061386  0.57031941  1  0  0.234267  0  3.607483  0  0  0.168054  0  3.878202  0  0  0.181839  0  3.889443  0  0  0.1708  0.159073  0  3.870548  0
C  C22  1  0.52046434  0.60895824  0.30980151  1  0  0.2705  0  3.583802  0  0  0.202092  0  3.854295  0  0  0.218214  0  3.863679  0  0  0.182316  0.191491  0  3.847985  0
C  C23  1  0.47953906  0.39103973  0.69019808  1  0  0.270531  0  3.583609  0  0  0.20215  0  3.854056  0  0  0.218267  0  3.863439  0  0  0.18236  0.19155  0  3.847743  0
S  S24  1  0.02855489  0.33138948  0.89481078  1  0  1.574727  0  5.802658  0  0  1.45244  0  6.338064  0  0  1.507976  0  6.302906  0  0  0.56675  1.413852  0  6.361362  0
S  S25  1  0.97144645  0.66860975  0.10519015  1  0  1.574683  0  5.80288  0  0  1.45239  0  6.338293  0  0  1.507925  0  6.303132  0  0  0.566698  1.413809  0  6.36159  0
S  S26  1  0.00114239  0.84150287  0.62592519  1  0  1.573429  0  5.807336  0  0  1.457321  0  6.334205  0  0  1.512456  0  6.299408  0  0  0.562301  1.419007  0  6.357274  0
S  S27  1  0.99885936  0.15849253  0.37407447  1  0  1.573471  0  5.80741  0  0  1.457386  0  6.334249  0  0  1.51252  0  6.299457  0  0  0.562285  1.419073  0  6.357316  0
N  N28  1  0.45611243  0.73407163  0.92409814  1  0  -0.22758  0  3.111989  0  0  -0.171559  0  3.391891  0  0  -0.186407  0  3.405812  0  0  -0.221165  -0.161625  0  3.382605  0
N  N29  1  0.54389427  0.26593146  0.07590199  1  0  -0.227564  0  3.112152  0  0  -0.171538  0  3.392015  0  0  -0.186383  0  3.405942  0  0  -0.221166  -0.161604  0  3.382725  0
N  N30  1  0.62537115  0.85779551  0.92793357  1  0  -0.16077  0  3.383873  0  0  -0.097676  0  3.617089  0  0  -0.112034  0  3.63437  0  0  -0.248144  -0.088252  0  3.605734  0
N  N31  1  0.37462132  0.14221405  0.07206327  1  0  -0.16072  0  3.383594  0  0  -0.097573  0  3.616779  0  0  -0.111952  0  3.634051  0  0  -0.248109  -0.088148  0  3.605425  0
N  N32  1  0.36125363  0.94238874  0.82255748  1  0  -0.424793  0  3.248403  0  0  -0.340869  0  3.556542  0  0  -0.363567  0  3.563919  0  0  -0.351733  -0.325663  0  3.551297  0
N  N33  1  0.63875294  0.05761562  0.17744396  1  0  -0.424823  0  3.248349  0  0  -0.340845  0  3.556438  0  0  -0.363561  0  3.563821  0  0  -0.351784  -0.325644  0  3.5512  0
N  N34  1  0.45990494  0.78990700  0.41720251  1  0  -0.24124  0  3.157625  0  0  -0.179767  0  3.441598  0  0  -0.195318  0  3.457649  0  0  -0.223362  -0.169339  0  3.430764  0
N  N35  1  0.54009459  0.21009098  0.58279580  1  0  -0.241369  0  3.157647  0  0  -0.179899  0  3.441629  0  0  -0.19545  0  3.457681  0  0  -0.223436  -0.169472  0  3.430789  0
N  N36  1  0.60290528  0.75117350  0.34103658  1  0  -0.280871  0  3.207817  0  0  -0.210444  0  3.51225  0  0  -0.227851  0  3.524754  0  0  -0.248836  -0.198875  0  3.503917  0
N  N37  1  0.39709425  0.24882449  0.65896173  1  0  -0.280825  0  3.20773  0  0  -0.210404  0  3.512156  0  0  -0.227811  0  3.524663  0  0  -0.248786  -0.198827  0  3.503812  0
N  N38  1  0.32913876  0.55483887  0.36414557  1  0  -0.292694  0  3.355723  0  0  -0.22004  0  3.592815  0  0  -0.238929  0  3.603351  0  0  -0.346779  -0.207507  0  3.585558  0
N  N39  1  0.67086062  0.44516041  0.63585204  1  0  -0.292675  0  3.355648  0  0  -0.220033  0  3.592743  0  0  -0.238908  0  3.603295  0  0  -0.346805  -0.207499  0  3.585483  0
O  O40  1  0.84448354  0.47718692  0.91822058  1  0  -0.727814  0  2.058938  0  0  -0.666964  0  2.345098  0  0  -0.690444  0  2.325917  0  0  -0.353605  -0.650303  0  2.35781  0
O  O41  1  0.15551618  0.52280971  0.08178242  1  0  -0.727815  0  2.058921  0  0  -0.666993  0  2.345104  0  0  -0.69047  0  2.325925  0  0  -0.35362  -0.650332  0  2.357813  0
O  O42  1  0.29995327  0.38389012  0.89468246  1  0  -0.754265  0  2.007736  0  0  -0.693709  0  2.294942  0  0  -0.71665  0  2.274892  0  0  -0.356722  -0.677371  0  2.308198  0
O  O43  1  0.70005003  0.61610909  0.10532045  1  0  -0.754297  0  2.007788  0  0  -0.693685  0  2.294902  0  0  -0.716619  0  2.274844  0  0  -0.356732  -0.677377  0  2.308201  0
O  O44  1  0.00119428  0.17889503  0.95569747  1  0  -0.708934  0  1.991101  0  0  -0.660269  0  2.243852  0  0  -0.681457  0  2.230803  0  0  -0.35418  -0.645241  0  2.252452  0
O  O45  1  0.99880761  0.82109908  0.04430222  1  0  -0.708909  0  1.991188  0  0  -0.660246  0  2.243889  0  0  -0.681423  0  2.230851  0  0  -0.354146  -0.645216  0  2.252485  0
O  O46  1  0.97051891  0.28417423  0.80103743  1  0  -0.738737  0  2.016913  0  0  -0.663088  0  2.307307  0  0  -0.687237  0  2.286048  0  0  -0.366541  -0.646068  0  2.321537  0
O  O47  1  0.02948588  0.71582884  0.19896406  1  0  -0.73872  0  2.017092  0  0  -0.663057  0  2.307484  0  0  -0.687204  0  2.286216  0  0  -0.366497  -0.646016  0  2.321659  0
O  O48  1  0.89210010  0.97596807  0.68945240  1  0  -0.728915  0  2.023826  0  0  -0.656515  0  2.311596  0  0  -0.68043  0  2.292062  0  0  -0.365281  -0.639709  0  2.324652  0
O  O49  1  0.10789740  0.02403116  0.31054858  1  0  -0.728843  0  2.023996  0  0  -0.656446  0  2.311764  0  0  -0.680364  0  2.29223  0  0  -0.365231  -0.639642  0  2.324822  0
O  O50  1  0.00257768  0.66947592  0.67135553  1  0  -0.697468  0  1.93436  0  0  -0.652973  0  2.178319  0  0  -0.674039  0  2.161851  0  0  -0.355303  -0.63802  0  2.189197  0
O  O51  1  0.99742010  0.33052074  0.32864549  1  0  -0.697499  0  1.934282  0  0  -0.652999  0  2.178223  0  0  -0.674071  0  2.161745  0  0  -0.355321  -0.638047  0  2.1891  0
O  O52  1  0.84154819  0.84775254  0.54529961  1  0  -0.740448  0  2.043776  0  0  -0.681791  0  2.326445  0  0  -0.705037  0  2.307503  0  0  -0.353557  -0.66529  0  2.339025  0
O  O53  1  0.15844765  0.15224414  0.45470077  1  0  -0.740473  0  2.043734  0  0  -0.681866  0  2.326462  0  0  -0.705112  0  2.307521  0  0  -0.353573  -0.665363  0  2.339038  0
O  O54  1  0.27401943  0.87965163  0.60316836  1  0  -0.764041  0  2.035927  0  0  -0.702237  0  2.32779  0  0  -0.724564  0  2.305416  0  0  -0.360565  -0.686367  0  2.34274  0
O  O55  1  0.72598070  0.12034118  0.39683270  1  0  -0.764071  0  2.035853  0  0  -0.702268  0  2.327714  0  0  -0.724591  0  2.305336  0  0  -0.360573  -0.686398  0  2.342665  0
