# generated using pymatgen
data_Zn3H6(CO)10
_symmetry_space_group_name_H-M   'P 1'
_cell_length_a   5.16468267
_cell_length_b   9.54428519
_cell_length_c   14.23063080
_cell_angle_alpha   94.10390076
_cell_angle_beta   100.48135797
_cell_angle_gamma   105.72768632
_symmetry_Int_Tables_number   1
_chemical_formula_structural   Zn3H6(CO)10
_chemical_formula_sum   'Zn6 H12 C20 O20'
_cell_volume   658.50779733
_cell_formula_units_Z   2
loop_
 _symmetry_equiv_pos_site_id
 _symmetry_equiv_pos_as_xyz
  1  'x, y, z'
loop_
 _atom_site_type_symbol
 _atom_site_label
 _atom_site_symmetry_multiplicity
 _atom_site_fract_x
 _atom_site_fract_y
 _atom_site_fract_z
 _atom_site_occupancy
 _atom_site_hle17_bader_spin_density
 _atom_site_hle17_ddec_charge
 _atom_site_hle17_ddec_spin_density
 _atom_site_hle17_ddec_sum_bond_order
 _atom_site_hle17_magmom
 _atom_site_hse06_10hf_bader_spin_density
 _atom_site_hse06_10hf_ddec_charge
 _atom_site_hse06_10hf_ddec_spin_density
 _atom_site_hse06_10hf_ddec_sum_bond_order
 _atom_site_hse06_10hf_magmom
 _atom_site_hse06_bader_spin_density
 _atom_site_hse06_ddec_charge
 _atom_site_hse06_ddec_spin_density
 _atom_site_hse06_ddec_sum_bond_order
 _atom_site_hse06_magmom
 _atom_site_pbe_bader_spin_density
 _atom_site_pbe_cm5_charge
 _atom_site_pbe_ddec_charge
 _atom_site_pbe_ddec_spin_density
 _atom_site_pbe_ddec_sum_bond_order
 _atom_site_pbe_magmom
Zn  Zn0  1  0.02290080  0.75055479  0.74953177  1  0  1.175993  0  1.622747  0  0  1.008942  0  2.066552  0  0  1.061024  0  2.005386  0  0  0.672176  0.971827  0  2.109158  0
Zn  Zn1  1  0.97710577  0.24944385  0.25047695  1  0  1.176085  0  1.62273  0  0  1.009016  0  2.06658  0  0  1.061095  0  2.005406  0  0  0.672179  0.971888  0  2.10917  0
Zn  Zn2  1  0.33406636  0.16328024  0.79654350  1  0  1.182896  0  1.743871  0  0  1.014946  0  2.205958  0  0  1.064125  0  2.143268  0  0  0.708017  0.978222  0  2.250901  0
Zn  Zn3  1  0.87568633  0.33801274  0.70413938  1  0  1.184192  0  1.741915  0  0  1.016147  0  2.203657  0  0  1.065343  0  2.141043  0  0  0.708892  0.979609  0  2.248442  0
Zn  Zn4  1  0.66594615  0.83671722  0.20345791  1  0  1.182796  0  1.743981  0  0  1.014894  0  2.206102  0  0  1.064073  0  2.143413  0  0  0.707982  0.978169  0  2.251046  0
Zn  Zn5  1  0.12432621  0.66199127  0.29585904  1  0  1.184178  0  1.741874  0  0  1.0162  0  2.203586  0  0  1.065396  0  2.140976  0  0  0.708915  0.979648  0  2.248369  0
H  H6  1  0.83459500  0.63187165  0.88500255  1  0  0.435496  0  0.800801  0  0  0.416998  0  0.854749  0  0  0.424782  0  0.846565  0  0  0.325526  0.411885  0  0.859935  0
H  H7  1  0.81730945  0.86981012  0.61427216  1  0  0.436567  0  0.799361  0  0  0.41848  0  0.852433  0  0  0.426184  0  0.844412  0  0  0.326376  0.412805  0  0.858678  0
H  H8  1  0.16535813  0.36806863  0.11498353  1  0  0.435598  0  0.80076  0  0  0.417088  0  0.854715  0  0  0.42487  0  0.846533  0  0  0.325566  0.411974  0  0.859898  0
H  H9  1  0.18271816  0.13022145  0.38574046  1  0  0.436627  0  0.799302  0  0  0.418532  0  0.852383  0  0  0.426239  0  0.844354  0  0  0.326433  0.412858  0  0.858629  0
H  H10  1  0.57340602  0.67811834  0.83691610  1  0  0.439197  0  0.857229  0  0  0.405046  0  0.925752  0  0  0.416369  0  0.909817  0  0  0.293708  0.397061  0  0.937026  0
H  H11  1  0.55798116  0.82281448  0.66225881  1  0  0.438252  0  0.860397  0  0  0.403518  0  0.928941  0  0  0.41496  0  0.912806  0  0  0.292545  0.395656  0  0.939925  0
H  H12  1  0.42659388  0.32187800  0.16308305  1  0  0.439185  0  0.857267  0  0  0.405038  0  0.925756  0  0  0.416362  0  0.909822  0  0  0.293702  0.397049  0  0.937037  0
H  H13  1  0.44203523  0.17719179  0.33774637  1  0  0.438401  0  0.860229  0  0  0.403643  0  0.928785  0  0  0.415084  0  0.912651  0  0  0.292608  0.395778  0  0.939772  0
H  H14  1  0.64103412  0.77447482  0.01214099  1  0  0.100284  0  0.972006  0  0  0.108132  0  1.036995  0  0  0.111315  0  1.033411  0  0  0.102249  0.10578  0  1.039655  0
H  H15  1  0.35412049  0.72519461  0.48701272  1  0  0.098795  0  0.971983  0  0  0.106327  0  1.037588  0  0  0.109477  0  1.03399  0  0  0.102425  0.104243  0  1.039771  0
H  H16  1  0.35896682  0.22551826  0.98786071  1  0  0.100327  0  0.972079  0  0  0.10813  0  1.037112  0  0  0.111314  0  1.033525  0  0  0.102255  0.10578  0  1.039776  0
H  H17  1  0.64587558  0.27481816  0.51298487  1  0  0.098683  0  0.972046  0  0  0.106266  0  1.037587  0  0  0.109424  0  1.033996  0  0  0.102395  0.104184  0  1.039774  0
C  C18  1  0.72452720  0.96458026  0.93943627  1  0  -0.163829  0  3.813227  0  0  -0.156732  0  4.069401  0  0  -0.177421  0  4.104836  0  0  -0.067669  -0.142723  0  4.045359  0
C  C19  1  0.32066344  0.53581538  0.56044093  1  0  -0.1624  0  3.812941  0  0  -0.156679  0  4.071158  0  0  -0.177437  0  4.106627  0  0  -0.067931  -0.142588  0  4.046942  0
C  C20  1  0.27546972  0.03541609  0.06056384  1  0  -0.164037  0  3.813281  0  0  -0.156875  0  4.069458  0  0  -0.177561  0  4.104894  0  0  -0.067701  -0.14286  0  4.045418  0
C  C21  1  0.67932832  0.46418310  0.43955302  1  0  -0.162698  0  3.812721  0  0  -0.156873  0  4.070822  0  0  -0.177636  0  4.106289  0  0  -0.067901  -0.142789  0  4.04663  0
C  C22  1  0.93932205  0.09999744  0.93494496  1  0  -0.146658  0  3.823441  0  0  -0.131367  0  4.074304  0  0  -0.145997  0  4.103419  0  0  -0.052895  -0.121622  0  4.0544  0
C  C23  1  0.40481978  0.40057242  0.56540528  1  0  -0.147773  0  3.826439  0  0  -0.132603  0  4.077897  0  0  -0.147099  0  4.106803  0  0  -0.053976  -0.122759  0  4.058039  0
C  C24  1  0.06068519  0.90000440  0.06505507  1  0  -0.146448  0  3.823405  0  0  -0.13121  0  4.074274  0  0  -0.145838  0  4.103396  0  0  -0.052816  -0.121467  0  4.054366  0
C  C25  1  0.59517147  0.59944037  0.43459340  1  0  -0.147556  0  3.825985  0  0  -0.132377  0  4.077385  0  0  -0.146876  0  4.106291  0  0  -0.053909  -0.122533  0  4.057525  0
C  C26  1  0.79943564  0.87509404  0.00850969  1  0  -0.08155  0  3.794213  0  0  -0.115055  0  4.055853  0  0  -0.103304  0  4.072412  0  0  -0.092069  -0.122636  0  4.044447  0
C  C27  1  0.41559543  0.62470911  0.49104373  1  0  -0.079442  0  3.793841  0  0  -0.112278  0  4.055614  0  0  -0.100439  0  4.072039  0  0  -0.091191  -0.11976  0  4.043778  0
C  C28  1  0.20056685  0.12490451  0.99149104  1  0  -0.081485  0  3.794397  0  0  -0.115001  0  4.056023  0  0  -0.103245  0  4.072574  0  0  -0.091999  -0.122585  0  4.044622  0
C  C29  1  0.58439398  0.37530367  0.50895507  1  0  -0.079199  0  3.793798  0  0  -0.112075  0  4.055519  0  0  -0.100263  0  4.071983  0  0  -0.091204  -0.119558  0  4.043687  0
C  C30  1  0.47375136  0.90072784  0.87168697  1  0  0.579823  0  3.891838  0  0  0.534385  0  4.175013  0  0  0.565012  0  4.18184  0  0  0.163736  0.513652  0  4.169354  0
C  C31  1  0.20145754  0.59997091  0.62793143  1  0  0.580051  0  3.893624  0  0  0.534478  0  4.177113  0  0  0.565004  0  4.184102  0  0  0.163862  0.513946  0  4.171184  0
C  C32  1  0.52625413  0.09926636  0.12831680  1  0  0.580059  0  3.891547  0  0  0.534584  0  4.174747  0  0  0.565217  0  4.181566  0  0  0.163754  0.513832  0  4.169107  0
C  C33  1  0.79853400  0.40003640  0.37206808  1  0  0.580362  0  3.893935  0  0  0.53476  0  4.177404  0  0  0.565286  0  4.184384  0  0  0.163905  0.514225  0  4.17148  0
C  C34  1  0.89684017  0.21602416  0.87954427  1  0  0.630156  0  3.841849  0  0  0.584095  0  4.125284  0  0  0.623186  0  4.117211  0  0  0.189935  0.557135  0  4.129747  0
C  C35  1  0.30216331  0.28495903  0.62114195  1  0  0.630353  0  3.846881  0  0  0.584884  0  4.129411  0  0  0.624045  0  4.121274  0  0  0.192174  0.557358  0  4.134596  0
C  C36  1  0.10316606  0.78397110  0.12045581  1  0  0.629948  0  3.841768  0  0  0.583969  0  4.125192  0  0  0.623057  0  4.117125  0  0  0.189889  0.557017  0  4.129643  0
C  C37  1  0.69783904  0.71505045  0.37885556  1  0  0.630282  0  3.846771  0  0  0.58478  0  4.129365  0  0  0.623945  0  4.12123  0  0  0.192082  0.557247  0  4.134551  0
O  O38  1  0.34465215  0.75995428  0.86552314  1  0  -0.682136  0  2.019529  0  0  -0.604224  0  2.255825  0  0  -0.635023  0  2.246862  0  0  -0.340322  -0.582647  0  2.261737  0
O  O39  1  0.21860457  0.74063875  0.63356471  1  0  -0.682998  0  2.019667  0  0  -0.604421  0  2.255516  0  0  -0.635249  0  2.246556  0  0  -0.340374  -0.583038  0  2.261704  0
O  O40  1  0.65535549  0.24004649  0.13447974  1  0  -0.682312  0  2.019556  0  0  -0.60435  0  2.255833  0  0  -0.635166  0  2.246877  0  0  -0.340317  -0.582762  0  2.26174  0
O  O41  1  0.78140675  0.25938505  0.36643911  1  0  -0.683106  0  2.019931  0  0  -0.604486  0  2.255768  0  0  -0.635312  0  2.246802  0  0  -0.340382  -0.583103  0  2.261961  0
O  O42  1  0.35127006  0.96649855  0.80554180  1  0  -0.719647  0  2.158318  0  0  -0.628662  0  2.45591  0  0  -0.662033  0  2.439154  0  0  -0.347964  -0.604249  0  2.466303  0
O  O43  1  0.07992458  0.53461530  0.69431414  1  0  -0.720773  0  2.160142  0  0  -0.629071  0  2.457053  0  0  -0.662524  0  2.440369  0  0  -0.348277  -0.604579  0  2.46743  0
O  O44  1  0.64873316  0.03349017  0.19446224  1  0  -0.719703  0  2.158233  0  0  -0.628747  0  2.455946  0  0  -0.662119  0  2.439182  0  0  -0.347961  -0.604327  0  2.466342  0
O  O45  1  0.92004314  0.46537340  0.30568786  1  0  -0.720836  0  2.160387  0  0  -0.629158  0  2.457303  0  0  -0.662611  0  2.440613  0  0  -0.348306  -0.604658  0  2.467694  0
O  O46  1  0.72829678  0.63921128  0.82241133  1  0  -0.812671  0  1.866026  0  0  -0.751113  0  2.07811  0  0  -0.773004  0  2.04662  0  0  -0.555801  -0.735718  0  2.099723  0
O  O47  1  0.76638092  0.86187035  0.67682664  1  0  -0.812941  0  1.866754  0  0  -0.751207  0  2.077374  0  0  -0.773145  0  2.045897  0  0  -0.555718  -0.735702  0  2.099526  0
O  O48  1  0.27168457  0.36077181  0.17757929  1  0  -0.812764  0  1.865985  0  0  -0.751224  0  2.078148  0  0  -0.77311  0  2.046651  0  0  -0.555853  -0.735818  0  2.099766  0
O  O49  1  0.23363413  0.13813377  0.32318214  1  0  -0.813119  0  1.866612  0  0  -0.75136  0  2.077338  0  0  -0.773287  0  2.045832  0  0  -0.555792  -0.735849  0  2.099493  0
O  O50  1  0.69781141  0.27171457  0.87853003  1  0  -0.644357  0  2.068561  0  0  -0.575972  0  2.331944  0  0  -0.601413  0  2.311807  0  0  -0.330944  -0.5577  0  2.345579  0
O  O51  1  0.04841856  0.22923606  0.62231448  1  0  -0.646108  0  2.070015  0  0  -0.57795  0  2.333341  0  0  -0.603427  0  2.313198  0  0  -0.333603  -0.560003  0  2.34799  0
O  O52  1  0.30220595  0.72828943  0.12146729  1  0  -0.644354  0  2.0685  0  0  -0.575987  0  2.331884  0  0  -0.601426  0  2.311749  0  0  -0.330981  -0.557722  0  2.345521  0
O  O53  1  0.95158638  0.77076899  0.37767781  1  0  -0.646084  0  2.070031  0  0  -0.57791  0  2.333348  0  0  -0.603385  0  2.313203  0  0  -0.333555  -0.559965  0  2.348004  0
O  O54  1  0.07603046  0.27114280  0.82465680  1  0  -0.704756  0  2.133846  0  0  -0.604941  0  2.425867  0  0  -0.637053  0  2.40208  0  0  -0.331119  -0.58205  0  2.442117  0
O  O55  1  0.48138643  0.23020701  0.67615349  1  0  -0.704143  0  2.137832  0  0  -0.604263  0  2.429302  0  0  -0.636412  0  2.405623  0  0  -0.331853  -0.58156  0  2.44587  0
O  O56  1  0.92396556  0.72884473  0.17533858  1  0  -0.70447  0  2.133753  0  0  -0.604818  0  2.425881  0  0  -0.636929  0  2.402097  0  0  -0.331048  -0.581924  0  2.442122  0
O  O57  1  0.51859281  0.76980025  0.32384161  1  0  -0.70423  0  2.137787  0  0  -0.604289  0  2.429196  0  0  -0.636446  0  2.405522  0  0  -0.331857  -0.581573  0  2.445758  0
