# generated using pymatgen
data_ZnH16C20(SN4)2
_symmetry_space_group_name_H-M   'P 1'
_cell_length_a   5.45106799
_cell_length_b   12.54434184
_cell_length_c   18.23579929
_cell_angle_alpha   90.00071352
_cell_angle_beta   89.99967544
_cell_angle_gamma   90.83928305
_symmetry_Int_Tables_number   1
_chemical_formula_structural   ZnH16C20(SN4)2
_chemical_formula_sum   'Zn2 H32 C40 S4 N16'
_cell_volume   1246.83127479
_cell_formula_units_Z   2
loop_
 _symmetry_equiv_pos_site_id
 _symmetry_equiv_pos_as_xyz
  1  'x, y, z'
loop_
 _atom_site_type_symbol
 _atom_site_label
 _atom_site_symmetry_multiplicity
 _atom_site_fract_x
 _atom_site_fract_y
 _atom_site_fract_z
 _atom_site_occupancy
 _atom_site_hle17_bader_spin_density
 _atom_site_hle17_ddec_charge
 _atom_site_hle17_ddec_spin_density
 _atom_site_hle17_ddec_sum_bond_order
 _atom_site_hle17_magmom
 _atom_site_hse06_10hf_bader_spin_density
 _atom_site_hse06_10hf_ddec_charge
 _atom_site_hse06_10hf_ddec_spin_density
 _atom_site_hse06_10hf_ddec_sum_bond_order
 _atom_site_hse06_10hf_magmom
 _atom_site_hse06_bader_spin_density
 _atom_site_hse06_ddec_charge
 _atom_site_hse06_ddec_spin_density
 _atom_site_hse06_ddec_sum_bond_order
 _atom_site_hse06_magmom
 _atom_site_pbe_bader_spin_density
 _atom_site_pbe_cm5_charge
 _atom_site_pbe_ddec_charge
 _atom_site_pbe_ddec_spin_density
 _atom_site_pbe_ddec_sum_bond_order
 _atom_site_pbe_magmom
Zn  Zn0  1  0.58906525  0.16920481  0.05788308  1  0  0.973275  0  2.100146  0  0  0.780439  0  2.611052  0  0  0.82021  0  2.561827  0  0  0.755397  0.753419  0  2.644431  0
Zn  Zn1  1  0.41093771  0.83080345  0.55789102  1  0  0.973387  0  2.100105  0  0  0.780553  0  2.611062  0  0  0.820331  0  2.561833  0  0  0.755478  0.753534  0  2.644438  0
H  H2  1  0.25836564  0.17099915  0.93124130  1  0  0.071222  0  0.970944  0  0  0.07687  0  1.040535  0  0  0.079079  0  1.039065  0  0  0.106714  0.075231  0  1.041618  0
H  H3  1  0.74162750  0.82899429  0.43123821  1  0  0.071195  0  0.970916  0  0  0.076835  0  1.04052  0  0  0.079047  0  1.03905  0  0  0.106641  0.075193  0  1.041607  0
H  H4  1  0.90972704  0.06447487  0.88329175  1  0  0.115495  0  0.948862  0  0  0.129052  0  1.002201  0  0  0.132064  0  1.001434  0  0  0.105584  0.126882  0  1.002948  0
H  H5  1  0.09028150  0.93551447  0.38329122  1  0  0.115495  0  0.948723  0  0  0.129074  0  1.002057  0  0  0.132089  0  1.00128  0  0  0.10558  0.126904  0  1.002804  0
H  H6  1  0.06180985  0.82831376  0.04948091  1  0  0.113821  0  0.933696  0  0  0.124192  0  0.990573  0  0  0.128221  0  0.988598  0  0  0.111339  0.121331  0  0.992107  0
H  H7  1  0.93819477  0.17168796  0.54947682  1  0  0.113854  0  0.9337  0  0  0.124199  0  0.990594  0  0  0.128223  0  0.98862  0  0  0.111319  0.121339  0  0.992125  0
H  H8  1  0.40708525  0.94587942  0.09161198  1  0  0.081479  0  0.9302  0  0  0.09106  0  0.990499  0  0  0.093409  0  0.98877  0  0  0.117954  0.089286  0  0.991855  0
H  H9  1  0.59291872  0.05412545  0.59161186  1  0  0.081354  0  0.930275  0  0  0.090929  0  0.990586  0  0  0.093279  0  0.988855  0  0  0.117895  0.089157  0  0.991941  0
H  H10  1  0.57155481  0.96480896  0.84459565  1  0  0.132385  0  0.956278  0  0  0.143249  0  1.012822  0  0  0.146425  0  1.011952  0  0  0.107277  0.140976  0  1.013568  0
H  H11  1  0.42846198  0.03518365  0.34459231  1  0  0.132408  0  0.956132  0  0  0.14326  0  1.012694  0  0  0.146437  0  1.011825  0  0  0.107308  0.140986  0  1.01344  0
H  H12  1  0.25270600  0.79317342  0.84701460  1  0  0.116419  0  0.956778  0  0  0.12389  0  1.023149  0  0  0.126972  0  1.020672  0  0  0.124122  0.121655  0  1.024928  0
H  H13  1  0.74730708  0.20681925  0.34701713  1  0  0.116321  0  0.956906  0  0  0.123793  0  1.023289  0  0  0.126876  0  1.020807  0  0  0.124072  0.121558  0  1.025069  0
H  H14  1  0.18245270  0.64480303  0.94597925  1  0  0.094965  0  0.925506  0  0  0.10366  0  0.997163  0  0  0.105399  0  0.995353  0  0  0.119066  0.10239  0  0.99846  0
H  H15  1  0.81754601  0.35519704  0.44598129  1  0  0.094977  0  0.925494  0  0  0.103667  0  0.997163  0  0  0.105409  0  0.995356  0  0  0.119068  0.102398  0  0.99846  0
H  H16  1  0.42088205  0.62887764  0.01202266  1  0  0.091393  0  0.900595  0  0  0.110805  0  0.953971  0  0  0.111716  0  0.953063  0  0  0.12193  0.110117  0  0.954671  0
H  H17  1  0.57911218  0.37112186  0.51202473  1  0  0.09135  0  0.900647  0  0  0.110794  0  0.953988  0  0  0.111706  0  0.953082  0  0  0.121909  0.110107  0  0.954686  0
H  H18  1  0.68271299  0.54327370  0.91320713  1  0  0.090059  0  0.918578  0  0  0.102436  0  0.985982  0  0  0.103283  0  0.98574  0  0  0.113171  0.101709  0  0.986293  0
H  H19  1  0.31729165  0.45672257  0.41320760  1  0  0.090101  0  0.918593  0  0  0.102496  0  0.985988  0  0  0.103347  0  0.985742  0  0  0.113228  0.101772  0  0.986297  0
H  H20  1  0.41205149  0.47058626  0.93821171  1  0  0.078377  0  0.942126  0  0  0.091227  0  1.012923  0  0  0.090827  0  1.014177  0  0  0.10484  0.091393  0  1.012151  0
H  H21  1  0.58794736  0.52941366  0.43821454  1  0  0.078349  0  0.942199  0  0  0.091216  0  1.012988  0  0  0.090816  0  1.014244  0  0  0.104836  0.091383  0  1.012214  0
H  H22  1  0.65165468  0.42938566  0.79074700  1  0  0.108418  0  0.980085  0  0  0.114808  0  1.048999  0  0  0.118009  0  1.046627  0  0  0.112144  0.112489  0  1.050683  0
H  H23  1  0.34835626  0.57061557  0.29075278  1  0  0.108373  0  0.980069  0  0  0.11475  0  1.048986  0  0  0.117946  0  1.046623  0  0  0.112103  0.112434  0  1.050695  0
H  H24  1  0.37957457  0.46434610  0.66535501  1  0  0.123716  0  0.953649  0  0  0.137023  0  1.005943  0  0  0.140289  0  1.005065  0  0  0.108024  0.134719  0  1.006657  0
H  H25  1  0.62042771  0.53565372  0.16535839  1  0  0.123735  0  0.95341  0  0  0.137034  0  1.005726  0  0  0.140299  0  1.004846  0  0  0.108006  0.13473  0  1.006438  0
H  H26  1  0.85202819  0.72053481  0.79187498  1  0  0.114673  0  0.947841  0  0  0.121063  0  1.013794  0  0  0.124775  0  1.012567  0  0  0.109262  0.118419  0  1.01481  0
H  H27  1  0.14798982  0.27946164  0.29187421  1  0  0.114713  0  0.947721  0  0  0.121078  0  1.01368  0  0  0.124791  0  1.012453  0  0  0.109275  0.118439  0  1.014699  0
H  H28  1  0.54289537  0.81423926  0.71606268  1  0  0.079259  0  0.943823  0  0  0.087991  0  1.008026  0  0  0.089936  0  1.006861  0  0  0.116096  0.086522  0  1.008967  0
H  H29  1  0.45712803  0.18576219  0.21605730  1  0  0.079232  0  0.943895  0  0  0.087982  0  1.008068  0  0  0.089926  0  1.006904  0  0  0.116112  0.086514  0  1.009008  0
H  H30  1  0.75601380  0.65521448  0.52778600  1  0  0.069811  0  0.965912  0  0  0.074838  0  1.039273  0  0  0.077284  0  1.036994  0  0  0.108155  0.07294  0  1.040988  0
H  H31  1  0.24396909  0.34478454  0.02778399  1  0  0.069755  0  0.965821  0  0  0.074843  0  1.03916  0  0  0.077282  0  1.036874  0  0  0.108178  0.072965  0  1.04084  0
H  H32  1  0.07616890  0.55562405  0.59488932  1  0  0.107951  0  0.936601  0  0  0.123051  0  0.986358  0  0  0.126193  0  0.985795  0  0  0.109491  0.120756  0  0.987008  0
H  H33  1  0.92382001  0.44437456  0.09489195  1  0  0.108037  0  0.936584  0  0  0.123113  0  0.986343  0  0  0.126269  0  0.985763  0  0  0.109559  0.120796  0  0.987018  0
C  C34  1  0.20962520  0.09432632  0.95594242  1  0  0.131903  0  3.71456  0  0  0.102775  0  3.960801  0  0  0.110111  0  3.979001  0  0  0.043356  0.098075  0  3.948396  0
C  C35  1  0.79038237  0.90567150  0.45593991  1  0  0.13199  0  3.714372  0  0  0.102853  0  3.960598  0  0  0.11019  0  3.978803  0  0  0.043413  0.098154  0  3.948188  0
C  C36  1  0.01438421  0.03415996  0.92938084  1  0  -0.152667  0  3.701447  0  0  -0.171491  0  3.946657  0  0  -0.17943  0  3.967111  0  0  -0.082235  -0.166474  0  3.933116  0
C  C37  1  0.98562389  0.96583818  0.42938016  1  0  -0.152725  0  3.701448  0  0  -0.171534  0  3.946655  0  0  -0.179473  0  3.967108  0  0  -0.082206  -0.166515  0  3.933115  0
C  C38  1  0.95612965  0.93560703  0.96197366  1  0  0.095731  0  3.770752  0  0  0.108668  0  4.002532  0  0  0.114664  0  4.022129  0  0  0.018861  0.104752  0  3.989232  0
C  C39  1  0.04388168  0.06439487  0.46197067  1  0  0.09588  0  3.770926  0  0  0.10875  0  4.002801  0  0  0.114754  0  4.022401  0  0  0.01892  0.104818  0  3.989502  0
C  C40  1  0.10208163  0.90298576  0.02123839  1  0  -0.138025  0  3.68182  0  0  -0.159961  0  3.932453  0  0  -0.167616  0  3.952474  0  0  -0.077736  -0.155088  0  3.919093  0
C  C41  1  0.89792351  0.09701546  0.52123428  1  0  -0.138277  0  3.682136  0  0  -0.16016  0  3.932801  0  0  -0.167806  0  3.952803  0  0  -0.07783  -0.155287  0  3.919453  0
C  C42  1  0.29371175  0.96794849  0.04499179  1  0  0.14055  0  3.705664  0  0  0.106165  0  3.962256  0  0  0.113987  0  3.979975  0  0  0.047618  0.101098  0  3.950188  0
C  C43  1  0.70628941  0.03205556  0.54498909  1  0  0.140719  0  3.705804  0  0  0.106333  0  3.96234  0  0  0.114162  0  3.98006  0  0  0.047643  0.101263  0  3.950271  0
C  C44  1  0.75055322  0.87099983  0.93547458  1  0  0.130282  0  3.83094  0  0  0.123668  0  4.100014  0  0  0.127134  0  4.120565  0  0  0.085147  0.121586  0  4.085729  0
C  C45  1  0.24945848  0.12899921  0.43547070  1  0  0.130403  0  3.831012  0  0  0.123699  0  4.100257  0  0  0.127148  0  4.120828  0  0  0.085157  0.121654  0  4.085923  0
C  C46  1  0.57855587  0.89515677  0.87961492  1  0  -0.226516  0  3.751367  0  0  -0.248716  0  4.016567  0  0  -0.257381  0  4.039306  0  0  -0.110957  -0.242942  0  4.000977  0
C  C47  1  0.42144760  0.10483970  0.37961274  1  0  -0.226508  0  3.751487  0  0  -0.24867  0  4.016733  0  0  -0.257329  0  4.039478  0  0  -0.110919  -0.242903  0  4.001129  0
C  C48  1  0.41479503  0.81020200  0.87949679  1  0  -0.008137  0  3.684172  0  0  -0.067265  0  3.945346  0  0  -0.061887  0  3.96239  0  0  0.014658  -0.070355  0  3.933468  0
C  C49  1  0.58522112  0.18979124  0.37949507  1  0  -0.008026  0  3.684218  0  0  -0.067208  0  3.945345  0  0  -0.061831  0  3.962392  0  0  0.014649  -0.070299  0  3.933469  0
C  C50  1  0.38144197  0.63947002  0.95351039  1  0  -0.031013  0  3.648868  0  0  -0.108882  0  3.911594  0  0  -0.105002  0  3.920857  0  0  -0.042237  -0.111358  0  3.905252  0
C  C51  1  0.61856022  0.36052937  0.45351282  1  0  -0.03104  0  3.648853  0  0  -0.10896  0  3.91154  0  0  -0.105095  0  3.920822  0  0  -0.042263  -0.111442  0  3.90521  0
C  C52  1  0.48133269  0.54414634  0.91196305  1  0  -0.034136  0  3.62517  0  0  -0.112902  0  3.88566  0  0  -0.110369  0  3.897894  0  0  -0.047673  -0.11439  0  3.877263  0
C  C53  1  0.51866485  0.45585392  0.41196646  1  0  -0.034138  0  3.625216  0  0  -0.112972  0  3.885811  0  0  -0.110434  0  3.898037  0  0  -0.047776  -0.114462  0  3.87742  0
C  C54  1  0.49623995  0.48067837  0.78070173  1  0  0.002685  0  3.668262  0  0  -0.052242  0  3.920382  0  0  -0.047295  0  3.937126  0  0  0.016124  -0.055126  0  3.908783  0
C  C55  1  0.50376179  0.51931873  0.28070680  1  0  0.002752  0  3.668252  0  0  -0.052139  0  3.920357  0  0  -0.047187  0  3.937096  0  0  0.016169  -0.055029  0  3.908762  0
C  C56  1  0.35595249  0.49987728  0.71903038  1  0  -0.230625  0  3.759333  0  0  -0.25125  0  4.020418  0  0  -0.259663  0  4.042333  0  0  -0.11288  -0.245662  0  4.005395  0
C  C57  1  0.64405431  0.50012348  0.21903560  1  0  -0.230675  0  3.759133  0  0  -0.251283  0  4.020237  0  0  -0.259692  0  4.042148  0  0  -0.112871  -0.245692  0  4.005209  0
C  C58  1  0.18091076  0.57565031  0.74172741  1  0  0.125899  0  3.844042  0  0  0.116813  0  4.115706  0  0  0.119895  0  4.136475  0  0  0.084975  0.114989  0  4.101284  0
C  C59  1  0.81908992  0.42434689  0.24173059  1  0  0.125777  0  3.843909  0  0  0.116637  0  4.115696  0  0  0.119715  0  4.136467  0  0  0.084939  0.114814  0  4.101271  0
C  C60  1  0.99176771  0.62912475  0.69996625  1  0  0.102475  0  3.774031  0  0  0.114733  0  4.005646  0  0  0.121162  0  4.025021  0  0  0.020547  0.110532  0  3.992435  0
C  C61  1  0.00824311  0.37087565  0.19996650  1  0  0.102589  0  3.774024  0  0  0.1148  0  4.00568  0  0  0.12123  0  4.025058  0  0  0.020549  0.1106  0  3.992462  0
C  C62  1  0.83621962  0.70307723  0.73360109  1  0  -0.141223  0  3.680103  0  0  -0.163485  0  3.934504  0  0  -0.171171  0  3.95426  0  0  -0.078633  -0.158678  0  3.921479  0
C  C63  1  0.16379420  0.29692298  0.23359879  1  0  -0.141256  0  3.680091  0  0  -0.163435  0  3.934475  0  0  -0.17112  0  3.954232  0  0  -0.078648  -0.158637  0  3.921461  0
C  C64  1  0.66343198  0.75526061  0.69192135  1  0  0.141361  0  3.711116  0  0  0.106912  0  3.967011  0  0  0.114805  0  3.984853  0  0  0.048791  0.101775  0  3.954936  0
C  C65  1  0.33658636  0.24474043  0.19191777  1  0  0.141298  0  3.711051  0  0  0.10679  0  3.966931  0  0  0.114683  0  3.984776  0  0  0.048722  0.101652  0  3.954858  0
C  C66  1  0.78221406  0.66613690  0.58665814  1  0  0.126827  0  3.733553  0  0  0.096078  0  3.982858  0  0  0.103603  0  4.001236  0  0  0.041847  0.091355  0  3.970338  0
C  C67  1  0.21778246  0.33386392  0.08665607  1  0  0.126954  0  3.733632  0  0  0.096114  0  3.982937  0  0  0.103648  0  4.001328  0  0  0.041802  0.091382  0  3.970413  0
C  C68  1  0.95996204  0.61081427  0.62452612  1  0  -0.160248  0  3.715539  0  0  -0.177615  0  3.958783  0  0  -0.185679  0  3.97901  0  0  -0.084968  -0.17245  0  3.945246  0
C  C69  1  0.04003178  0.38918405  0.12452483  1  0  -0.160426  0  3.715568  0  0  -0.177746  0  3.958827  0  0  -0.185825  0  3.979054  0  0  -0.084985  -0.172563  0  3.945304  0
C  C70  1  0.82874119  0.29998237  0.93406713  1  0  0.307671  0  4.097668  0  0  0.29188  0  4.390891  0  0  0.314861  0  4.405757  0  0  0.1484  0.276444  0  4.380243  0
C  C71  1  0.17125806  0.70002386  0.43408035  1  0  0.307584  0  4.097755  0  0  0.291799  0  4.390951  0  0  0.314777  0  4.405813  0  0  0.148447  0.276368  0  4.380299  0
C  C72  1  0.90330615  0.04846533  0.16979568  1  0  0.3285  0  4.097204  0  0  0.310849  0  4.391885  0  0  0.334995  0  4.405816  0  0  0.145999  0.294582  0  4.381825  0
C  C73  1  0.09662884  0.95154756  0.66979312  1  0  0.328725  0  4.096899  0  0  0.311076  0  4.391577  0  0  0.335222  0  4.405513  0  0  0.145981  0.294808  0  4.381519  0
S  S74  1  0.01057959  0.35030480  0.87350859  1  0  -0.33676  0  2.060317  0  0  -0.323304  0  2.334614  0  0  -0.337909  0  2.332083  0  0  -0.14924  -0.313183  0  2.336028  0
S  S75  1  0.98942758  0.64968995  0.37352054  1  0  -0.336899  0  2.060153  0  0  -0.323433  0  2.334436  0  0  -0.338048  0  2.331921  0  0  -0.149367  -0.313311  0  2.335851  0
S  S76  1  0.03675431  0.97613366  0.22980653  1  0  -0.367298  0  1.964444  0  0  -0.352536  0  2.208361  0  0  -0.367743  0  2.205429  0  0  -0.185918  -0.341802  0  2.210026  0
S  S77  1  0.96316160  0.02388754  0.72979236  1  0  -0.367371  0  1.964563  0  0  -0.352602  0  2.208498  0  0  -0.367806  0  2.205564  0  0  -0.185843  -0.341869  0  2.210143  0
N  N78  1  0.34734531  0.06264182  0.01315926  1  0  -0.347626  0  3.326803  0  0  -0.260419  0  3.605538  0  0  -0.279607  0  3.620568  0  0  -0.341406  -0.2475  0  3.595136  0
N  N79  1  0.65265256  0.93735768  0.51315893  1  0  -0.347714  0  3.326686  0  0  -0.260482  0  3.605419  0  0  -0.279687  0  3.62047  0  0  -0.341388  -0.24756  0  3.595013  0
N  N80  1  0.69597242  0.77583414  0.96689099  1  0  -0.314469  0  2.85899  0  0  -0.322947  0  3.120477  0  0  -0.328915  0  3.133787  0  0  -0.238414  -0.318525  0  3.111313  0
N  N81  1  0.30402769  0.22416550  0.46689003  1  0  -0.314425  0  2.859093  0  0  -0.322921  0  3.120551  0  0  -0.328887  0  3.133866  0  0  -0.238401  -0.31851  0  3.111374  0
N  N82  1  0.49248433  0.74089084  0.93210175  1  0  0.070571  0  3.603788  0  0  0.192678  0  3.786658  0  0  0.184013  0  3.811291  0  0  -0.141998  0.197969  0  3.770607  0
N  N83  1  0.50751642  0.25910818  0.43210239  1  0  0.070433  0  3.604037  0  0  0.192719  0  3.786704  0  0  0.184063  0  3.811329  0  0  -0.141953  0.19801  0  3.770656  0
N  N84  1  0.40397535  0.54278827  0.83526398  1  0  0.074938  0  3.58748  0  0  0.198467  0  3.767555  0  0  0.190821  0  3.790865  0  0  -0.137445  0.203414  0  3.751703  0
N  N85  1  0.59602731  0.45721140  0.33526727  1  0  0.074964  0  3.587559  0  0  0.198476  0  3.767634  0  0  0.190828  0  3.790942  0  0  -0.137429  0.203424  0  3.751784  0
N  N86  1  0.21169510  0.59995087  0.81331745  1  0  -0.296486  0  2.918926  0  0  -0.297891  0  3.187351  0  0  -0.305056  0  3.202858  0  0  -0.221742  -0.292767  0  3.176719  0
N  N87  1  0.78830430  0.40004842  0.31332047  1  0  -0.296329  0  2.918691  0  0  -0.297697  0  3.18713  0  0  -0.304861  0  3.202636  0  0  -0.221648  -0.292575  0  3.176499  0
N  N88  1  0.63620703  0.73762366  0.61941776  1  0  -0.34193  0  3.326416  0  0  -0.256088  0  3.60298  0  0  -0.27501  0  3.617862  0  0  -0.340243  -0.243371  0  3.59266  0
N  N89  1  0.36379455  0.26238092  0.11941045  1  0  -0.341899  0  3.326359  0  0  -0.255974  0  3.602867  0  0  -0.274896  0  3.617745  0  0  -0.340205  -0.243257  0  3.592553  0
N  N90  1  0.69538965  0.26287398  0.97930393  1  0  -0.604111  0  3.034785  0  0  -0.536614  0  3.35071  0  0  -0.559283  0  3.350127  0  0  -0.431572  -0.521251  0  3.350838  0
N  N91  1  0.30460127  0.73712990  0.47931560  1  0  -0.603966  0  3.035113  0  0  -0.536468  0  3.351019  0  0  -0.559131  0  3.350434  0  0  -0.431538  -0.521105  0  3.351143  0
N  N92  1  0.80798911  0.10226722  0.12449937  1  0  -0.610847  0  3.040159  0  0  -0.541772  0  3.361395  0  0  -0.565167  0  3.360437  0  0  -0.441612  -0.525927  0  3.361844  0
N  N93  1  0.19201071  0.89774065  0.62450607  1  0  -0.611022  0  3.039746  0  0  -0.54194  0  3.360976  0  0  -0.565338  0  3.360019  0  0  -0.441669  -0.526095  0  3.361422  0
