# generated using pymatgen
data_KH4C3S3N3O
_symmetry_space_group_name_H-M   'P 1'
_cell_length_a   7.31935379
_cell_length_b   10.21762950
_cell_length_c   11.52577239
_cell_angle_alpha   76.17168564
_cell_angle_beta   81.05522027
_cell_angle_gamma   88.30476309
_symmetry_Int_Tables_number   1
_chemical_formula_structural   KH4C3S3N3O
_chemical_formula_sum   'K4 H16 C12 S12 N12 O4'
_cell_volume   826.78368611
_cell_formula_units_Z   4
loop_
 _symmetry_equiv_pos_site_id
 _symmetry_equiv_pos_as_xyz
  1  'x, y, z'
loop_
 _atom_site_type_symbol
 _atom_site_label
 _atom_site_symmetry_multiplicity
 _atom_site_fract_x
 _atom_site_fract_y
 _atom_site_fract_z
 _atom_site_occupancy
 _atom_site_pbe_bader_spin_density
 _atom_site_pbe_cm5_charge
 _atom_site_pbe_ddec_charge
 _atom_site_pbe_ddec_spin_density
 _atom_site_pbe_ddec_sum_bond_order
 _atom_site_pbe_magmom
K  K0  1  0.27442940  0.43919284  0.45227943  1  0  0.658822  0.828701  0  0.707907  0
K  K1  1  0.72555954  0.56079495  0.54770660  1  0  0.658855  0.828701  0  0.707918  0
K  K2  1  0.28255354  0.62196466  0.09195686  1  0  0.577778  0.813547  0  0.673281  0
K  K3  1  0.71747831  0.37804247  0.90803906  1  0  0.577741  0.813543  0  0.673255  0
H  H4  1  0.99400332  0.67775138  0.30435152  1  0  0.255379  0.340445  0  1.02246  0
H  H5  1  0.00599809  0.32225461  0.69563551  1  0  0.255376  0.340495  0  1.022405  0
H  H6  1  0.93381773  0.53026734  0.29735019  1  0  0.265961  0.346323  0  1.009424  0
H  H7  1  0.06618507  0.46974169  0.70263086  1  0  0.266012  0.34641  0  1.00931  0
H  H8  1  0.42027325  0.31175613  0.21216773  1  0  0.275857  0.371609  0  0.964101  0
H  H9  1  0.57974337  0.68824994  0.78781170  1  0  0.275922  0.371706  0  0.963939  0
H  H10  1  0.58549017  0.39769876  0.22093291  1  0  0.264845  0.34886  0  1.006588  0
H  H11  1  0.41452370  0.60230830  0.77904919  1  0  0.264824  0.348821  0  1.006661  0
H  H12  1  0.68046851  0.83502382  0.13566223  1  0  0.275118  0.254203  0  1.036823  0
H  H13  1  0.31952736  0.16496397  0.86435088  1  0  0.275154  0.254291  0  1.036815  0
H  H14  1  0.99522242  0.83634636  0.81045502  1  0  0.275511  0.249834  0  1.044401  0
H  H15  1  0.00477346  0.16365353  0.18954859  1  0  0.275573  0.249981  0  1.044394  0
H  H16  1  0.15700918  0.95544523  0.60269110  1  0  0.273713  0.252207  0  1.035408  0
H  H17  1  0.84298393  0.04455364  0.39730692  1  0  0.273699  0.252207  0  1.035406  0
H  H18  1  0.47979732  0.96001279  0.27756977  1  0  0.270519  0.256722  0  1.026763  0
H  H19  1  0.52019442  0.03998607  0.72243273  1  0  0.270512  0.256731  0  1.026693  0
C  C20  1  0.72712760  0.02625189  0.01797185  1  0  0.226254  0.419099  0  4.095482  0
C  C21  1  0.27288766  0.97374505  0.98204521  1  0  0.226322  0.419299  0  4.095134  0
C  C22  1  0.91238278  0.02813953  0.83458971  1  0  0.233018  0.425443  0  4.062448  0
C  C23  1  0.08761450  0.97186236  0.16542462  1  0  0.232985  0.42547  0  4.062609  0
C  C24  1  0.83837125  0.81404649  0.97766553  1  0  0.251554  0.42479  0  4.083108  0
C  C25  1  0.16163154  0.18594537  0.02233909  1  0  0.251611  0.425039  0  4.08302  0
C  C26  1  0.42884720  0.76815858  0.39423792  1  0  0.226981  0.411729  0  4.134966  0
C  C27  1  0.57113623  0.23183823  0.60576583  1  0  0.226938  0.411713  0  4.135152  0
C  C28  1  0.24949584  0.76520033  0.57997583  1  0  0.245482  0.430576  0  4.084489  0
C  C29  1  0.75049590  0.23480257  0.42002322  1  0  0.245485  0.430543  0  4.084534  0
C  C30  1  0.31072294  0.97820195  0.43383473  1  0  0.244177  0.418285  0  4.076101  0
C  C31  1  0.68926879  0.02179791  0.56616930  1  0  0.244105  0.418204  0  4.076259  0
S  S32  1  0.28005638  0.14363120  0.38983499  1  0  -0.197817  -0.409782  0  2.236614  0
S  S33  1  0.71993812  0.85636667  0.61016311  1  0  -0.197821  -0.409803  0  2.236602  0
S  S34  1  0.85322018  0.64598393  0.01945894  1  0  -0.207079  -0.45631  0  2.133564  0
S  S35  1  0.14677846  0.35401094  0.98054112  1  0  -0.207143  -0.456407  0  2.133341  0
S  S36  1  0.55150419  0.68765371  0.29576556  1  0  -0.215409  -0.484611  0  2.325082  0
S  S37  1  0.44848061  0.31233908  0.70423370  1  0  -0.215375  -0.484565  0  2.325241  0
S  S38  1  0.60147094  0.10457820  0.11630419  1  0  -0.206865  -0.446898  0  2.316707  0
S  S39  1  0.39853740  0.89542073  0.88371140  1  0  -0.206845  -0.446893  0  2.316743  0
S  S40  1  0.03339153  0.10636589  0.70014406  1  0  -0.145784  -0.392523  0  2.320539  0
S  S41  1  0.96659606  0.89363698  0.29985974  1  0  -0.145765  -0.392563  0  2.320788  0
S  S42  1  0.14425409  0.68550927  0.71933459  1  0  -0.116322  -0.400416  0  2.330838  0
S  S43  1  0.85574041  0.31449263  0.28066699  1  0  -0.116298  -0.400468  0  2.331032  0
N  N44  1  0.81354619  0.09589399  0.90959523  1  0  -0.399043  -0.485554  0  3.313065  0
N  N45  1  0.18646491  0.90410092  0.09042441  1  0  -0.399077  -0.485616  0  3.312692  0
N  N46  1  0.74546170  0.88782611  0.05122210  1  0  -0.374999  -0.331903  0  3.612197  0
N  N47  1  0.25453695  0.11216874  0.94879445  1  0  -0.37503  -0.332217  0  3.61238  0
N  N48  1  0.91874252  0.88856409  0.86839850  1  0  -0.37503  -0.336781  0  3.601038  0
N  N49  1  0.08125614  0.11143782  0.13161049  1  0  -0.375132  -0.336966  0  3.601224  0
N  N50  1  0.23255768  0.90324032  0.54393741  1  0  -0.370172  -0.327007  0  3.591053  0
N  N51  1  0.76743958  0.09675857  0.45606280  1  0  -0.370172  -0.326964  0  3.590925  0
N  N52  1  0.34739482  0.69800116  0.50388497  1  0  -0.434873  -0.527822  0  3.374618  0
N  N53  1  0.65259831  0.30200173  0.49612088  1  0  -0.434873  -0.527813  0  3.374776  0
N  N54  1  0.41373897  0.90625804  0.36214175  1  0  -0.369028  -0.319175  0  3.587054  0
N  N55  1  0.58625552  0.09373782  0.63785764  1  0  -0.368961  -0.319169  0  3.587152  0
O  O56  1  0.02287839  0.58003436  0.32693128  1  0  -0.718596  -0.843081  0  2.081106  0
O  O57  1  0.97712718  0.41997367  0.67304883  1  0  -0.718647  -0.843239  0  2.080934  0
O  O58  1  0.45923066  0.40575678  0.19951311  1  0  -0.689951  -0.830449  0  2.052678  0
O  O59  1  0.54077766  0.59424623  0.80046172  1  0  -0.689975  -0.830532  0  2.052646  0
