# generated using pymatgen
data_SmPH10C4SO7
_symmetry_space_group_name_H-M   'P 1'
_cell_length_a   7.09279337
_cell_length_b   10.79922614
_cell_length_c   13.08555409
_cell_angle_alpha   90.00001105
_cell_angle_beta   89.99992941
_cell_angle_gamma   104.49004597
_symmetry_Int_Tables_number   1
_chemical_formula_structural   SmPH10C4SO7
_chemical_formula_sum   'Sm4 P4 H40 C16 S4 O28'
_cell_volume   970.42763966
_cell_formula_units_Z   4
loop_
 _symmetry_equiv_pos_site_id
 _symmetry_equiv_pos_as_xyz
  1  'x, y, z'
loop_
 _atom_site_type_symbol
 _atom_site_label
 _atom_site_symmetry_multiplicity
 _atom_site_fract_x
 _atom_site_fract_y
 _atom_site_fract_z
 _atom_site_occupancy
 _atom_site_hle17_bader_spin_density
 _atom_site_hle17_ddec_charge
 _atom_site_hle17_ddec_spin_density
 _atom_site_hle17_ddec_sum_bond_order
 _atom_site_hle17_magmom
 _atom_site_hse06_10hf_bader_spin_density
 _atom_site_hse06_10hf_ddec_charge
 _atom_site_hse06_10hf_ddec_spin_density
 _atom_site_hse06_10hf_ddec_sum_bond_order
 _atom_site_hse06_10hf_magmom
 _atom_site_hse06_bader_spin_density
 _atom_site_hse06_ddec_charge
 _atom_site_hse06_ddec_spin_density
 _atom_site_hse06_ddec_sum_bond_order
 _atom_site_hse06_magmom
 _atom_site_pbe_bader_spin_density
 _atom_site_pbe_cm5_charge
 _atom_site_pbe_ddec_charge
 _atom_site_pbe_ddec_spin_density
 _atom_site_pbe_ddec_sum_bond_order
 _atom_site_pbe_magmom
Sm  Sm0  1  0.24460656  0.49007872  0.42441836  1  0  2.422899  0  1.592728  0  0  2.342736  0  1.936826  0  0  2.379863  0  1.895764  0  0  1.564755  2.315613  0  1.965429  0
Sm  Sm1  1  0.25539472  0.50992212  0.92441706  1  0  2.42298  0  1.592778  0  0  2.342839  0  1.936899  0  0  2.379962  0  1.895839  0  0  1.564724  2.315695  0  1.965494  0
Sm  Sm2  1  0.75539380  0.50992116  0.57558183  1  0  2.422938  0  1.592674  0  0  2.342778  0  1.936765  0  0  2.379905  0  1.895702  0  0  1.564784  2.315655  0  1.965377  0
Sm  Sm3  1  0.74460669  0.49007679  0.07558390  1  0  2.422964  0  1.59277  0  0  2.342824  0  1.936898  0  0  2.379947  0  1.895837  0  0  1.564721  2.315685  0  1.965495  0
P  P4  1  0.28165438  0.59964597  0.15169930  1  0  1.602372  0  4.795393  0  0  1.459808  0  5.297685  0  0  1.50935  0  5.254721  0  0  0.337591  1.42512  0  5.327214  0
P  P5  1  0.21835071  0.40035587  0.65168807  1  0  1.602406  0  4.795313  0  0  1.459819  0  5.297734  0  0  1.509263  0  5.255084  0  0  0.337696  1.425163  0  5.32713  0
P  P6  1  0.71834598  0.40035390  0.84830090  1  0  1.602367  0  4.795394  0  0  1.459791  0  5.297708  0  0  1.509335  0  5.254747  0  0  0.337596  1.425102  0  5.327238  0
P  P7  1  0.78165143  0.59964496  0.34831136  1  0  1.6025  0  4.795286  0  0  1.459941  0  5.297636  0  0  1.509396  0  5.25496  0  0  0.337732  1.425267  0  5.327097  0
H  H8  1  0.27118941  0.27861869  0.29167959  1  0  0.439182  0  0.858676  0  0  0.409088  0  0.921044  0  0  0.419272  0  0.906012  0  0  0.30314  0.401964  0  0.931529  0
H  H9  1  0.22881041  0.72138121  0.79167987  1  0  0.439239  0  0.858596  0  0  0.409132  0  0.920989  0  0  0.419319  0  0.905951  0  0  0.303155  0.402003  0  0.931483  0
H  H10  1  0.72881096  0.72138118  0.70831984  1  0  0.439196  0  0.858655  0  0  0.409104  0  0.921018  0  0  0.419287  0  0.905988  0  0  0.303157  0.40198  0  0.931503  0
H  H11  1  0.77118959  0.27861771  0.20832033  1  0  0.439249  0  0.858582  0  0  0.409141  0  0.920976  0  0  0.41933  0  0.905936  0  0  0.303162  0.402014  0  0.931468  0
H  H12  1  0.47418487  0.29470485  0.34466773  1  0  0.442696  0  0.856662  0  0  0.411573  0  0.919864  0  0  0.421698  0  0.904992  0  0  0.305618  0.40449  0  0.930238  0
H  H13  1  0.02581518  0.70529600  0.84466814  1  0  0.442672  0  0.856693  0  0  0.411565  0  0.919865  0  0  0.421687  0  0.904998  0  0  0.305614  0.404479  0  0.930244  0
H  H14  1  0.52581690  0.70529502  0.65533170  1  0  0.442705  0  0.856652  0  0  0.411585  0  0.919847  0  0  0.42171  0  0.904976  0  0  0.305629  0.404502  0  0.930221  0
H  H15  1  0.97418518  0.29470387  0.15533206  1  0  0.44267  0  0.856696  0  0  0.411562  0  0.919869  0  0  0.421685  0  0.905002  0  0  0.305614  0.404479  0  0.930244  0
H  H16  1  0.32087127  0.78920798  0.25197935  1  0  0.11565  0  0.946748  0  0  0.130513  0  1.004005  0  0  0.132765  0  1.003549  0  0  0.104572  0.128867  0  1.004438  0
H  H17  1  0.17912758  0.21079288  0.75198263  1  0  0.115683  0  0.946665  0  0  0.130508  0  1.00396  0  0  0.132762  0  1.003504  0  0  0.104593  0.128867  0  1.004378  0
H  H18  1  0.67912627  0.21079189  0.74802008  1  0  0.115676  0  0.94671  0  0  0.130544  0  1.00396  0  0  0.132799  0  1.003503  0  0  0.104594  0.1289  0  1.004392  0
H  H19  1  0.82086996  0.78920699  0.24801909  1  0  0.115659  0  0.946708  0  0  0.130529  0  1.003956  0  0  0.132787  0  1.003494  0  0  0.104585  0.128886  0  1.004371  0
H  H20  1  0.52356923  0.79694826  0.17191619  1  0  0.115226  0  0.946782  0  0  0.131293  0  1.00327  0  0  0.133063  0  1.003474  0  0  0.10299  0.129974  0  1.003262  0
H  H21  1  0.97643323  0.20305541  0.67191698  1  0  0.115221  0  0.946728  0  0  0.13127  0  1.003242  0  0  0.133045  0  1.003433  0  0  0.102973  0.129945  0  1.003242  0
H  H22  1  0.47643009  0.20305257  0.82808401  1  0  0.115224  0  0.946784  0  0  0.131294  0  1.003265  0  0  0.133062  0  1.003475  0  0  0.102995  0.129973  0  1.003262  0
H  H23  1  0.02356646  0.79694637  0.32808322  1  0  0.115243  0  0.946722  0  0  0.131301  0  1.003227  0  0  0.133074  0  1.003425  0  0  0.102999  0.129978  0  1.003224  0
H  H24  1  0.32630873  0.83778053  0.01974922  1  0  0.072279  0  0.94732  0  0  0.089574  0  1.011854  0  0  0.090696  0  1.011917  0  0  0.096004  0.088655  0  1.011934  0
H  H25  1  0.17369244  0.16222133  0.51975173  1  0  0.072338  0  0.947288  0  0  0.089596  0  1.011863  0  0  0.090717  0  1.011923  0  0  0.096012  0.088675  0  1.011953  0
H  H26  1  0.67369127  0.16221839  0.98025022  1  0  0.072296  0  0.947321  0  0  0.089594  0  1.011855  0  0  0.090716  0  1.011919  0  0  0.096007  0.088675  0  1.011934  0
H  H27  1  0.82630652  0.83777854  0.48024999  1  0  0.07231  0  0.947302  0  0  0.089599  0  1.011833  0  0  0.090721  0  1.011892  0  0  0.096007  0.088679  0  1.011924  0
H  H28  1  0.12198275  0.82103738  0.09753506  1  0  0.078684  0  0.935427  0  0  0.098388  0  0.992596  0  0  0.099284  0  0.993317  0  0  0.097059  0.097663  0  0.992208  0
H  H29  1  0.37801787  0.17896351  0.59753668  1  0  0.078699  0  0.935463  0  0  0.098411  0  0.992603  0  0  0.099307  0  0.993322  0  0  0.097088  0.097689  0  0.992214  0
H  H30  1  0.87801620  0.17896249  0.90246437  1  0  0.078682  0  0.935394  0  0  0.098398  0  0.992543  0  0  0.099295  0  0.993264  0  0  0.097059  0.097673  0  0.992155  0
H  H31  1  0.62198145  0.82103732  0.40246505  1  0  0.078711  0  0.935441  0  0  0.098406  0  0.992604  0  0  0.099302  0  0.993322  0  0  0.09708  0.097683  0  0.99221  0
H  H32  1  0.28344819  0.01168992  0.20071972  1  0  0.074816  0  0.92045  0  0  0.09458  0  0.976165  0  0  0.095947  0  0.97587  0  0  0.093974  0.093559  0  0.976437  0
H  H33  1  0.21655183  0.98831000  0.70072081  1  0  0.074811  0  0.920409  0  0  0.094564  0  0.976137  0  0  0.09593  0  0.975843  0  0  0.093978  0.093546  0  0.9764  0
H  H34  1  0.71655217  0.98830996  0.79927971  1  0  0.074805  0  0.920457  0  0  0.094559  0  0.976176  0  0  0.095927  0  0.975881  0  0  0.093967  0.093543  0  0.97645  0
H  H35  1  0.78344676  0.01168891  0.29928015  1  0  0.074852  0  0.920396  0  0  0.094603  0  0.976124  0  0  0.095971  0  0.975829  0  0  0.093988  0.093586  0  0.976382  0
H  H36  1  0.50083305  0.03214114  0.13040853  1  0  0.072012  0  0.930141  0  0  0.091121  0  0.988976  0  0  0.092201  0  0.988858  0  0  0.09288  0.090201  0  0.989283  0
H  H37  1  0.99916560  0.96785966  0.63041019  1  0  0.072034  0  0.930073  0  0  0.091122  0  0.988939  0  0  0.092203  0  0.988818  0  0  0.092887  0.090207  0  0.989244  0
H  H38  1  0.49916591  0.96785873  0.86959014  1  0  0.072032  0  0.930091  0  0  0.091127  0  0.988944  0  0  0.092207  0  0.988824  0  0  0.092885  0.090212  0  0.989249  0
H  H39  1  0.00083299  0.03213925  0.36959077  1  0  0.072038  0  0.930128  0  0  0.091149  0  0.988958  0  0  0.092229  0  0.988839  0  0  0.092904  0.090231  0  0.98926  0
H  H40  1  0.10621300  0.03204895  0.03373564  1  0  0.11324  0  0.961162  0  0  0.130382  0  1.012731  0  0  0.1326  0  1.012111  0  0  0.108464  0.128774  0  1.013311  0
H  H41  1  0.39378637  0.96795195  0.53373508  1  0  0.113222  0  0.961208  0  0  0.130353  0  1.01278  0  0  0.132572  0  1.01216  0  0  0.108483  0.128752  0  1.01336  0
H  H42  1  0.89378596  0.96795092  0.96626456  1  0  0.113244  0  0.961206  0  0  0.130376  0  1.012773  0  0  0.132593  0  1.012153  0  0  0.108471  0.128774  0  1.013354  0
H  H43  1  0.60621154  0.03204888  0.46626511  1  0  0.113207  0  0.961191  0  0  0.130342  0  1.01277  0  0  0.132558  0  1.01215  0  0  0.10846  0.128751  0  1.013351  0
H  H44  1  0.33593035  0.07609747  0.97122816  1  0  0.121556  0  0.940193  0  0  0.136559  0  0.997763  0  0  0.138397  0  0.997903  0  0  0.111855  0.135218  0  0.997815  0
H  H45  1  0.16406837  0.92390432  0.47122882  1  0  0.121579  0  0.94018  0  0  0.136565  0  0.997751  0  0  0.138403  0  0.997893  0  0  0.111867  0.135227  0  0.997802  0
H  H46  1  0.66406897  0.92390336  0.02877127  1  0  0.121598  0  0.940174  0  0  0.136603  0  0.997737  0  0  0.138438  0  0.997879  0  0  0.111877  0.135266  0  0.997785  0
H  H47  1  0.83593095  0.07609651  0.52877214  1  0  0.121583  0  0.940135  0  0  0.136589  0  0.997701  0  0  0.138423  0  0.997843  0  0  0.11188  0.135259  0  0.997757  0
C  C48  1  0.36311380  0.77210165  0.17325894  1  0  -0.432883  0  3.653339  0  0  -0.450044  0  3.901394  0  0  -0.45918  0  3.91052  0  0  -0.161841  -0.443766  0  3.8953  0
C  C49  1  0.13688983  0.22790019  0.67326149  1  0  -0.432887  0  3.653233  0  0  -0.449991  0  3.901271  0  0  -0.459119  0  3.91041  0  0  -0.161885  -0.443717  0  3.895153  0
C  C50  1  0.63688656  0.22789823  0.82674049  1  0  -0.43292  0  3.653355  0  0  -0.450059  0  3.901383  0  0  -0.459204  0  3.910518  0  0  -0.161875  -0.443781  0  3.895291  0
C  C51  1  0.86310912  0.77209968  0.32673871  1  0  -0.432868  0  3.653252  0  0  -0.45003  0  3.901304  0  0  -0.459164  0  3.910445  0  0  -0.16186  -0.443743  0  3.895178  0
C  C52  1  0.28178848  0.85378617  0.09820827  1  0  -0.067339  0  3.693097  0  0  -0.108602  0  3.953002  0  0  -0.109341  0  3.968572  0  0  -0.161508  -0.107746  0  3.942003  0
C  C53  1  0.21821215  0.14621472  0.59820999  1  0  -0.067435  0  3.693214  0  0  -0.108667  0  3.953078  0  0  -0.109391  0  3.968625  0  0  -0.161518  -0.107809  0  3.942086  0
C  C54  1  0.71821011  0.14621274  0.90179116  1  0  -0.067337  0  3.693092  0  0  -0.108621  0  3.953  0  0  -0.109357  0  3.968569  0  0  -0.161495  -0.107764  0  3.941999  0
C  C55  1  0.78178717  0.85378611  0.40179097  1  0  -0.067425  0  3.693157  0  0  -0.10867  0  3.953056  0  0  -0.109394  0  3.968606  0  0  -0.161521  -0.107808  0  3.942055  0
C  C56  1  0.34159696  0.99621694  0.12503861  1  0  -0.076966  0  3.679825  0  0  -0.120762  0  3.94681  0  0  -0.120962  0  3.960614  0  0  -0.16268  -0.120249  0  3.936982  0
C  C57  1  0.15840360  0.00378394  0.62504035  1  0  -0.076933  0  3.679706  0  0  -0.120716  0  3.946656  0  0  -0.120915  0  3.960457  0  0  -0.162674  -0.120196  0  3.936818  0
C  C58  1  0.65840340  0.00378293  0.87496082  1  0  -0.076976  0  3.679836  0  0  -0.120752  0  3.946794  0  0  -0.120951  0  3.960594  0  0  -0.16269  -0.12024  0  3.936977  0
C  C59  1  0.84159535  0.99621593  0.37496138  1  0  -0.077006  0  3.679812  0  0  -0.120801  0  3.946771  0  0  -0.121004  0  3.960568  0  0  -0.1627  -0.120276  0  3.936936  0
C  C60  1  0.26247016  0.07285126  0.04532777  1  0  -0.30128  0  3.631834  0  0  -0.3399  0  3.894647  0  0  -0.345547  0  3.902944  0  0  -0.149509  -0.336054  0  3.889214  0
C  C61  1  0.23752955  0.92715059  0.54532883  1  0  -0.301293  0  3.631905  0  0  -0.339849  0  3.894633  0  0  -0.345505  0  3.902945  0  0  -0.149506  -0.336011  0  3.88921  0
C  C62  1  0.73752916  0.92714957  0.95467167  1  0  -0.301353  0  3.631966  0  0  -0.339939  0  3.89471  0  0  -0.345592  0  3.903021  0  0  -0.14952  -0.336108  0  3.889297  0
C  C63  1  0.76247118  0.07285024  0.45467213  1  0  -0.301268  0  3.631865  0  0  -0.339856  0  3.894618  0  0  -0.345508  0  3.902931  0  0  -0.149498  -0.336045  0  3.889231  0
S  S64  1  0.27920315  0.23382789  0.08176108  1  0  1.415843  0  5.494205  0  0  1.318287  0  6.020421  0  0  1.364819  0  5.99632  0  0  0.553443  1.286079  0  6.036647  0
S  S65  1  0.22081620  0.76617396  0.58175602  1  0  1.415907  0  5.49449  0  0  1.318341  0  6.020704  0  0  1.364875  0  5.996599  0  0  0.553493  1.286134  0  6.036909  0
S  S66  1  0.72079899  0.76617294  0.91823912  1  0  1.415817  0  5.494369  0  0  1.318252  0  6.020578  0  0  1.364784  0  5.996476  0  0  0.553428  1.28604  0  6.036817  0
S  S67  1  0.77918557  0.23382591  0.41824265  1  0  1.415955  0  5.494493  0  0  1.318409  0  6.020682  0  0  1.364942  0  5.996575  0  0  0.553544  1.286203  0  6.036911  0
O  O68  1  0.24586358  0.53858080  0.25655387  1  0  -0.962443  0  1.967494  0  0  -0.900654  0  2.249099  0  0  -0.924177  0  2.225054  0  0  -0.487478  -0.88404  0  2.265235  0
O  O69  1  0.25414946  0.46142772  0.75656096  1  0  -0.962663  0  1.967151  0  0  -0.900884  0  2.248757  0  0  -0.924401  0  2.224757  0  0  -0.487709  -0.88427  0  2.264864  0
O  O70  1  0.75413715  0.46142003  0.74344633  1  0  -0.962425  0  1.96746  0  0  -0.900652  0  2.249089  0  0  -0.924177  0  2.225046  0  0  -0.487487  -0.884038  0  2.26522  0
O  O71  1  0.74585868  0.53857406  0.24343924  1  0  -0.96267  0  1.967127  0  0  -0.900895  0  2.248742  0  0  -0.924412  0  2.224738  0  0  -0.487717  -0.884278  0  2.264868  0
O  O72  1  0.09802401  0.57130152  0.08170997  1  0  -1.054877  0  1.988826  0  0  -0.990759  0  2.267043  0  0  -1.014709  0  2.244903  0  0  -0.498742  -0.973743  0  2.282072  0
O  O73  1  0.40197488  0.42869842  0.58171161  1  0  -1.054841  0  1.989074  0  0  -0.990736  0  2.267312  0  0  -1.014673  0  2.245205  0  0  -0.49873  -0.97372  0  2.282323  0
O  O74  1  0.90197740  0.42869740  0.91828947  1  0  -1.054894  0  1.988829  0  0  -0.990784  0  2.267052  0  0  -1.014736  0  2.244911  0  0  -0.498732  -0.973767  0  2.282074  0
O  O75  1  0.59802794  0.57130050  0.41828706  1  0  -1.054884  0  1.989156  0  0  -0.990774  0  2.267377  0  0  -1.014713  0  2.245268  0  0  -0.49872  -0.97375  0  2.282394  0
O  O76  1  0.43652116  0.55537282  0.08703634  1  0  -1.084434  0  2.082699  0  0  -1.024562  0  2.365721  0  0  -1.04842  0  2.343864  0  0  -0.507385  -1.00725  0  2.379763  0
O  O77  1  0.06348440  0.44462616  0.58704050  1  0  -1.084417  0  2.083073  0  0  -1.024476  0  2.365937  0  0  -1.04831  0  2.344088  0  0  -0.507342  -1.00716  0  2.379961  0
O  O78  1  0.56348239  0.44462801  0.91296386  1  0  -1.084446  0  2.082758  0  0  -1.024548  0  2.365724  0  0  -1.048392  0  2.343843  0  0  -0.507392  -1.007227  0  2.379748  0
O  O79  1  0.93651633  0.55537467  0.41296046  1  0  -1.084463  0  2.083032  0  0  -1.024525  0  2.365887  0  0  -1.048364  0  2.344043  0  0  -0.507374  -1.007215  0  2.379948  0
O  O80  1  0.16129333  0.22560481  0.17564709  1  0  -0.6758  0  1.982321  0  0  -0.605521  0  2.209839  0  0  -0.628022  0  2.195624  0  0  -0.31353  -0.58987  0  2.219231  0
O  O81  1  0.33870398  0.77439894  0.67564883  1  0  -0.675799  0  1.982293  0  0  -0.605524  0  2.209837  0  0  -0.628018  0  2.195608  0  0  -0.31351  -0.589861  0  2.219226  0
O  O82  1  0.83870562  0.77439507  0.82435310  1  0  -0.675797  0  1.982371  0  0  -0.605523  0  2.209893  0  0  -0.628023  0  2.195681  0  0  -0.313537  -0.58987  0  2.219291  0
O  O83  1  0.66129816  0.22560189  0.32435213  1  0  -0.675816  0  1.982405  0  0  -0.605538  0  2.209947  0  0  -0.628033  0  2.195718  0  0  -0.313505  -0.589876  0  2.219344  0
O  O84  1  0.48579383  0.29305795  0.10058024  1  0  -0.740304  0  2.060234  0  0  -0.688646  0  2.336538  0  0  -0.709243  0  2.320808  0  0  -0.382556  -0.674317  0  2.347238  0
O  O85  1  0.01419510  0.70693816  0.60057989  1  0  -0.740461  0  2.059721  0  0  -0.688768  0  2.335959  0  0  -0.709358  0  2.320218  0  0  -0.382677  -0.674448  0  2.346688  0
O  O86  1  0.51420513  0.70694193  0.89941996  1  0  -0.740286  0  2.060198  0  0  -0.688622  0  2.336488  0  0  -0.70922  0  2.32076  0  0  -0.382553  -0.674297  0  2.347205  0
O  O87  1  0.98580631  0.29306075  0.39941954  1  0  -0.740469  0  2.059672  0  0  -0.688785  0  2.335916  0  0  -0.709378  0  2.320179  0  0  -0.382688  -0.674453  0  2.346637  0
O  O88  1  0.19458803  0.29125816  0.99613737  1  0  -0.763798  0  1.987739  0  0  -0.722727  0  2.266182  0  0  -0.741711  0  2.248625  0  0  -0.386192  -0.709529  0  2.277737  0
O  O89  1  0.30541276  0.70874554  0.49614249  1  0  -0.763668  0  1.988459  0  0  -0.722653  0  2.266976  0  0  -0.741637  0  2.249419  0  0  -0.386118  -0.709446  0  2.278523  0
O  O90  1  0.80541233  0.70874171  0.00386206  1  0  -0.763759  0  1.987808  0  0  -0.722699  0  2.266273  0  0  -0.741683  0  2.248719  0  0  -0.386179  -0.709496  0  2.277823  0
O  O91  1  0.69458974  0.29125624  0.50385771  1  0  -0.763704  0  1.988419  0  0  -0.7227  0  2.266944  0  0  -0.741683  0  2.249388  0  0  -0.386164  -0.709486  0  2.278494  0
O  O92  1  0.34425949  0.31069887  0.35472161  1  0  -0.926343  0  1.870868  0  0  -0.891759  0  2.074628  0  0  -0.908665  0  2.042315  0  0  -0.660917  -0.879674  0  2.096871  0
O  O93  1  0.15573349  0.68930198  0.85472575  1  0  -0.926384  0  1.870812  0  0  -0.891811  0  2.07458  0  0  -0.908719  0  2.04227  0  0  -0.660939  -0.87973  0  2.09683  0
O  O94  1  0.65574124  0.68930195  0.64527782  1  0  -0.926369  0  1.870869  0  0  -0.891776  0  2.074603  0  0  -0.908682  0  2.042291  0  0  -0.660931  -0.879689  0  2.096847  0
O  O95  1  0.84426688  0.31069790  0.14527368  1  0  -0.926384  0  1.870786  0  0  -0.891822  0  2.074577  0  0  -0.90873  0  2.042265  0  0  -0.660945  -0.879743  0  2.096826  0
