# generated using pymatgen
data_Zn4H23C34N2ClO13
_symmetry_space_group_name_H-M   'P 1'
_cell_length_a   13.00523255
_cell_length_b   13.24058719
_cell_length_c   18.12628760
_cell_angle_alpha   68.91889492
_cell_angle_beta   71.80939442
_cell_angle_gamma   88.79834154
_symmetry_Int_Tables_number   1
_chemical_formula_structural   Zn4H23C34N2ClO13
_chemical_formula_sum   'Zn4 H23 C34 N2 Cl1 O13'
_cell_volume   2752.11798194
_cell_formula_units_Z   1
loop_
 _symmetry_equiv_pos_site_id
 _symmetry_equiv_pos_as_xyz
  1  'x, y, z'
loop_
 _atom_site_type_symbol
 _atom_site_label
 _atom_site_symmetry_multiplicity
 _atom_site_fract_x
 _atom_site_fract_y
 _atom_site_fract_z
 _atom_site_occupancy
 _atom_site_pbe_bader_charge
 _atom_site_pbe_bader_spin_density
 _atom_site_pbe_cm5_charge
 _atom_site_pbe_ddec_charge
 _atom_site_pbe_ddec_spin_density
 _atom_site_pbe_ddec_sum_bond_order
 _atom_site_pbe_magmom
Zn  Zn0  1  0.43209262  0.43253143  0.43892936  1  1.316855  0  0.670848  0.964207  0  2.377491  0
Zn  Zn1  1  0.56514368  0.38539564  0.56809817  1  1.318741  0  0.673901  0.972953  0  2.35151  0
Zn  Zn2  1  0.39846041  0.55423638  0.57306598  1  1.326037  0  0.667304  0.953951  0  2.373047  0
Zn  Zn3  1  0.59789057  0.62112561  0.40583349  1  1.316374  0  0.67774  0.969204  0  2.367294  0
H  H4  1  0.72522150  0.73021317  0.87427530  1  0.050191  0  0.099832  0.102705  0  0.994454  0
H  H5  1  0.41709806  0.23870457  0.83325617  1  0.059804  0  0.10464  0.112949  0  0.994126  0
H  H6  1  0.37021148  0.23508079  0.10591850  1  0.061005  0  0.101886  0.103206  0  0.993405  0
H  H7  1  0.77295549  0.75496668  0.98717587  1  0.003813  0  0.098523  0.103685  0  1.012864  0
H  H8  1  0.49005673  0.46203007  0.19976868  1  0.112119  0  0.104464  0.110125  0  1.023675  0
H  H9  1  0.61778406  0.63222023  0.82685734  1  0.119996  0  0.102338  0.103628  0  1.030249  0
H  H10  1  0.43475581  0.35767094  0.15992367  1  0.076671  0  0.102979  0.10558  0  1.006795  0
H  H11  1  0.46443871  0.60769033  0.73193761  1  0.476927  0  0.296091  0.254938  0  1.006123  0
H  H12  1  0.45750028  0.76142996  0.77596206  1  0.049792  0  0.10054  0.10544  0  0.982468  0
H  H13  1  0.42901915  0.66926951  0.88047193  1  0.072297  0  0.102719  0.112535  0  1.030416  0
H  H14  1  0.33226469  0.67475138  0.82831811  1  0.019974  0  0.095171  0.09669  0  0.983618  0
H  H15  1  0.37160170  0.18561038  0.98797293  1  0.075565  0  0.09826  0.104055  0  1.005406  0
H  H16  1  0.81369314  0.78273636  0.08619072  1  0.407268  0  0.305637  0.242291  0  0.941107  0
H  H17  1  0.90318079  0.64054180  0.16149840  1  0.014401  0  0.085036  0.081727  0  1.001158  0
H  H18  1  0.77987313  0.59878710  0.24732445  1  0.063494  0  0.099268  0.112226  0  1.032527  0
H  H19  1  0.85094889  0.72560130  0.21948056  1  0.056768  0  0.097489  0.110076  0  0.987623  0
H  H20  1  0.88642411  0.44334250  0.57033068  1  0.108685  0  0.118882  0.134185  0  0.96963  0
H  H21  1  0.11422445  0.49961143  0.43093093  1  0.122317  0  0.105386  0.105385  0  1.005441  0
H  H22  1  0.05074589  0.44798916  0.62081748  1  0.095227  0  0.113359  0.133489  0  0.975963  0
H  H23  1  0.44495272  0.10975267  0.43741018  1  0.098779  0  0.113726  0.113801  0  0.970339  0
H  H24  1  0.42797024  0.87962491  0.57534137  1  0.082459  0  0.110221  0.107357  0  0.976822  0
H  H25  1  0.47418603  0.03985795  0.61090832  1  0.091616  0  0.111033  0.129116  0  0.983177  0
H  H26  1  0.48945835  0.95516323  0.38342381  1  0.107459  0  0.116368  0.136691  0  0.972537  0
C  C27  1  0.77840643  0.51530335  0.46335570  1  1.603799  0  0.222827  0.594838  0  4.196756  0
C  C28  1  0.44776245  0.38412443  0.09314655  1  -0.056059  0  -0.093558  -0.130485  0  4.032275  0
C  C29  1  0.41073327  0.31579842  0.06333911  1  -0.039216  0  -0.092833  -0.135206  0  4.02559  0
C  C30  1  0.22012069  0.47426297  0.53840950  1  1.50734  0  0.218814  0.644001  0  4.170113  0
C  C31  1  0.42577831  0.34611648  0.97659164  1  -0.048548  0  -0.009425  0.095554  0  4.047207  0
C  C32  1  0.47005469  0.45471290  0.92124206  1  0.000803  0  -0.009586  -0.066203  0  3.879211  0
C  C33  1  0.40259703  0.26881262  0.94493707  1  0.013219  0  -0.11356  -0.183137  0  4.060517  0
C  C34  1  0.42541186  0.29821237  0.86026728  1  -0.025509  0  -0.095127  -0.083153  0  4.063813  0
C  C35  1  0.46405593  0.49024669  0.83746691  1  0.41364  0  0.117516  0.198209  0  3.963525  0
C  C36  1  0.10118815  0.46311310  0.55646426  1  -0.034869  0  -0.085298  -0.223263  0  3.859319  0
C  C37  1  0.05822666  0.47995957  0.49448684  1  0.001988  0  -0.074782  -0.011777  0  4.01481  0
C  C38  1  0.69785607  0.66454179  0.11861283  1  0.43667  0  0.101672  0.227189  0  4.045806  0
C  C39  1  0.89928723  0.51672408  0.44482333  1  0.111697  0  0.011893  0.001541  0  3.958965  0
C  C40  1  0.94384314  0.47731905  0.50672193  1  -0.037994  0  -0.08292  -0.117776  0  3.999253  0
C  C41  1  0.46642569  0.89996999  0.44874716  1  -0.13854  0  -0.085206  -0.225567  0  3.877725  0
C  C42  1  0.47866788  0.21118457  0.53235438  1  1.557373  0  0.219625  0.646487  0  4.182028  0
C  C43  1  0.44438167  0.93803961  0.51126529  1  0.049694  0  -0.072386  -0.032123  0  4.014966  0
C  C44  1  0.46375464  0.09281685  0.55220550  1  -0.044391  0  -0.088491  -0.230451  0  3.888945  0
C  C45  1  0.44877372  0.05241318  0.49730895  1  -0.021127  0  -0.070541  -0.028096  0  4.009752  0
C  C46  1  0.47519932  0.78304612  0.46419896  1  1.540076  0  0.222032  0.647988  0  4.17971  0
C  C47  1  0.46389873  0.43343214  0.71736740  1  1.457934  0  0.219905  0.610381  0  4.149099  0
C  C48  1  0.57169983  0.56097344  0.27011198  1  1.489298  0  0.220629  0.604374  0  4.166256  0
C  C49  1  0.55328077  0.52426781  0.15120756  1  -0.050138  0  -0.078988  -0.11389  0  3.954617  0
C  C50  1  0.61176938  0.58173984  0.17906562  1  -0.023496  0  -0.029831  -0.14222  0  3.928653  0
C  C51  1  0.45257554  0.40878997  0.80583381  1  0.002265  0  -0.041479  -0.176344  0  3.987375  0
C  C52  1  0.70949108  0.69104973  0.03428922  1  -0.002267  0  -0.111011  -0.270197  0  3.988916  0
C  C53  1  0.41997911  0.67964819  0.82027129  1  0.277207  0  -0.137072  -0.216461  0  3.974205  0
C  C54  1  0.82840421  0.66874684  0.19417230  1  0.30005  0  -0.148158  -0.220099  0  3.999857  0
C  C55  1  0.56891973  0.54696911  0.06628392  1  0.023615  0  -0.015999  0.007791  0  3.977606  0
C  C56  1  0.64690793  0.63654122  0.00673053  1  -0.013569  0  -0.008932  0.103377  0  4.066127  0
C  C57  1  0.51125071  0.48457450  0.03739104  1  -0.026638  0  -0.005702  0.034305  0  3.96653  0
C  C58  1  0.52435814  0.51903580  0.95075943  1  0.012377  0  -0.008265  0.032147  0  3.960847  0
C  C59  1  0.60300034  0.60970675  0.89355192  1  -0.087963  0  -0.093744  -0.127401  0  4.032259  0
C  C60  1  0.66294020  0.66444869  0.91994617  1  -0.075376  0  -0.097103  -0.144231  0  4.024615  0
N  N61  1  0.47346814  0.59901029  0.78791606  1  -1.191914  0  -0.448062  -0.298248  0  3.544158  0
N  N62  1  0.76661225  0.72163629  0.13840296  1  -1.143379  0  -0.449155  -0.28797  0  3.527924  0
Cl  Cl63  1  0.97728686  0.57754684  0.34112864  1  -0.183366  0  0.013273  -0.040953  0  1.518932  0
O  O64  1  0.50115440  0.49741415  0.49598433  1  -1.236796  0  -0.576392  -1.033942  0  2.547685  0
O  O65  1  0.49554338  0.35964048  0.68766885  1  -1.169771  0  -0.318657  -0.550024  0  2.317453  0
O  O66  1  0.60272244  0.63063144  0.29460207  1  -1.169094  0  -0.312789  -0.539884  0  2.391021  0
O  O67  1  0.44138063  0.52720381  0.67362133  1  -1.174432  0  -0.321823  -0.564125  0  2.341792  0
O  O68  1  0.50457393  0.47589634  0.31855980  1  -1.170109  0  -0.325192  -0.557523  0  2.335381  0
O  O69  1  0.43457920  0.27331661  0.48119030  1  -1.176397  0  -0.318114  -0.553174  0  2.314373  0
O  O70  1  0.55060266  0.76190268  0.40834553  1  -1.156863  0  -0.317599  -0.546647  0  2.288938  0
O  O71  1  0.72132414  0.43880516  0.53000358  1  -1.166581  0  -0.311582  -0.536153  0  2.313161  0
O  O72  1  0.25213699  0.49067716  0.59381521  1  -1.156137  0  -0.322644  -0.551935  0  2.266176  0
O  O73  1  0.74553493  0.59053585  0.41157021  1  -1.164047  0  -0.310096  -0.536318  0  2.362059  0
O  O74  1  0.28071180  0.46868084  0.46952890  1  -1.176846  0  -0.320673  -0.554774  0  2.305486  0
O  O75  1  0.53643191  0.24038082  0.56841502  1  -1.159335  0  -0.321129  -0.550765  0  2.282907  0
O  O76  1  0.40930840  0.71428401  0.53136435  1  -1.182916  0  -0.317919  -0.54986  0  2.305703  0
