# generated using pymatgen
data_Zn6H29C42ClO25
_symmetry_space_group_name_H-M   'P 1'
_cell_length_a   18.74714166
_cell_length_b   18.75607524
_cell_length_c   18.99073177
_cell_angle_alpha   109.50300402
_cell_angle_beta   109.04162879
_cell_angle_gamma   109.51797742
_symmetry_Int_Tables_number   1
_chemical_formula_structural   Zn6H29C42ClO25
_chemical_formula_sum   'Zn6 H29 C42 Cl1 O25'
_cell_volume   5162.46297648
_cell_formula_units_Z   1
loop_
 _symmetry_equiv_pos_site_id
 _symmetry_equiv_pos_as_xyz
  1  'x, y, z'
loop_
 _atom_site_type_symbol
 _atom_site_label
 _atom_site_symmetry_multiplicity
 _atom_site_fract_x
 _atom_site_fract_y
 _atom_site_fract_z
 _atom_site_occupancy
 _atom_site_pbe_bader_charge
 _atom_site_pbe_bader_spin_density
 _atom_site_pbe_cm5_charge
 _atom_site_pbe_ddec_charge
 _atom_site_pbe_ddec_spin_density
 _atom_site_pbe_ddec_sum_bond_order
 _atom_site_pbe_magmom
Zn  Zn0  1  0.44457956  0.50378175  0.44143362  1  1.305102  0  0.713784  0.945332  0  2.173414  0
Zn  Zn1  1  0.55431876  0.49274603  0.56513130  1  1.303833  0  0.715063  0.947604  0  2.148596  0
Zn  Zn2  1  0.00009720  0.94274142  0.43906559  1  1.303355  0  0.712324  0.944473  0  2.157022  0
Zn  Zn3  1  0.00509225  0.06710665  0.56650230  1  1.305089  0  0.713714  0.944677  0  2.169043  0
Zn  Zn4  1  0.44912540  0.94983976  0.00527470  1  1.300889  0  0.712514  0.944143  0  2.155758  0
Zn  Zn5  1  0.56709337  0.07842087  0.00377256  1  1.307522  0  0.713885  0.947264  0  2.17459  0
H  H6  1  0.30683105  0.15184075  0.55394426  1  0.085999  0  0.108678  0.109048  0  0.974226  0
H  H7  1  0.40426008  0.18421372  0.88593224  1  0.105176  0  0.109059  0.105326  0  0.998094  0
H  H8  1  0.35224631  0.33059068  0.63555803  1  0.095026  0  0.103263  0.092539  0  0.983689  0
H  H9  1  0.28165180  0.98638088  0.79673612  1  0.100763  0  0.112974  0.13076  0  0.980221  0
H  H10  1  0.25759423  0.17388647  0.80659453  1  0.092691  0  0.113066  0.111817  0  0.972989  0
H  H11  1  0.22783330  0.00205573  0.67396545  1  0.080044  0  0.111157  0.130423  0  0.984424  0
H  H12  1  0.64919590  0.92668262  0.16267399  1  0.094207  0  0.112842  0.113894  0  0.974153  0
H  H13  1  0.78555336  0.11486811  0.22926262  1  0.108758  0  0.112547  0.133282  0  0.983101  0
H  H14  1  0.78012327  0.92452994  0.25379999  1  0.105613  0  0.112698  0.112955  0  0.973073  0
H  H15  1  0.82126687  0.10403996  0.38337871  1  0.103638  0  0.112583  0.13428  0  0.98062  0
H  H16  1  0.17291458  0.27848605  0.54102551  1  0.06485  0  0.102384  0.095373  0  0.987123  0
H  H17  1  0.42233904  0.70254722  0.62962153  1  0.086811  0  0.112844  0.13309  0  0.980424  0
H  H18  1  0.20191929  0.29704975  0.40760283  1  0.085781  0  0.103489  0.097748  0  0.983843  0
H  H19  1  0.15902378  0.11875047  0.32743876  1  0.117375  0  0.108079  0.109988  0  0.976059  0
H  H20  1  0.43139996  0.70767684  0.83030286  1  0.088431  0  0.113098  0.112427  0  0.973034  0
H  H21  1  0.51898014  0.84115829  0.78298581  1  0.096099  0  0.111781  0.131238  0  0.981573  0
H  H22  1  0.48068109  0.62320999  0.74020930  1  0.086681  0  0.112079  0.111894  0  0.972401  0
H  H23  1  0.56557783  0.38149639  0.18571104  1  0.071307  0  0.104013  0.065478  0  0.973904  0
H  H24  1  0.47645377  0.35503783  0.09026904  1  0.027458  0  0.100215  0.05728  0  0.963041  0
H  H25  1  0.54093979  0.29499436  0.00345081  1  0.041055  0  0.092808  0.127198  0  1.013292  0
H  H26  1  0.61494737  0.40665889  0.08362845  1  0.015689  0  0.096173  0.126928  0  0.994669  0
H  H27  1  0.62928388  0.32266987  0.09920446  1  0.037226  0  0.098391  0.136895  0  0.982673  0
H  H28  1  0.78683966  0.87267868  0.54871706  1  0.108926  0  0.114602  0.115717  0  0.969766  0
H  H29  1  0.82993701  0.73268512  0.46656186  1  0.090411  0  0.112341  0.132665  0  0.981823  0
H  H30  1  0.65199931  0.73725239  0.50462258  1  0.111866  0  0.113851  0.11451  0  0.970622  0
H  H31  1  0.78794539  0.69011058  0.58517387  1  0.09619  0  0.114226  0.13693  0  0.979576  0
H  H32  1  0.41344698  0.13903585  0.19094286  1  0.107581  0  0.11003  0.149654  0  0.99858  0
H  H33  1  0.42304560  0.33436071  0.19303223  1  0.095497  0  0.116725  0.125395  0  0.978206  0
H  H34  1  0.52060843  0.29148734  0.32378284  1  0.088815  0  0.114762  0.134585  0  0.97846  0
C  C35  1  0.45964576  0.60331424  0.58865046  1  1.525575  0  0.211174  0.641764  0  4.152266  0
C  C36  1  0.83523868  0.79643353  0.49592182  1  -0.04007  0  -0.089402  -0.231406  0  3.882653  0
C  C37  1  0.71591303  0.74174910  0.52738181  1  -0.06733  0  -0.063746  -0.013541  0  3.977431  0
C  C38  1  0.39560360  0.36844081  0.50545218  1  1.534617  0  0.216617  0.612858  0  4.141778  0
C  C39  1  0.72522659  0.68600448  0.55466504  1  -0.031329  0  -0.090999  -0.238534  0  3.884159  0
C  C40  1  0.46009014  0.23295471  0.15556978  1  0.507092  0  0.099857  0.295145  0  4.05957  0
C  C41  1  0.44389838  0.15594953  0.15466944  1  0.012389  0  -0.124695  -0.394376  0  3.870936  0
C  C42  1  0.45275869  0.29957941  0.21571672  1  -0.078481  0  -0.07064  -0.125192  0  3.974298  0
C  C43  1  0.48618291  0.32187519  0.29903913  1  0.029932  0  -0.082398  -0.197624  0  3.895796  0
C  C44  1  0.13444797  0.04455405  0.63997919  1  1.505891  0  0.207294  0.637381  0  4.162671  0
C  C45  1  0.11324226  0.08916035  0.46584751  1  1.527706  0  0.215979  0.600361  0  4.144332  0
C  C46  1  0.20077621  0.16656827  0.39585439  1  -0.062587  0  -0.072026  -0.106733  0  3.615122  0
C  C47  1  0.88745847  0.03417674  0.41823650  1  1.522942  0  0.210642  0.640999  0  4.151272  0
C  C48  1  0.89687466  0.86698761  0.49199563  1  1.513995  0  0.21442  0.64591  0  4.147125  0
C  C49  1  0.65150701  0.04648426  0.12193323  1  1.542314  0  0.213168  0.644965  0  4.148827  0
C  C50  1  0.48467567  0.39062045  0.36426365  1  1.516729  0  0.210612  0.638916  0  4.151936  0
C  C51  1  0.48796112  0.87930894  0.88558592  1  1.535338  0  0.21295  0.643597  0  4.150171  0
C  C52  1  0.41473526  0.04442239  0.89494480  1  1.529036  0  0.210477  0.640293  0  4.153626  0
C  C53  1  0.46208935  0.09280479  0.10505686  1  1.512442  0  0.204366  0.66844  0  4.142613  0
C  C54  1  0.34504787  0.12141524  0.83889274  1  -0.034247  0  -0.070491  -0.034553  0  3.980735  0
C  C55  1  0.34269528  0.04827287  0.83730281  1  -0.034185  0  -0.083398  -0.210099  0  3.876031  0
C  C56  1  0.26921468  0.11960131  0.78248709  1  -0.058786  0  -0.065324  -0.019064  0  3.973831  0
C  C57  1  0.29859051  0.19501245  0.44925612  1  0.149269  0  0.029399  0.149697  0  3.692804  0
C  C58  1  0.21389017  0.05354186  0.70102017  1  -0.007974  0  -0.092522  -0.232603  0  3.900925  0
C  C59  1  0.71185450  0.98690651  0.20736667  1  -0.089342  0  -0.067142  -0.021123  0  3.986174  0
C  C60  1  0.72330380  0.05454144  0.19300975  1  -0.005113  0  -0.088044  -0.229571  0  3.878335  0
C  C61  1  0.77565911  0.98411087  0.27310058  1  -0.048603  0  -0.063732  -0.013356  0  3.980855  0
C  C62  1  0.64945805  0.61843359  0.54723011  1  1.498102  0  0.212657  0.644558  0  4.148957  0
C  C63  1  0.82605421  0.04561801  0.35678897  1  -0.03402  0  -0.091075  -0.235932  0  3.884772  0
C  C64  1  0.30776952  0.28336249  0.56728403  1  -0.052456  0  -0.071581  -0.054022  0  3.630379  0
C  C65  1  0.28437014  0.18574785  0.52297289  1  -0.013147  0  -0.067085  -0.098442  0  3.602932  0
C  C66  1  0.18535694  0.15805759  0.46993620  1  0.017028  0  -0.004594  -0.015072  0  3.638355  0
C  C67  1  0.20994975  0.25586105  0.51472205  1  -0.01106  0  -0.076278  -0.065973  0  3.634213  0
C  C68  1  0.32222853  0.29409407  0.49366350  1  0.006106  0  -0.008454  -0.06435  0  3.641723  0
C  C69  1  0.22433935  0.26453158  0.44052139  1  -0.028632  0  -0.075769  -0.05938  0  3.637412  0
C  C70  1  0.52541719  0.33710887  0.11587132  1  0.373772  0  -0.060815  0.082773  0  3.905812  0
C  C71  1  0.58083157  0.34046493  0.07287378  1  -0.003259  0  -0.239847  -0.394333  0  3.970058  0
C  C72  1  0.45670486  0.73002322  0.79274392  1  -0.159134  0  -0.066852  -0.024437  0  3.977905  0
C  C73  1  0.48699981  0.81451660  0.81419483  1  0.065528  0  -0.087541  -0.223401  0  3.882628  0
C  C74  1  0.46273765  0.66900765  0.72682172  1  -0.086488  0  -0.065531  -0.019091  0  3.979275  0
C  C75  1  0.44737074  0.66411111  0.65037694  1  0.03939  0  -0.090399  -0.231795  0  3.884424  0
C  C76  1  0.78281938  0.80885551  0.52725362  1  0.004691  0  -0.064476  -0.019206  0  3.977625  0
Cl  Cl77  1  0.35766928  0.15768443  0.40799549  1  -0.232222  0  -0.057114  -0.139557  0  1.332944  0
O  O78  1  0.41978817  0.58487932  0.50965221  1  -1.120854  0  -0.326872  -0.536846  0  2.20633  0
O  O79  1  0.67250318  0.10159800  0.09567540  1  -1.128716  0  -0.325458  -0.537294  0  2.200305  0
O  O80  1  0.43932181  0.85166949  0.91610292  1  -1.132523  0  -0.323686  -0.538529  0  2.233371  0
O  O81  1  0.50770407  0.57350633  0.61585634  1  -1.17018  0  -0.31644  -0.579439  0  2.29234  0
O  O82  1  0.53841240  0.95896019  0.91198833  1  -1.162849  0  -0.316811  -0.569335  0  2.271275  0
O  O83  1  0.39189160  0.98300392  0.91170858  1  -1.163064  0  -0.314872  -0.571962  0  2.263536  0
O  O84  1  0.49416577  0.10162815  0.92437760  1  -1.132919  0  -0.321328  -0.538599  0  2.214916  0
O  O85  1  0.41614340  0.01137226  0.08180515  1  -1.128562  0  -0.333014  -0.543978  0  2.168579  0
O  O86  1  0.52317571  0.11998412  0.08855373  1  -1.177666  0  -0.321115  -0.588337  0  2.347089  0
O  O87  1  0.37732795  0.40082547  0.45773101  1  -1.162366  0  -0.3109  -0.568699  0  2.305454  0
O  O88  1  0.47265063  0.39497284  0.56361946  1  -1.127552  0  -0.321011  -0.532625  0  2.233451  0
O  O89  1  0.10581095  0.09600657  0.66682618  1  -1.130356  0  -0.326887  -0.540943  0  2.213069  0
O  O90  1  0.43823867  0.42427704  0.33967637  1  -1.131248  0  -0.325497  -0.538295  0  2.21431  0
O  O91  1  0.53107209  0.41245453  0.44177461  1  -1.16055  0  -0.312786  -0.568867  0  2.280584  0
O  O92  1  0.57379974  0.59889528  0.49534301  1  -1.179282  0  -0.317138  -0.583001  0  2.316982  0
O  O93  1  0.66517451  0.58279434  0.59386009  1  -1.113462  0  -0.323284  -0.531992  0  2.196273  0
O  O94  1  0.09833359  0.98448285  0.56260438  1  -1.170619  0  -0.317694  -0.575982  0  2.277963  0
O  O95  1  0.48086339  0.24820265  0.09808955  1  -1.044821  0  -0.170281  -0.183951  0  2.518571  0
O  O96  1  0.08286909  0.00825116  0.41281350  1  -1.127632  0  -0.323131  -0.530449  0  2.205422  0
O  O97  1  0.08729469  0.11544572  0.51805579  1  -1.168124  0  -0.311266  -0.572352  0  2.318376  0
O  O98  1  0.90482210  0.97423606  0.38947991  1  -1.174698  0  -0.317728  -0.58234  0  2.299287  0
O  O99  1  0.91990469  0.08758071  0.49881337  1  -1.124565  0  -0.325804  -0.535194  0  2.208662  0
O  O100  1  0.92228377  0.84231234  0.43722877  1  -1.119922  0  -0.324743  -0.535013  0  2.213934  0
O  O101  1  0.91967208  0.94547224  0.54068866  1  -1.171936  0  -0.315177  -0.574349  0  2.296933  0
O  O102  1  0.57471471  0.98616952  0.09119034  1  -1.18271  0  -0.316754  -0.579333  0  2.31166  0
