# generated using pymatgen
data_DyCuH10C16N5O9
_symmetry_space_group_name_H-M   'P 1'
_cell_length_a   10.45319850
_cell_length_b   10.87292867
_cell_length_c   11.62965227
_cell_angle_alpha   72.85333141
_cell_angle_beta   81.73646166
_cell_angle_gamma   59.08047481
_symmetry_Int_Tables_number   1
_chemical_formula_structural   DyCuH10C16N5O9
_chemical_formula_sum   'Dy2 Cu2 H20 C32 N10 O18'
_cell_volume   1083.50120834
_cell_formula_units_Z   2
loop_
 _symmetry_equiv_pos_site_id
 _symmetry_equiv_pos_as_xyz
  1  'x, y, z'
loop_
 _atom_site_type_symbol
 _atom_site_label
 _atom_site_symmetry_multiplicity
 _atom_site_fract_x
 _atom_site_fract_y
 _atom_site_fract_z
 _atom_site_occupancy
 _atom_site_hle17_ddec_charge
 _atom_site_hle17_ddec_spin_density
 _atom_site_hle17_ddec_sum_bond_order
 _atom_site_hle17_magmom
 _atom_site_hse06_10hf_ddec_charge
 _atom_site_hse06_10hf_ddec_spin_density
 _atom_site_hse06_10hf_ddec_sum_bond_order
 _atom_site_hse06_10hf_magmom
 _atom_site_hse06_ddec_charge
 _atom_site_hse06_ddec_spin_density
 _atom_site_hse06_ddec_sum_bond_order
 _atom_site_hse06_magmom
 _atom_site_pbe_cm5_charge
 _atom_site_pbe_ddec_charge
 _atom_site_pbe_ddec_spin_density
 _atom_site_pbe_ddec_sum_bond_order
 _atom_site_pbe_magmom
Dy  Dy0  1  0.43539997  0.00750160  0.82326420  1  2.238743  0.000126  1.600608  0.0  2.09818  0.000134  2.065742  0.0  2.22641  7.8e-05  1.877264  0.0  1.508497  2.060026  0.000202  2.098843  0.0
Dy  Dy1  1  0.56459957  0.99249675  0.17673388  1  2.238759  0.00012  1.600592  0.0  2.09823  0.000133  2.065688  0.0  2.226434  8.1e-05  1.87725  0.0  1.508492  2.060079  0.000202  2.098785  0.0
Cu  Cu2  1  0.99999888  0.99999996  0.00000289  1  0.730706  -0.675689  2.036929  -0.469  0.682831  -0.780212  2.432547  -0.596  0.758064  -0.868255  2.380068  -0.683  0.815771  0.6406  -0.707063  2.466892  -0.532
Cu  Cu3  1  0.00000362  0.00000070  0.49999964  1  0.723033  0.675722  2.000496  0.469  0.668744  0.775482  2.39909  0.591  0.746164  0.863202  2.344556  0.676  0.805647  0.622849  0.703864  2.436298  0.528
H  H4  1  0.92737143  0.76974620  0.48823977  1  0.104421  0.001211  0.921798  0.002  0.109494  0.00099  0.986635  0.001  0.111946  0.000718  0.983707  0.001  0.127693  0.107485  0.001174  0.989044  0.002
H  H5  1  0.07263144  0.23026834  0.51175993  1  0.104552  0.001212  0.921714  0.002  0.109497  0.000991  0.986685  0.001  0.111945  0.000718  0.983766  0.001  0.127769  0.107493  0.001174  0.989082  0.002
H  H6  1  0.02660925  0.49612368  0.58388748  1  0.11128  0.000558  0.956148  0.0  0.12127  0.000589  1.015164  0.001  0.124355  0.00044  1.0138  0.0  0.113682  0.11909  0.000693  1.016182  0.001
H  H7  1  0.97338044  0.50388921  0.41610449  1  0.11133  0.00056  0.956082  0.0  0.12128  0.000589  1.015163  0.001  0.124358  0.00044  1.013808  0.0  0.113688  0.1191  0.000693  1.016179  0.001
H  H8  1  0.35852713  0.49283504  0.76507129  1  0.124292  0.000519  0.940339  0.001  0.133836  0.000558  0.996692  0.001  0.137524  0.000405  0.994683  0.0  0.117944  0.131095  0.000636  0.998322  0.001
H  H9  1  0.64147887  0.50715218  0.23493588  1  0.124239  0.00052  0.94043  0.001  0.133904  0.000558  0.996647  0.001  0.137594  0.000405  0.994634  0.0  0.117983  0.131162  0.000636  0.998277  0.001
H  H10  1  0.25007413  0.76645232  0.66218787  1  0.089942  0.001139  0.954871  0.002  0.094634  0.000912  1.024766  0.001  0.096712  0.000654  1.022051  0.001  0.120043  0.09253  0.001104  1.027407  0.002
H  H11  1  0.74994282  0.23353445  0.33782025  1  0.089991  0.001133  0.954935  0.002  0.094708  0.000911  1.024796  0.001  0.09678  0.000654  1.022082  0.001  0.120073  0.092602  0.001103  1.027433  0.002
H  H12  1  0.01859222  0.25300700  0.82008292  1  0.09743  -0.001124  0.963819  -0.002  0.098467  -0.000883  1.03834  -0.001  0.100597  -0.000627  1.036229  -0.001  0.119598  0.096764  -0.001086  1.040276  -0.002
H  H13  1  0.98139833  0.74699390  0.17991414  1  0.097394  -0.001126  0.963833  -0.002  0.098418  -0.000882  1.038377  -0.001  0.100546  -0.000627  1.036269  -0.001  0.119571  0.096713  -0.001086  1.04031  -0.002
H  H14  1  0.87063331  0.53286685  0.76739927  1  0.11515  -0.00053  0.957499  -0.001  0.121358  -0.000557  1.022391  -0.001  0.124418  -0.0004  1.021513  0.0  0.109579  0.119146  -0.000668  1.023144  -0.001
H  H15  1  0.12935560  0.46713520  0.23259428  1  0.115123  -0.000532  0.957472  -0.001  0.121299  -0.000558  1.022426  -0.001  0.124357  -0.0004  1.021554  0.0  0.109566  0.119102  -0.000668  1.023163  -0.001
H  H16  1  0.58190201  0.50033835  0.06267316  1  0.115156  -0.000503  0.951238  0.0  0.124677  -0.000483  1.010397  -0.001  0.127748  -0.000359  1.009083  0.0  0.114865  0.122502  -0.000655  1.011418  -0.001
H  H17  1  0.41810015  0.49966535  0.93732982  1  0.115165  -0.000501  0.951256  0.0  0.124678  -0.000483  1.010415  -0.001  0.127749  -0.000359  1.009097  0.0  0.114885  0.122504  -0.000655  1.011435  -0.001
H  H18  1  0.73621092  0.22234472  0.10394145  1  0.094342  -0.001151  0.953606  -0.002  0.0979  -0.000891  1.025087  -0.001  0.099583  -0.000635  1.023057  -0.001  0.123773  0.096421  -0.001108  1.027031  -0.002
H  H19  1  0.26378844  0.77765910  0.89606624  1  0.094348  -0.001155  0.95366  -0.002  0.097901  -0.000891  1.025138  -0.001  0.099585  -0.000634  1.023107  -0.001  0.123798  0.096422  -0.001108  1.02708  -0.002
H  H20  1  0.21232678  0.98107430  0.71952142  1  0.398342  -1.2e-05  0.909945  0.0  0.356687  -1.2e-05  0.996761  0.0  0.366846  -1e-05  0.982073  0.0  0.295423  0.34916  -1.6e-05  1.007989  0.0
H  H21  1  0.78767260  0.01891645  0.28048234  1  0.398386  -1e-05  0.909928  0.0  0.356738  -1.1e-05  0.996682  0.0  0.366896  -1e-05  0.981996  0.0  0.295475  0.349215  -1.6e-05  1.007907  0.0
H  H22  1  0.33304011  0.94460554  0.61964631  1  0.454944  1.4e-05  0.824531  0.0  0.429257  1.1e-05  0.877595  0.0  0.441468  2.1e-05  0.859664  0.0  0.308399  0.420855  -1.1e-05  0.890169  0.0
H  H23  1  0.66695317  0.05539417  0.38035668  1  0.454988  1.1e-05  0.824475  0.0  0.429285  1.1e-05  0.877572  0.0  0.441499  2.1e-05  0.859634  0.0  0.30842  0.420883  -1.1e-05  0.890146  0.0
C  C24  1  0.80378556  0.02872675  0.70819554  1  0.013814  -0.004981  3.631425  -0.005  0.006379  -0.000818  3.888629  -0.001  0.008111  -0.001797  3.902973  -0.002  0.105504  0.005375  -5e-05  3.878711  0.0
C  C25  1  0.19621809  0.97127685  0.29179518  1  0.013839  -0.004984  3.63144  -0.005  0.006359  -0.000822  3.888756  -0.001  0.008069  -0.001797  3.903123  -0.002  0.105497  0.005357  -5e-05  3.878838  0.0
C  C26  1  0.81394603  0.01524988  0.83077793  1  0.002585  0.006025  3.667263  0.006  7.2e-05  0.001989  3.91852  0.002  3.2e-05  0.002749  3.931894  0.003  0.10121  0.00028  0.001312  3.909119  0.001
C  C27  1  0.18605346  0.98475064  0.16921952  1  0.002651  0.006031  3.667289  0.006  5.6e-05  0.001993  3.918712  0.002  2.1e-05  0.002748  3.93209  0.003  0.101192  0.000265  0.001311  3.909312  0.001
C  C28  1  0.69310471  0.04557465  0.62633938  1  0.709926  0.000195  3.889668  0.0  0.663378  4.8e-05  4.187732  0.0  0.700377  6.1e-05  4.175187  0.0  0.232289  0.638817  1e-05  4.196  0.0
C  C29  1  0.30689075  0.95442822  0.37365717  1  0.710066  0.000193  3.889545  0.0  0.663538  4.6e-05  4.187603  0.0  0.700546  6e-05  4.175048  0.0  0.232378  0.638975  1e-05  4.195871  0.0
C  C30  1  0.73016991  0.99161706  0.94097372  1  0.70087  3.6e-05  3.89961  0.0  0.655538  0.000136  4.186671  0.0  0.692237  0.000109  4.180323  0.0  0.232436  0.630723  0.000183  4.1959  0.0
C  C31  1  0.26983322  0.00838006  0.05902672  1  0.701037  3.7e-05  3.899555  0.0  0.655644  0.000138  4.186738  0.0  0.692344  0.000109  4.180387  0.0  0.232453  0.630829  0.000183  4.195968  0.0
C  C32  1  0.02304889  0.70437894  0.54961923  1  0.13017  -0.008132  3.658413  -0.009  0.100237  -0.000876  3.918882  -0.002  0.108397  -0.00219  3.937005  -0.003  0.055193  0.094825  0.00011  3.907382  -0.001
C  C33  1  0.97695222  0.29563133  0.45038457  1  0.129872  -0.008119  3.658515  -0.009  0.10008  -0.000875  3.918938  -0.002  0.108242  -0.002189  3.937054  -0.003  0.055046  0.094668  0.000111  3.907442  -0.001
C  C34  1  0.07785895  0.55359096  0.60266123  1  -0.117649  0.011319  3.697846  0.012  -0.137594  0.00445  3.941112  0.005  -0.142748  0.004256  3.960072  0.005  -0.070248  -0.133997  0.004561  3.928162  0.005
C  C35  1  0.92213735  0.44642059  0.39733437  1  -0.117452  0.011298  3.697778  0.012  -0.137355  0.004451  3.940972  0.005  -0.142499  0.004256  3.959932  0.005  -0.070149  -0.133761  0.004561  3.928023  0.005
C  C36  1  0.19926617  0.47573539  0.68198302  1  0.021376  -0.009625  3.703248  -0.009  0.039605  -0.003119  3.928822  -0.003  0.039057  -0.003483  3.946994  -0.004  0.013954  0.040057  -0.002787  3.916068  -0.003
C  C37  1  0.80073265  0.52426842  0.31801099  1  0.021299  -0.00961  3.703378  -0.009  0.039488  -0.00312  3.928983  -0.003  0.038933  -0.003482  3.947163  -0.004  0.013934  0.039944  -0.002787  3.916223  -0.003
C  C38  1  0.26330318  0.55206416  0.70411991  1  -0.110117  0.011249  3.689965  0.012  -0.129534  0.004401  3.928534  0.005  -0.134982  0.004198  3.948415  0.005  -0.068459  -0.125943  0.004464  3.915123  0.005
C  C39  1  0.73670660  0.44792943  0.29588480  1  -0.110114  0.011244  3.690072  0.012  -0.129615  0.004402  3.928675  0.005  -0.135062  0.004193  3.948556  0.005  -0.068552  -0.126024  0.004463  3.915262  0.005
C  C40  1  0.20354284  0.70241914  0.64786866  1  0.122098  -0.008228  3.680656  -0.009  0.093627  -0.001087  3.937641  -0.002  0.101218  -0.002368  3.957425  -0.003  0.048702  0.089109  -9.4e-05  3.924546  -0.001
C  C41  1  0.79646447  0.29757782  0.35213718  1  0.122002  -0.008219  3.680713  -0.009  0.093504  -0.001089  3.937781  -0.002  0.101103  -0.002367  3.957558  -0.003  0.048692  0.088993  -9.5e-05  3.92468  -0.001
C  C42  1  0.26245919  0.31306518  0.74294975  1  0.623121  0.000507  3.95922  0.001  0.580984  7.4e-05  4.250344  0.0  0.612913  4.7e-05  4.251154  0.0  0.189301  0.558596  8.2e-05  4.254985  0.0
C  C43  1  0.73753986  0.68693864  0.25705025  1  0.623112  0.000506  3.959405  0.001  0.581041  7.3e-05  4.250451  0.0  0.612971  4.8e-05  4.251261  0.0  0.189315  0.558649  8.2e-05  4.255092  0.0
C  C44  1  0.92081916  0.31200519  0.87143670  1  0.120392  0.007653  3.667142  0.008  0.09225  0.000726  3.924744  0.002  0.099913  0.002034  3.943919  0.003  0.046072  0.087342  -0.000285  3.912139  0.001
C  C45  1  0.07917407  0.68799670  0.12856566  1  0.12041  0.007686  3.66712  0.008  0.092293  0.000723  3.9247  0.002  0.099959  0.002037  3.943872  0.003  0.046086  0.087387  -0.000284  3.912095  0.001
C  C46  1  0.83946504  0.46628151  0.84278325  1  -0.115446  -0.01141  3.690736  -0.012  -0.134117  -0.004466  3.929663  -0.005  -0.139824  -0.004208  3.949922  -0.005  -0.073336  -0.130355  -0.004607  3.915881  -0.005
C  C47  1  0.16053453  0.53371902  0.15721591  1  -0.11545  -0.011451  3.690644  -0.012  -0.134092  -0.004464  3.929617  -0.005  -0.1398  -0.004213  3.949878  -0.005  -0.073327  -0.130346  -0.004608  3.915828  -0.005
C  C48  1  0.71483296  0.53631329  0.91142642  1  0.015459  0.009406  3.702343  0.009  0.034636  0.003051  3.926808  0.003  0.034011  0.003382  3.944671  0.003  0.011817  0.035261  0.002727  3.914056  0.003
C  C49  1  0.28516510  0.46368839  0.08857265  1  0.015564  0.009454  3.702283  0.009  0.034686  0.003053  3.926814  0.003  0.034061  0.003385  3.944677  0.003  0.011843  0.035308  0.002727  3.914065  0.003
C  C50  1  0.67846420  0.44811367  0.00823347  1  -0.115468  -0.011359  3.700219  -0.012  -0.138284  -0.004434  3.95044  -0.005  -0.14349  -0.004176  3.969497  -0.005  -0.07119  -0.134469  -0.004545  3.93703  -0.005
C  C51  1  0.32153231  0.55188917  0.99176464  1  -0.115601  -0.0114  3.700155  -0.012  -0.138384  -0.004436  3.950365  -0.005  -0.143587  -0.004178  3.969421  -0.005  -0.071272  -0.13457  -0.004545  3.936954  -0.005
C  C52  1  0.76422273  0.29446517  0.03163393  1  0.132472  0.007981  3.668825  0.008  0.10174  0.000913  3.933033  0.002  0.11033  0.002236  3.951016  0.003  0.05159  0.096302  -5.2e-05  3.92088  0.001
C  C53  1  0.23577610  0.70553758  0.96837244  1  0.132516  0.008011  3.668678  0.008  0.101815  0.000913  3.932855  0.002  0.110403  0.002238  3.950838  0.003  0.051583  0.096374  -5.2e-05  3.9207  0.001
C  C54  1  0.61862012  0.70255981  0.87948219  1  0.633338  -0.000529  3.938174  -0.001  0.591619  -7.8e-05  4.225629  0.0  0.624505  -4.4e-05  4.225428  0.0  0.191564  0.56876  -0.000123  4.23029  0.0
C  C55  1  0.38137628  0.29744084  0.12051228  1  0.633294  -0.000532  3.938067  -0.001  0.591588  -7.9e-05  4.225539  0.0  0.624475  -4.4e-05  4.225338  0.0  0.191528  0.568729  -0.000123  4.230198  0.0
N  N56  1  0.92869603  0.03093863  0.65832446  1  -0.215339  0.065861  3.364757  0.08  -0.196482  0.049036  3.692209  0.063  -0.219652  0.043645  3.711899  0.059  -0.258647  -0.182639  0.050103  3.68013  0.063
N  N57  1  0.07130931  0.96906165  0.34167040  1  -0.215453  0.065866  3.36475  0.08  -0.196584  0.049033  3.692252  0.063  -0.219749  0.043641  3.711948  0.059  -0.258689  -0.182739  0.050101  3.680172  0.063
N  N58  1  0.01145885  0.02191574  0.74049594  1  -0.066913  -4.4e-05  2.994703  0.0  -0.040529  -0.00013  3.284335  0.0  -0.036735  -5.8e-05  3.29617  0.0  -0.085374  -0.042276  -0.000134  3.276881  0.0
N  N59  1  0.98854529  0.97807916  0.25950413  1  -0.066859  -4.6e-05  2.994727  0.0  -0.040487  -0.00013  3.284328  0.0  -0.036693  -5.9e-05  3.296166  0.0  -0.085317  -0.042235  -0.000134  3.276878  0.0
N  N60  1  0.94223055  0.01262205  0.84437719  1  -0.197372  -0.063238  3.372551  -0.077  -0.177875  -0.047369  3.695843  -0.061  -0.198373  -0.042478  3.713476  -0.057  -0.25479  -0.165844  -0.04827  3.684672  -0.061
N  N61  1  0.05776950  0.98737737  0.15562136  1  -0.197449  -0.06325  3.37263  -0.077  -0.177861  -0.047376  3.695893  -0.061  -0.198358  -0.042478  3.713521  -0.057  -0.254823  -0.165829  -0.048273  3.684726  -0.061
N  N62  1  0.08517219  0.77672394  0.57282683  1  -0.274019  0.088861  3.331373  0.109  -0.228551  0.065767  3.624089  0.087  -0.257828  0.056682  3.649293  0.078  -0.335424  -0.210837  0.069769  3.608284  0.09
N  N63  1  0.91484042  0.22327823  0.42717663  1  -0.273898  0.088849  3.33151  0.109  -0.228481  0.065769  3.624227  0.087  -0.257757  0.056684  3.649427  0.078  -0.335421  -0.210766  0.06977  3.608423  0.09
N  N64  1  0.88245697  0.22835728  0.96383733  1  -0.274722  -0.090935  3.311755  -0.112  -0.230737  -0.066168  3.60192  -0.088  -0.260079  -0.056474  3.626477  -0.078  -0.334668  -0.212914  -0.070647  3.58633  -0.091
N  N65  1  0.11753629  0.77164461  0.03616588  1  -0.274678  -0.090962  3.311694  -0.112  -0.230729  -0.06617  3.601869  -0.088  -0.260072  -0.05648  3.626426  -0.078  -0.334645  -0.212907  -0.070653  3.586275  -0.091
O  O66  1  0.73860800  0.03510461  0.52075041  1  -0.633183  -0.004718  1.95135  -0.005  -0.590839  -0.002262  2.184682  -0.002  -0.616287  -0.001793  2.167954  -0.002  -0.308602  -0.572364  -0.00269  2.194777  -0.003
O  O67  1  0.26139118  0.96489267  0.47925062  1  -0.633221  -0.004721  1.951311  -0.005  -0.590908  -0.002261  2.184589  -0.002  -0.616359  -0.001796  2.167861  -0.002  -0.308641  -0.572434  -0.002691  2.194685  -0.003
O  O68  1  0.56387122  0.07414762  0.66566968  1  -0.72663  -0.000345  2.03751  0.0  -0.677533  -0.000131  2.282269  0.0  -0.713722  -0.000183  2.262816  0.0  -0.411494  -0.659999  -0.000107  2.291428  0.0
O  O69  1  0.43612195  0.92585427  0.33433097  1  -0.726705  -0.00034  2.037431  0.0  -0.677581  -0.00013  2.2822  0.0  -0.713762  -0.000182  2.26274  0.0  -0.411503  -0.660049  -0.000107  2.291361  0.0
O  O70  1  0.61955572  0.97625310  0.93609460  1  -0.740423  0.000633  2.170904  0.001  -0.687173  0.000347  2.425767  0.001  -0.728661  0.000339  2.415444  0.001  -0.390016  -0.66919  0.000323  2.432276  0.0
O  O71  1  0.38044107  0.02374538  0.06390904  1  -0.740509  0.000636  2.17099  0.001  -0.687258  0.000347  2.425917  0.001  -0.728737  0.000339  2.415583  0.001  -0.390056  -0.669279  0.000323  2.432437  0.0
O  O72  1  0.77542841  0.98331353  0.04104352  1  -0.698335  0.003729  2.014538  0.004  -0.658145  0.00213  2.279056  0.002  -0.693183  0.001834  2.264749  0.001  -0.356038  -0.640063  0.00223  2.288423  0.002
O  O73  1  0.22457504  0.01667052  0.95896069  1  -0.698442  0.003724  2.014465  0.004  -0.65817  0.002128  2.278985  0.002  -0.693214  0.001834  2.264684  0.001  -0.355991  -0.640083  0.00223  2.28835  0.002
O  O74  1  0.22341269  0.23707451  0.70654689  1  -0.696189  -0.000621  1.942916  -0.001  -0.652408  -0.000203  2.176157  0.0  -0.685155  -0.000223  2.166495  0.0  -0.373084  -0.635192  -0.000223  2.182664  0.0
O  O75  1  0.77658649  0.76293037  0.29344417  1  -0.696172  -0.000622  1.943076  -0.001  -0.652386  -0.000202  2.176264  0.0  -0.685127  -0.000224  2.166598  0.0  -0.373082  -0.635171  -0.000223  2.18277  0.0
O  O76  1  0.35624358  0.25569377  0.82803651  1  -0.65925  -0.000655  1.9706  -0.001  -0.620538  -0.000253  2.203351  0.0  -0.652666  -0.000261  2.195236  0.0  -0.370632  -0.603812  -0.000216  2.207867  0.0
O  O77  1  0.64375791  0.74429578  0.17195780  1  -0.659233  -0.000653  1.970501  -0.001  -0.62058  -0.000256  2.203255  0.0  -0.652707  -0.000259  2.195146  0.0  -0.370613  -0.603854  -0.000216  2.207772  0.0
O  O78  1  0.50319898  0.76091030  0.94247255  1  -0.675297  0.000561  1.978936  0.001  -0.630882  0.000187  2.217745  0.0  -0.664728  0.000211  2.209674  0.0  -0.376576  -0.61282  0.000188  2.221942  0.0
O  O79  1  0.49680004  0.23908916  0.05752528  1  -0.675261  0.000572  1.97892  0.001  -0.630849  0.000185  2.217735  0.0  -0.664692  0.000212  2.209665  0.0  -0.376561  -0.612788  0.000188  2.221932  0.0
O  O80  1  0.65269781  0.78026913  0.78938367  1  -0.674792  0.000615  1.933204  0.001  -0.632047  0.000195  2.154289  0.0  -0.665107  0.000231  2.145974  0.0  -0.375417  -0.614325  0.000167  2.159017  0.0
O  O81  1  0.34729560  0.21973164  0.21061039  1  -0.674805  0.000615  1.933077  0.001  -0.63206  0.000197  2.154147  0.0  -0.665116  0.000229  2.145831  0.0  -0.375395  -0.614339  0.000167  2.158878  0.0
O  O82  1  0.32172298  0.93700358  0.70757862  1  -0.905422  -6.9e-05  1.875951  0.0  -0.858365  -5.4e-05  2.066751  0.0  -0.887627  -3.1e-05  2.028001  0.0  -0.635865  -0.845229  -5.7e-05  2.090801  0.0
O  O83  1  0.67827679  0.06299259  0.29242436  1  -0.905476  -6.7e-05  1.875893  0.0  -0.858414  -5.4e-05  2.066669  0.0  -0.887672  -3.2e-05  2.02792  0.0  -0.635915  -0.845279  -5.7e-05  2.090711  0.0
