# generated using pymatgen
data_ZnH10C12(N2Cl)2
_symmetry_space_group_name_H-M   'P 1'
_cell_length_a   6.30018739
_cell_length_b   7.35345438
_cell_length_c   15.94224729
_cell_angle_alpha   87.95451265
_cell_angle_beta   89.99509386
_cell_angle_gamma   115.43308129
_symmetry_Int_Tables_number   1
_chemical_formula_structural   ZnH10C12(N2Cl)2
_chemical_formula_sum   'Zn2 H20 C24 N8 Cl4'
_cell_volume   666.47531074
_cell_formula_units_Z   2
loop_
 _symmetry_equiv_pos_site_id
 _symmetry_equiv_pos_as_xyz
  1  'x, y, z'
loop_
 _atom_site_type_symbol
 _atom_site_label
 _atom_site_symmetry_multiplicity
 _atom_site_fract_x
 _atom_site_fract_y
 _atom_site_fract_z
 _atom_site_occupancy
 _atom_site_hle17_bader_spin_density
 _atom_site_hle17_ddec_charge
 _atom_site_hle17_ddec_spin_density
 _atom_site_hle17_ddec_sum_bond_order
 _atom_site_hle17_magmom
 _atom_site_hse06_10hf_bader_spin_density
 _atom_site_hse06_10hf_ddec_charge
 _atom_site_hse06_10hf_ddec_spin_density
 _atom_site_hse06_10hf_ddec_sum_bond_order
 _atom_site_hse06_10hf_magmom
 _atom_site_hse06_bader_spin_density
 _atom_site_hse06_ddec_charge
 _atom_site_hse06_ddec_spin_density
 _atom_site_hse06_ddec_sum_bond_order
 _atom_site_hse06_magmom
 _atom_site_pbe_bader_spin_density
 _atom_site_pbe_cm5_charge
 _atom_site_pbe_ddec_charge
 _atom_site_pbe_ddec_spin_density
 _atom_site_pbe_ddec_sum_bond_order
 _atom_site_pbe_magmom
Zn  Zn0  1  0.05678235  0.99958784  0.74991247  1  0  0.870728  0  2.122886  0  0  0.70013  0  2.61113  0  0  0.738723  0  2.564435  0  0  0.568999  0.673564  0  2.642847  0
Zn  Zn1  1  0.94322660  0.00045595  0.25008840  1  0  0.870655  0  2.122688  0  0  0.700088  0  2.610892  0  0  0.738677  0  2.564199  0  0  0.568922  0.673517  0  2.642606  0
H  H2  1  0.61854608  0.30212519  0.79981752  1  0  0.107999  0  0.94509  0  0  0.113893  0  1.013025  0  0  0.116699  0  1.00941  0  0  0.131128  0.111786  0  1.015662  0
H  H3  1  0.31589336  0.69742147  0.70021203  1  0  0.107146  0  0.946556  0  0  0.11406  0  1.013338  0  0  0.116842  0  1.009752  0  0  0.131075  0.111898  0  1.016029  0
H  H4  1  0.38148561  0.69791011  0.20019149  1  0  0.108001  0  0.945141  0  0  0.113865  0  1.013092  0  0  0.116666  0  1.00948  0  0  0.131173  0.111757  0  1.015729  0
H  H5  1  0.68411850  0.30262179  0.29978068  1  0  0.107317  0  0.94636  0  0  0.114157  0  1.013175  0  0  0.116969  0  1.009563  0  0  0.131101  0.112001  0  1.015854  0
H  H6  1  0.01987284  0.90480585  0.93982793  1  0  0.101551  0  0.988755  0  0  0.108839  0  1.053599  0  0  0.110767  0  1.053942  0  0  0.110207  0.107418  0  1.0535  0
H  H7  1  0.11513791  0.09419910  0.56011493  1  0  0.101581  0  0.989539  0  0  0.109518  0  1.053639  0  0  0.11152  0  1.053905  0  0  0.110546  0.108065  0  1.053532  0
H  H8  1  0.98014739  0.09514637  0.06017067  1  0  0.101636  0  0.988915  0  0  0.108942  0  1.053672  0  0  0.110863  0  1.054029  0  0  0.110288  0.10752  0  1.053575  0
H  H9  1  0.88483072  0.90584656  0.43988282  1  0  0.101377  0  0.989231  0  0  0.109191  0  1.053531  0  0  0.111172  0  1.053826  0  0  0.110403  0.107745  0  1.05341  0
H  H10  1  0.36999534  0.12579618  0.05118554  1  0  0.121538  0  0.968472  0  0  0.128374  0  1.034092  0  0  0.131494  0  1.031839  0  0  0.117313  0.126053  0  1.035895  0
H  H11  1  0.24468165  0.87361886  0.44876824  1  0  0.120879  0  0.968616  0  0  0.128167  0  1.033839  0  0  0.131273  0  1.031674  0  0  0.117185  0.125855  0  1.035567  0
H  H12  1  0.63003677  0.87407206  0.94881018  1  0  0.121426  0  0.968438  0  0  0.12824  0  1.034092  0  0  0.131347  0  1.031871  0  0  0.117258  0.125946  0  1.035834  0
H  H13  1  0.75525534  0.12642385  0.55122887  1  0  0.120707  0  0.968641  0  0  0.127987  0  1.033893  0  0  0.131111  0  1.031674  0  0  0.117158  0.125677  0  1.035622  0
H  H14  1  0.63520833  0.42417072  0.08296632  1  0  0.113973  0  0.961073  0  0  0.122743  0  1.023733  0  0  0.12562  0  1.022437  0  0  0.100016  0.120647  0  1.024774  0
H  H15  1  0.21121967  0.57586988  0.41704725  1  0  0.113803  0  0.96083  0  0  0.123037  0  1.022922  0  0  0.126005  0  1.021482  0  0  0.100454  0.120882  0  1.024064  0
H  H16  1  0.36483696  0.57575547  0.91704850  1  0  0.113961  0  0.961184  0  0  0.122744  0  1.023792  0  0  0.12562  0  1.022498  0  0  0.10003  0.120644  0  1.024839  0
H  H17  1  0.78873063  0.42416456  0.58294355  1  0  0.113787  0  0.960862  0  0  0.123028  0  1.022985  0  0  0.125991  0  1.021547  0  0  0.100399  0.120899  0  1.024065  0
H  H18  1  0.97973444  0.36416217  0.85762306  1  0  0.107675  0  0.979703  0  0  0.11549  0  1.04645  0  0  0.118302  0  1.045139  0  0  0.096744  0.113373  0  1.04757  0
H  H19  1  0.61549470  0.63566596  0.64244003  1  0  0.107936  0  0.97971  0  0  0.115703  0  1.046544  0  0  0.118469  0  1.04529  0  0  0.096921  0.113635  0  1.047627  0
H  H20  1  0.02030723  0.63575047  0.14237914  1  0  0.10792  0  0.979221  0  0  0.115656  0  1.046053  0  0  0.118489  0  1.044744  0  0  0.096896  0.11354  0  1.04717  0
H  H21  1  0.38447285  0.36435855  0.35755826  1  0  0.10786  0  0.979408  0  0  0.115514  0  1.046416  0  0  0.118274  0  1.04518  0  0  0.096896  0.113445  0  1.047494  0
C  C22  1  0.50066496  0.22298520  0.85195687  1  0  0.193987  0  3.592532  0  0  0.131646  0  3.855837  0  0  0.146724  0  3.86651  0  0  0.152465  0.121873  0  3.848396  0
C  C23  1  0.27739634  0.77637732  0.64799913  1  0  0.194739  0  3.59544  0  0  0.131259  0  3.858124  0  0  0.146345  0  3.868807  0  0  0.15264  0.121545  0  3.850723  0
C  C24  1  0.49933448  0.77702059  0.14804699  1  0  0.193871  0  3.592355  0  0  0.131646  0  3.855635  0  0  0.146729  0  3.866307  0  0  0.15249  0.121872  0  3.848194  0
C  C25  1  0.72259433  0.22368385  0.35199492  1  0  0.194756  0  3.595308  0  0  0.131434  0  3.857934  0  0  0.146479  0  3.868594  0  0  0.152734  0.121726  0  3.850531  0
C  C26  1  0.19545395  0.02196784  0.92811189  1  0  -0.003182  0  3.751903  0  0  -0.034534  0  4.01282  0  0  -0.033174  0  4.033671  0  0  -0.006358  -0.035441  0  3.998741  0
C  C27  1  0.17334145  0.97709640  0.57179509  1  0  -0.003488  0  3.752555  0  0  -0.035807  0  4.013333  0  0  -0.034498  0  4.034129  0  0  -0.006427  -0.036667  0  3.999313  0
C  C28  1  0.80459276  0.97798972  0.07187982  1  0  -0.003381  0  3.752026  0  0  -0.034709  0  4.012929  0  0  -0.03335  0  4.033789  0  0  -0.006484  -0.035618  0  3.99885  0
C  C29  1  0.82664672  0.02296612  0.42820022  1  0  -0.003206  0  3.752112  0  0  -0.035378  0  4.012917  0  0  -0.034064  0  4.033722  0  0  -0.006315  -0.036238  0  3.998903  0
C  C30  1  0.36668905  0.12798592  0.98314773  1  0  -0.058809  0  3.667687  0  0  -0.100146  0  3.930799  0  0  -0.098402  0  3.948496  0  0  -5.7e-05  -0.101265  0  3.918978  0
C  C31  1  0.23874194  0.87125202  0.51680572  1  0  -0.057932  0  3.667203  0  0  -0.099761  0  3.930343  0  0  -0.098056  0  3.948075  0  0  -9.3e-05  -0.100847  0  3.918508  0
C  C32  1  0.63335626  0.87192447  0.01686074  1  0  -0.059003  0  3.667712  0  0  -0.10027  0  3.930848  0  0  -0.098529  0  3.948543  0  0  -2.8e-05  -0.101384  0  3.91904  0
C  C33  1  0.76123434  0.12880575  0.48319145  1  0  -0.057412  0  3.66679  0  0  -0.09924  0  3.929881  0  0  -0.097524  0  3.947617  0  0  -4.5e-05  -0.100329  0  3.918048  0
C  C34  1  0.78296702  0.38218193  0.96639896  1  0  0.170174  0  3.790105  0  0  0.161588  0  4.038324  0  0  0.166075  0  4.061648  0  0  0.093493  0.158521  0  4.022599  0
C  C35  1  0.40109174  0.61775395  0.53360267  1  0  0.17012  0  3.78729  0  0  0.16161  0  4.035345  0  0  0.166091  0  4.058644  0  0  0.093191  0.158553  0  4.019651  0
C  C36  1  0.21707493  0.61774396  0.03360581  1  0  0.170287  0  3.789518  0  0  0.161862  0  4.037555  0  0  0.166349  0  4.060886  0  0  0.093764  0.158794  0  4.02183  0
C  C37  1  0.59885272  0.38230366  0.46639576  1  0  0.169951  0  3.787918  0  0  0.161645  0  4.0357  0  0  0.166124  0  4.059  0  0  0.093386  0.158589  0  4.020005  0
C  C38  1  0.79488435  0.45659888  0.04660440  1  0  -0.124946  0  3.719945  0  0  -0.144534  0  3.970119  0  0  -0.14733  0  3.990607  0  0  -0.087607  -0.142584  0  3.956366  0
C  C39  1  0.33831093  0.54318746  0.45339146  1  0  -0.125249  0  3.718996  0  0  -0.145134  0  3.968972  0  0  -0.147986  0  3.989419  0  0  -0.087522  -0.143167  0  3.955278  0
C  C40  1  0.20514359  0.54328953  0.95339895  1  0  -0.125343  0  3.719884  0  0  -0.144928  0  3.969995  0  0  -0.147724  0  3.990477  0  0  -0.087827  -0.142978  0  3.956247  0
C  C41  1  0.66163703  0.45686767  0.54660257  1  0  -0.125264  0  3.719576  0  0  -0.145287  0  3.96968  0  0  -0.148134  0  3.990135  0  0  -0.087731  -0.143315  0  3.955995  0
C  C42  1  0.98766395  0.42516824  0.91957640  1  0  -0.123269  0  3.727714  0  0  -0.142041  0  3.975351  0  0  -0.145595  0  3.99674  0  0  -0.08648  -0.139606  0  3.961012  0
C  C43  1  0.56268469  0.57498768  0.58046805  1  0  -0.12342  0  3.727968  0  0  -0.142235  0  3.975798  0  0  -0.145761  0  3.997195  0  0  -0.086972  -0.139852  0  3.961453  0
C  C44  1  0.01235378  0.57473462  0.08043204  1  0  -0.123784  0  3.727777  0  0  -0.14254  0  3.975482  0  0  -0.146129  0  3.996849  0  0  -0.086861  -0.140103  0  3.961141  0
C  C45  1  0.43728949  0.42506589  0.41953916  1  0  -0.123123  0  3.728049  0  0  -0.141948  0  3.97595  0  0  -0.145477  0  3.997355  0  0  -0.086999  -0.139559  0  3.961595  0
N  N46  1  0.27993437  0.08322151  0.84694985  1  0  -0.363861  0  3.313233  0  0  -0.281042  0  3.60416  0  0  -0.300801  0  3.617143  0  0  -0.359131  -0.26767  0  3.59503  0
N  N47  1  0.19639285  0.91590309  0.65296418  1  0  -0.364291  0  3.314021  0  0  -0.28057  0  3.60435  0  0  -0.300347  0  3.617387  0  0  -0.359436  -0.267209  0  3.595213  0
N  N48  1  0.72005954  0.91679541  0.15304903  1  0  -0.363824  0  3.312525  0  0  -0.281037  0  3.603428  0  0  -0.300802  0  3.616412  0  0  -0.35913  -0.267659  0  3.594297  0
N  N49  1  0.80360939  0.08415898  0.34703489  1  0  -0.364528  0  3.314248  0  0  -0.28095  0  3.604664  0  0  -0.300715  0  3.617704  0  0  -0.359588  -0.267602  0  3.595532  0
N  N50  1  0.56006175  0.25456295  0.93423578  1  0  -0.090691  0  3.59712  0  0  -0.000697  0  3.807633  0  0  -0.015716  0  3.833595  0  0  -0.221829  0.009273  0  3.789966  0
N  N51  1  0.30544349  0.74492411  0.56573855  1  0  -0.090155  0  3.597822  0  0  -0.000185  0  3.808536  0  0  -0.015185  0  3.834481  0  0  -0.221597  0.009766  0  3.790875  0
N  N52  1  0.43997304  0.74538348  0.06577347  1  0  -0.090148  0  3.596439  0  0  -0.000341  0  3.807122  0  0  -0.015359  0  3.833087  0  0  -0.221926  0.009626  0  3.789454  0
N  N53  1  0.69451062  0.25511793  0.43425165  1  0  -0.090583  0  3.598263  0  0  -0.000691  0  3.808934  0  0  -0.015696  0  3.834892  0  0  -0.221693  0.00926  0  3.79127  0
Cl  Cl54  1  0.72249600  0.74027235  0.80010173  1  0  -0.587199  0  0.894052  0  0  -0.52949  0  1.159111  0  0  -0.543836  0  1.136284  0  0  -0.324163  -0.519041  0  1.174726  0
Cl  Cl55  1  0.98229466  0.25889945  0.69984635  1  0  -0.586999  0  0.892691  0  0  -0.529531  0  1.157934  0  0  -0.543911  0  1.135149  0  0  -0.324431  -0.519049  0  1.173463  0
Cl  Cl56  1  0.27752461  0.25976301  0.19989408  1  0  -0.587216  0  0.89404  0  0  -0.529465  0  1.159086  0  0  -0.5438  0  1.136241  0  0  -0.324116  -0.519009  0  1.1747  0
Cl  Cl57  1  0.01771109  0.74113795  0.30015764  1  0  -0.587034  0  0.892613  0  0  -0.529564  0  1.157843  0  0  -0.543909  0  1.135026  0  0  -0.32443  -0.519075  0  1.173368  0
