# generated using pymatgen
data_AlH12C24S3(NO5)3
_symmetry_space_group_name_H-M   'P 1'
_cell_length_a   4.27434657
_cell_length_b   15.68584140
_cell_length_c   15.66124396
_cell_angle_alpha   60.04207375
_cell_angle_beta   86.89433620
_cell_angle_gamma   86.32606235
_symmetry_Int_Tables_number   1
_chemical_formula_structural   AlH12C24S3(NO5)3
_chemical_formula_sum   'Al1 H12 C24 S3 N3 O15'
_cell_volume   907.57394693
_cell_formula_units_Z   1
loop_
 _symmetry_equiv_pos_site_id
 _symmetry_equiv_pos_as_xyz
  1  'x, y, z'
loop_
 _atom_site_type_symbol
 _atom_site_label
 _atom_site_symmetry_multiplicity
 _atom_site_fract_x
 _atom_site_fract_y
 _atom_site_fract_z
 _atom_site_occupancy
 _atom_site_pbe_bader_charge
 _atom_site_pbe_bader_spin_density
 _atom_site_pbe_cm5_charge
 _atom_site_pbe_ddec_charge
 _atom_site_pbe_ddec_spin_density
 _atom_site_pbe_ddec_sum_bond_order
 _atom_site_pbe_magmom
Al  Al0  1  0.98356564  0.50013994  0.49893220  1  2.518962  0  0.458405  1.650028  0  2.479212  0
H  H1  1  0.53330618  0.95822617  0.12602445  1  0.154279  0  0.119094  0.129021  0  1.005569  0
H  H2  1  0.51629117  0.41182049  0.95924220  1  0.134284  0  0.119377  0.128567  0  1.002679  0
H  H3  1  0.59146756  0.12520990  0.41274812  1  0.142182  0  0.118648  0.128344  0  1.008683  0
H  H4  1  0.60985928  0.49023855  0.24694018  1  0.069924  0  0.119048  0.133117  0  0.967455  0
H  H5  1  0.67497281  0.40562692  0.14767720  1  0.089918  0  0.118621  0.123077  0  0.984724  0
H  H6  1  0.55438188  0.24712476  0.75722151  1  0.116933  0  0.118325  0.132299  0  0.970352  0
H  H7  1  0.62719994  0.14782187  0.93905906  1  0.146077  0  0.118521  0.122952  0  0.984597  0
H  H8  1  0.53716196  0.75881962  0.49217544  1  0.107202  0  0.118832  0.132514  0  0.967368  0
H  H9  1  0.61487833  0.93964383  0.40752830  1  0.103732  0  0.118382  0.12243  0  0.987053  0
H  H10  1  0.97533231  0.69464378  0.21161195  1  0.675107  0  0.314846  0.390574  0  0.958687  0
H  H11  1  0.01392252  0.21484460  0.59295337  1  0.682553  0  0.316056  0.391652  0  0.956637  0
H  H12  1  0.93157833  0.59300865  0.69477857  1  0.683445  0  0.315422  0.391143  0  0.957643  0
C  C13  1  0.46975071  0.64677302  0.41096919  1  1.643639  0  0.279955  0.673344  0  4.075399  0
C  C14  1  0.51839361  0.41081044  0.44081885  1  1.607469  0  0.279762  0.672341  0  4.075729  0
C  C15  1  0.47211405  0.44163686  0.64590029  1  1.664183  0  0.278765  0.671995  0  4.079339  0
C  C16  1  0.50098258  0.75622052  0.35677200  1  -0.081797  0  0.009745  -0.012714  0  3.918538  0
C  C17  1  0.50358558  0.38546995  0.75558496  1  0.025373  0  0.008761  -0.013319  0  3.921674  0
C  C18  1  0.57036011  0.35542256  0.38580640  1  -0.042436  0  0.008842  -0.013602  0  3.91908  0
C  C19  1  0.50291270  0.81322257  0.25337100  1  -0.163466  0  -0.015541  -0.133039  0  3.965636  0
C  C20  1  0.54380718  0.91414033  0.20592408  1  0.014719  0  -0.065181  -0.093768  0  3.937675  0
C  C21  1  0.49347850  0.43131340  0.81325670  1  -0.18306  0  -0.015163  -0.133134  0  3.961267  0
C  C22  1  0.53585596  0.37630891  0.91453300  1  0.141286  0  -0.064729  -0.091691  0  3.93465  0
C  C23  1  0.57184259  0.25215116  0.43206345  1  -0.119349  0  -0.015244  -0.132382  0  3.961133  0
C  C24  1  0.60707413  0.20474660  0.37683989  1  0.038456  0  -0.065495  -0.093841  0  3.938596  0
C  C25  1  0.61265328  0.41005699  0.28310691  1  0.039545  0  -0.06945  -0.084356  0  3.919196  0
C  C26  1  0.64945634  0.36294488  0.22765662  1  -0.06832  0  -0.062738  -0.074477  0  3.924131  0
C  C27  1  0.55196819  0.28295709  0.80169267  1  -0.082878  0  -0.070085  -0.084105  0  3.918319  0
C  C28  1  0.59378388  0.22762145  0.90292473  1  -0.052448  0  -0.061078  -0.071967  0  3.92305  0
C  C29  1  0.54155960  0.80264204  0.41186593  1  0.088674  0  -0.069295  -0.083963  0  3.917137  0
C  C30  1  0.58560506  0.90341432  0.36474580  1  -0.06496  0  -0.062223  -0.073064  0  3.923844  0
C  C31  1  0.58667341  0.95989885  0.26142577  1  -0.003001  0  -0.002877  0.005103  0  3.964522  0
C  C32  1  0.61347862  0.06791802  0.21026439  1  1.156844  0  0.259257  0.38362  0  4.021336  0
C  C33  1  0.58769117  0.27398447  0.95996664  1  -0.107712  0  -0.002503  0.004368  0  3.964002  0
C  C34  1  0.61373980  0.21570747  0.06830613  1  1.109692  0  0.259194  0.385697  0  4.020691  0
C  C35  1  0.64296347  0.25990976  0.27408801  1  0.064957  0  -0.002775  0.006236  0  3.96488  0
C  C36  1  0.64396744  0.20917966  0.21592715  1  1.109754  0  0.259071  0.384359  0  4.020378  0
S  S37  1  0.41987228  0.76454350  0.17582715  1  3.144734  0  0.5595  1.189034  0  5.974404  0
S  S38  1  0.47701565  0.17556782  0.56014646  1  3.135527  0  0.559027  1.187819  0  5.973726  0
S  S39  1  0.37681317  0.55822389  0.76555563  1  3.142573  0  0.560108  1.189736  0  5.968587  0
N  N40  1  0.60127412  0.11739631  0.11125342  1  -1.214976  0  -0.305671  -0.407823  0  3.20601  0
N  N41  1  0.63659583  0.26513402  0.11728160  1  -1.239513  0  -0.306518  -0.41002  0  3.205767  0
N  N42  1  0.63694116  0.11029772  0.26581422  1  -1.185703  0  -0.305972  -0.408141  0  3.207939  0
O  O43  1  0.23797218  0.42364934  0.61191287  1  -1.247141  0  -0.224057  -0.585285  0  2.375063  0
O  O44  1  0.22090277  0.61405308  0.46246252  1  -1.244611  0  -0.224367  -0.582484  0  2.360745  0
O  O45  1  0.26655953  0.46381963  0.42235880  1  -1.244045  0  -0.225495  -0.586677  0  2.370924  0
O  O46  1  0.69214383  0.49939193  0.59743039  1  -1.25955  0  -0.238588  -0.604815  0  2.362774  0
O  O47  1  0.73521636  0.40187081  0.49774366  1  -1.248707  0  -0.236896  -0.600232  0  2.363595  0
O  O48  1  0.70466527  0.59728011  0.40197047  1  -1.258025  0  -0.237121  -0.603525  0  2.368907  0
O  O49  1  0.70181460  0.71584279  0.15945585  1  -1.304255  0  -0.311305  -0.538681  0  2.265333  0
O  O50  1  0.27058492  0.84160082  0.08959823  1  -1.287087  0  -0.300332  -0.507712  0  2.104293  0
O  O51  1  0.19988681  0.68069498  0.24275448  1  -1.28652  0  -0.337609  -0.538023  0  2.324087  0
O  O52  1  0.74397868  0.16057136  0.62130339  1  -1.306356  0  -0.310153  -0.540283  0  2.287684  0
O  O53  1  0.34267117  0.08869254  0.57219289  1  -1.279419  0  -0.298614  -0.505144  0  2.110816  0
O  O54  1  0.23980341  0.24293125  0.57999901  1  -1.293985  0  -0.339386  -0.537337  0  2.314773  0
O  O55  1  0.64258244  0.62159793  0.71927417  1  -1.313295  0  -0.310158  -0.539048  0  2.276318  0
O  O56  1  0.20923492  0.56712206  0.84275270  1  -1.276175  0  -0.300154  -0.507302  0  2.104729  0
O  O57  1  0.16670223  0.57837973  0.67944610  1  -1.293233  0  -0.338792  -0.537415  0  2.312311  0
