# generated using pymatgen
data_ZnH22C34(NO)4
_symmetry_space_group_name_H-M   'P 1'
_cell_length_a   11.74680875
_cell_length_b   11.74679851
_cell_length_c   12.44246436
_cell_angle_alpha   65.94145971
_cell_angle_beta   65.94185936
_cell_angle_gamma   67.28647367
_symmetry_Int_Tables_number   1
_chemical_formula_structural   ZnH22C34(NO)4
_chemical_formula_sum   'Zn2 H44 C68 N8 O8'
_cell_volume   1380.87025392
_cell_formula_units_Z   2
loop_
 _symmetry_equiv_pos_site_id
 _symmetry_equiv_pos_as_xyz
  1  'x, y, z'
loop_
 _atom_site_type_symbol
 _atom_site_label
 _atom_site_symmetry_multiplicity
 _atom_site_fract_x
 _atom_site_fract_y
 _atom_site_fract_z
 _atom_site_occupancy
 _atom_site_hle17_bader_spin_density
 _atom_site_hle17_ddec_charge
 _atom_site_hle17_ddec_spin_density
 _atom_site_hle17_ddec_sum_bond_order
 _atom_site_hle17_magmom
 _atom_site_hse06_10hf_bader_spin_density
 _atom_site_hse06_10hf_ddec_charge
 _atom_site_hse06_10hf_ddec_spin_density
 _atom_site_hse06_10hf_ddec_sum_bond_order
 _atom_site_hse06_10hf_magmom
 _atom_site_hse06_bader_spin_density
 _atom_site_hse06_ddec_charge
 _atom_site_hse06_ddec_spin_density
 _atom_site_hse06_ddec_sum_bond_order
 _atom_site_hse06_magmom
 _atom_site_pbe_bader_spin_density
 _atom_site_pbe_cm5_charge
 _atom_site_pbe_ddec_charge
 _atom_site_pbe_ddec_spin_density
 _atom_site_pbe_ddec_sum_bond_order
 _atom_site_pbe_magmom
Zn  Zn0  1  0.41748468  0.58251460  0.75000097  1  0  0.97986  0  1.899964  0  0  0.787914  0  2.381038  0  0  0.835363  0  2.326467  0  0  0.690813  0.755173  0  2.41789  0
Zn  Zn1  1  0.58251568  0.41748485  0.24999801  1  0  0.979817  0  1.899991  0  0  0.787859  0  2.381069  0  0  0.835297  0  2.326493  0  0  0.690795  0.755118  0  2.41792  0
H  H2  1  0.86840402  0.59681695  0.70461002  1  0  0.103732  0  0.947874  0  0  0.113189  0  1.011363  0  0  0.11698  0  1.008461  0  0  0.106115  0.110454  0  1.013452  0
H  H3  1  0.40318018  0.13159243  0.79539266  1  0  0.103718  0  0.947971  0  0  0.113177  0  1.011444  0  0  0.116967  0  1.008542  0  0  0.10612  0.110442  0  1.013534  0
H  H4  1  0.13159305  0.40318067  0.29539008  1  0  0.103734  0  0.947935  0  0  0.113206  0  1.011389  0  0  0.116995  0  1.00849  0  0  0.106143  0.110471  0  1.013478  0
H  H5  1  0.59681992  0.86840797  0.20460847  1  0  0.103727  0  0.947919  0  0  0.113191  0  1.011393  0  0  0.11698  0  1.008492  0  0  0.106129  0.110455  0  1.013482  0
H  H6  1  0.96147232  0.70661767  0.73446499  1  0  0.112308  0  0.947244  0  0  0.123084  0  1.005626  0  0  0.12588  0  1.0056  0  0  0.110105  0.121156  0  1.005814  0
H  H7  1  0.29337667  0.03852569  0.76553972  1  0  0.112322  0  0.947363  0  0  0.12309  0  1.005736  0  0  0.125884  0  1.005709  0  0  0.11012  0.121163  0  1.00592  0
H  H8  1  0.03852684  0.29337892  0.26553632  1  0  0.112329  0  0.947287  0  0  0.123085  0  1.005689  0  0  0.125878  0  1.005662  0  0  0.110098  0.121157  0  1.005876  0
H  H9  1  0.70662297  0.96147281  0.23446070  1  0  0.112302  0  0.947373  0  0  0.123087  0  1.005732  0  0  0.125881  0  1.005705  0  0  0.110109  0.121159  0  1.005919  0
H  H10  1  0.13318100  0.68513866  0.81129542  1  0  0.080099  0  0.991182  0  0  0.079643  0  1.067975  0  0  0.0835  0  1.064334  0  0  0.111233  0.076742  0  1.070744  0
H  H11  1  0.31485083  0.86681664  0.68871210  1  0  0.080045  0  0.991141  0  0  0.079595  0  1.067937  0  0  0.083452  0  1.064294  0  0  0.111189  0.0767  0  1.070702  0
H  H12  1  0.86681815  0.31485409  0.18870734  1  0  0.080119  0  0.991169  0  0  0.079671  0  1.067949  0  0  0.083528  0  1.064306  0  0  0.111227  0.076768  0  1.070719  0
H  H13  1  0.68515069  0.13318181  0.31128763  1  0  0.080066  0  0.991124  0  0  0.079611  0  1.067909  0  0  0.08347  0  1.064265  0  0  0.111199  0.07671  0  1.07068  0
H  H14  1  0.41981863  0.61136958  0.49339979  1  0  0.10606  0  0.926744  0  0  0.114991  0  0.987331  0  0  0.117998  0  0.983973  0  0  0.126392  0.112762  0  0.989877  0
H  H15  1  0.38863182  0.58017441  0.00660410  1  0  0.106032  0  0.926733  0  0  0.114911  0  0.98737  0  0  0.117917  0  0.984015  0  0  0.126344  0.112683  0  0.989916  0
H  H16  1  0.58017867  0.38862707  0.50660059  1  0  0.106039  0  0.926743  0  0  0.114932  0  0.987388  0  0  0.11794  0  0.984028  0  0  0.12635  0.112704  0  0.989934  0
H  H17  1  0.61137133  0.41982494  0.99339628  1  0  0.106028  0  0.926728  0  0  0.1149  0  0.987387  0  0  0.117907  0  0.98403  0  0  0.126349  0.112672  0  0.989933  0
H  H18  1  0.25928801  0.62749103  0.40512578  1  0  0.113055  0  0.952658  0  0  0.12456  0  1.010154  0  0  0.12751  0  1.009618  0  0  0.111026  0.122463  0  1.010607  0
H  H19  1  0.37250885  0.74070504  0.09487897  1  0  0.11309  0  0.952633  0  0  0.124575  0  1.010149  0  0  0.127519  0  1.00962  0  0  0.111033  0.122478  0  1.010604  0
H  H20  1  0.74070789  0.37250757  0.59487520  1  0  0.11308  0  0.952628  0  0  0.124595  0  1.010116  0  0  0.127538  0  1.009588  0  0  0.111027  0.122498  0  1.010571  0
H  H21  1  0.62749220  0.25929534  0.90512020  1  0  0.113078  0  0.952657  0  0  0.124546  0  1.010193  0  0  0.127504  0  1.009648  0  0  0.11104  0.122449  0  1.010648  0
H  H22  1  0.09722089  0.72502323  0.32617788  1  0  0.091424  0  0.954834  0  0  0.102984  0  1.018246  0  0  0.106116  0  1.015895  0  0  0.10238  0.100683  0  1.020098  0
H  H23  1  0.27497408  0.90277693  0.17382607  1  0  0.091459  0  0.954839  0  0  0.103029  0  1.018238  0  0  0.106162  0  1.015887  0  0  0.10241  0.100728  0  1.02009  0
H  H24  1  0.90277781  0.27497529  0.67382368  1  0  0.091432  0  0.954783  0  0  0.102979  0  1.018214  0  0  0.106113  0  1.015863  0  0  0.102395  0.100678  0  1.020065  0
H  H25  1  0.72502531  0.09722635  0.82617585  1  0  0.09144  0  0.954867  0  0  0.103018  0  1.018255  0  0  0.106151  0  1.015904  0  0  0.102382  0.100716  0  1.020106  0
H  H26  1  0.72802603  0.66116457  0.41177296  1  0  0.114174  0  0.941543  0  0  0.122651  0  1.005861  0  0  0.12657  0  1.002807  0  0  0.108639  0.119679  0  1.008249  0
H  H27  1  0.33883716  0.27197199  0.08822649  1  0  0.114104  0  0.941536  0  0  0.122552  0  1.005902  0  0  0.126471  0  1.002851  0  0  0.108603  0.119603  0  1.008264  0
H  H28  1  0.27197434  0.33883489  0.58822441  1  0  0.114084  0  0.941549  0  0  0.122533  0  1.005917  0  0  0.126453  0  1.002866  0  0  0.108574  0.119581  0  1.008284  0
H  H29  1  0.66116226  0.72803131  0.91177301  1  0  0.114083  0  0.94145  0  0  0.122537  0  1.00582  0  0  0.126457  0  1.002768  0  0  0.108576  0.119581  0  1.008191  0
H  H30  1  0.03764593  0.87254909  0.15435412  1  0  0.097809  0  0.952482  0  0  0.109658  0  1.011945  0  0  0.112766  0  1.010984  0  0  0.102582  0.107459  0  1.012679  0
H  H31  1  0.12745207  0.96235221  0.34564845  1  0  0.097847  0  0.952445  0  0  0.109698  0  1.011904  0  0  0.112806  0  1.01094  0  0  0.102604  0.107497  0  1.012639  0
H  H32  1  0.96235438  0.12745032  0.84564891  1  0  0.097835  0  0.952506  0  0  0.109677  0  1.011977  0  0  0.112784  0  1.011017  0  0  0.102611  0.107477  0  1.012711  0
H  H33  1  0.87255248  0.03764902  0.65435149  1  0  0.097823  0  0.952502  0  0  0.109682  0  1.011952  0  0  0.112791  0  1.010989  0  0  0.102602  0.107482  0  1.012686  0
H  H34  1  0.07749781  0.90234007  0.93410121  1  0  0.057449  0  0.970759  0  0  0.06615  0  1.037272  0  0  0.067732  0  1.037176  0  0  0.10256  0.065011  0  1.037322  0
H  H35  1  0.09766449  0.92250045  0.56589959  1  0  0.057524  0  0.970673  0  0  0.066196  0  1.037226  0  0  0.067784  0  1.037116  0  0  0.10258  0.065057  0  1.037277  0
H  H36  1  0.92249971  0.09766327  0.06590059  1  0  0.057493  0  0.970679  0  0  0.066166  0  1.037234  0  0  0.067753  0  1.037126  0  0  0.102563  0.065026  0  1.037289  0
H  H37  1  0.90233725  0.07750469  0.43410075  1  0  0.057465  0  0.97074  0  0  0.066167  0  1.037273  0  0  0.067749  0  1.037181  0  0  0.102545  0.065026  0  1.037324  0
H  H38  1  0.90053303  0.61901190  0.02146817  1  0  0.06851  0  0.928332  0  0  0.079098  0  0.987206  0  0  0.08151  0  0.985593  0  0  0.109203  0.077389  0  0.98825  0
H  H39  1  0.38099255  0.09946766  0.47852586  1  0  0.068507  0  0.928293  0  0  0.079102  0  0.987163  0  0  0.081515  0  0.98555  0  0  0.109204  0.077394  0  0.988207  0
H  H40  1  0.09946524  0.38099242  0.97852816  1  0  0.068497  0  0.928339  0  0  0.079117  0  0.987181  0  0  0.081533  0  0.985567  0  0  0.109209  0.077409  0  0.988226  0
H  H41  1  0.61901042  0.90054036  0.52146892  1  0  0.068527  0  0.928313  0  0  0.079137  0  0.987162  0  0  0.081554  0  0.985548  0  0  0.109223  0.077429  0  0.988207  0
H  H42  1  0.84745805  0.58101510  0.24558400  1  0  0.102619  0  0.974018  0  0  0.111944  0  1.036827  0  0  0.114055  0  1.03843  0  0  0.101949  0.110446  0  1.03582  0
H  H43  1  0.41898611  0.15254132  0.25441169  1  0  0.102663  0  0.974012  0  0  0.111987  0  1.036811  0  0  0.114097  0  1.038413  0  0  0.101981  0.11049  0  1.035804  0
H  H44  1  0.15253998  0.41898635  0.75441350  1  0  0.102635  0  0.974019  0  0  0.111967  0  1.036812  0  0  0.114077  0  1.038414  0  0  0.101965  0.11047  0  1.035804  0
H  H45  1  0.58101473  0.84746387  0.74558575  1  0  0.102656  0  0.974017  0  0  0.111993  0  1.03681  0  0  0.114102  0  1.038413  0  0  0.101975  0.1105  0  1.03579  0
C  C46  1  0.66791662  0.59056542  0.66113709  1  0  0.619896  0  3.956528  0  0  0.572675  0  4.249539  0  0  0.606299  0  4.243112  0  0  0.19198  0.550005  0  4.252973  0
C  C47  1  0.40943756  0.33207961  0.83886371  1  0  0.619898  0  3.956555  0  0  0.572675  0  4.249558  0  0  0.606298  0  4.243132  0  0  0.191948  0.550003  0  4.252993  0
C  C48  1  0.33208092  0.40943409  0.33886373  1  0  0.619883  0  3.956563  0  0  0.572652  0  4.249587  0  0  0.606275  0  4.243161  0  0  0.191937  0.549982  0  4.253023  0
C  C49  1  0.59056162  0.66792082  0.16113615  1  0  0.619847  0  3.956596  0  0  0.572633  0  4.249586  0  0  0.606256  0  4.24316  0  0  0.191931  0.54996  0  4.253023  0
C  C50  1  0.78778082  0.62724349  0.56635803  1  0  -0.058413  0  3.78771  0  0  -0.032323  0  4.021991  0  0  -0.041331  0  4.046668  0  0  -0.018088  -0.026803  0  4.005408  0
C  C51  1  0.37275876  0.21221485  0.93364189  1  0  -0.05852  0  3.787698  0  0  -0.03245  0  4.022012  0  0  -0.04146  0  4.046689  0  0  -0.01815  -0.026929  0  4.005434  0
C  C52  1  0.21221860  0.37275599  0.43364048  1  0  -0.058377  0  3.787543  0  0  -0.032282  0  4.021812  0  0  -0.041289  0  4.046489  0  0  -0.018034  -0.026761  0  4.005233  0
C  C53  1  0.62723947  0.78778559  0.06635994  1  0  -0.058464  0  3.787611  0  0  -0.032388  0  4.021909  0  0  -0.041399  0  4.046587  0  0  -0.018126  -0.026863  0  4.005327  0
C  C54  1  0.88281124  0.62825419  0.60562842  1  0  -0.09199  0  3.685895  0  0  -0.126503  0  3.933629  0  0  -0.12599  0  3.953824  0  0  -0.074201  -0.126176  0  3.919545  0
C  C55  1  0.37174622  0.11718389  0.89437187  1  0  -0.091973  0  3.685826  0  0  -0.126507  0  3.933534  0  0  -0.125995  0  3.95374  0  0  -0.074229  -0.126178  0  3.91945  0
C  C56  1  0.11718536  0.37174537  0.39437113  1  0  -0.092027  0  3.68592  0  0  -0.12657  0  3.933644  0  0  -0.126058  0  3.953841  0  0  -0.07425  -0.126244  0  3.919558  0
C  C57  1  0.62825178  0.88281752  0.10562887  1  0  -0.09197  0  3.685783  0  0  -0.126498  0  3.933514  0  0  -0.125986  0  3.953718  0  0  -0.074233  -0.126171  0  3.919432  0
C  C58  1  0.99407231  0.66603563  0.51999587  1  0  0.036798  0  3.787236  0  0  0.055079  0  4.023472  0  0  0.051961  0  4.047997  0  0  -0.009555  0.05696  0  4.006666  0
C  C59  1  0.33396340  0.00592441  0.98000697  1  0  0.036836  0  3.787054  0  0  0.055179  0  4.023184  0  0  0.052059  0  4.047708  0  0  -0.009549  0.057056  0  4.006378  0
C  C60  1  0.00592686  0.33396480  0.48000399  1  0  0.036876  0  3.787212  0  0  0.055207  0  4.023334  0  0  0.052088  0  4.04786  0  0  -0.00951  0.057087  0  4.006526  0
C  C61  1  0.66603461  0.99407701  0.01999296  1  0  0.03689  0  3.787101  0  0  0.055197  0  4.023267  0  0  0.052078  0  4.04779  0  0  -0.009499  0.057075  0  4.00646  0
C  C62  1  0.09413991  0.66489392  0.56340114  1  0  0.106194  0  3.761107  0  0  0.115022  0  3.99372  0  0  0.121061  0  4.015501  0  0  0.016488  0.111171  0  3.978659  0
C  C63  1  0.33510477  0.90585368  0.93660438  1  0  0.106293  0  3.760978  0  0  0.11511  0  3.993547  0  0  0.12115  0  4.015325  0  0  0.016508  0.111265  0  3.978478  0
C  C64  1  0.90585646  0.33510660  0.43659894  1  0  0.106229  0  3.761142  0  0  0.115098  0  3.993657  0  0  0.121138  0  4.015434  0  0  0.016496  0.111249  0  3.978592  0
C  C65  1  0.66489322  0.09414773  0.06339717  1  0  0.106253  0  3.761039  0  0  0.1151  0  3.993589  0  0  0.121136  0  4.015374  0  0  0.016486  0.111255  0  3.978517  0
C  C66  1  0.06170496  0.68300030  0.67833719  1  0  -0.170615  0  3.720621  0  0  -0.18677  0  3.968914  0  0  -0.194786  0  3.988996  0  0  -0.083062  -0.181862  0  3.95566  0
C  C67  1  0.31699698  0.93829028  0.82166889  1  0  -0.170733  0  3.720632  0  0  -0.186895  0  3.968926  0  0  -0.194904  0  3.989002  0  0  -0.083081  -0.181988  0  3.955675  0
C  C68  1  0.93829162  0.31699923  0.32166560  1  0  -0.170719  0  3.720683  0  0  -0.186883  0  3.968972  0  0  -0.194894  0  3.989048  0  0  -0.083117  -0.181975  0  3.955717  0
C  C69  1  0.68300265  0.06170821  0.17833233  1  0  -0.170678  0  3.720652  0  0  -0.186861  0  3.968923  0  0  -0.194871  0  3.989002  0  0  -0.083075  -0.181954  0  3.955668  0
C  C70  1  0.15828836  0.67081446  0.72211307  1  0  0.120357  0  3.715156  0  0  0.09101  0  3.966192  0  0  0.098402  0  3.982603  0  0  0.042594  0.086249  0  3.95533  0
C  C71  1  0.32917991  0.84170644  0.77789379  1  0  0.120515  0  3.714882  0  0  0.091164  0  3.965908  0  0  0.098556  0  3.982318  0  0  0.042739  0.086396  0  3.955045  0
C  C72  1  0.84170821  0.32918123  0.27789036  1  0  0.120338  0  3.715074  0  0  0.090986  0  3.966107  0  0  0.098376  0  3.982517  0  0  0.042676  0.086225  0  3.955246  0
C  C73  1  0.67082067  0.15829204  0.22210628  1  0  0.1204  0  3.714928  0  0  0.091061  0  3.965934  0  0  0.09845  0  3.982345  0  0  0.042688  0.086298  0  3.955076  0
C  C74  1  0.31739551  0.63112740  0.54474700  1  0  0.155665  0  3.652982  0  0  0.122046  0  3.904529  0  0  0.13118  0  3.92012  0  0  0.05909  0.116134  0  3.893405  0
C  C75  1  0.36886972  0.68259901  0.95525952  1  0  0.155569  0  3.652955  0  0  0.122006  0  3.904488  0  0  0.131141  0  3.920076  0  0  0.059101  0.116092  0  3.893368  0
C  C76  1  0.68260084  0.36886926  0.45525535  1  0  0.155656  0  3.652799  0  0  0.122061  0  3.90435  0  0  0.131195  0  3.919936  0  0  0.059156  0.116147  0  3.893228  0
C  C77  1  0.63113132  0.31740137  0.04474046  1  0  0.155623  0  3.652873  0  0  0.122044  0  3.904411  0  0  0.131177  0  3.920001  0  0  0.059127  0.11613  0  3.89329  0
C  C78  1  0.22561539  0.64220834  0.49511636  1  0  -0.158362  0  3.688121  0  0  -0.177092  0  3.939687  0  0  -0.185855  0  3.961231  0  0  -0.077633  -0.171032  0  3.924331  0
C  C79  1  0.35779031  0.77437956  0.00488879  1  0  -0.158461  0  3.688143  0  0  -0.177174  0  3.939661  0  0  -0.185931  0  3.961206  0  0  -0.077677  -0.171118  0  3.924308  0
C  C80  1  0.77438308  0.35779115  0.50488412  1  0  -0.158445  0  3.688092  0  0  -0.177208  0  3.939646  0  0  -0.185966  0  3.961193  0  0  -0.077687  -0.17115  0  3.92429  0
C  C81  1  0.64221026  0.22561892  0.99511128  1  0  -0.158432  0  3.688133  0  0  -0.177129  0  3.939642  0  0  -0.185895  0  3.961184  0  0  -0.077669  -0.171072  0  3.924287  0
C  C82  1  0.00956408  0.69919322  0.39405119  1  0  -0.114886  0  3.67307  0  0  -0.14767  0  3.922294  0  0  -0.147827  0  3.9409  0  0  -0.076002  -0.147518  0  3.909865  0
C  C83  1  0.30080584  0.99043308  0.10594977  1  0  -0.114908  0  3.673144  0  0  -0.147756  0  3.922291  0  0  -0.147913  0  3.940896  0  0  -0.07601  -0.147602  0  3.909862  0
C  C84  1  0.99043510  0.30080721  0.60594867  1  0  -0.114909  0  3.67307  0  0  -0.147722  0  3.922263  0  0  -0.147878  0  3.940868  0  0  -0.076029  -0.147568  0  3.909832  0
C  C85  1  0.69919287  0.00956928  0.89405035  1  0  -0.114975  0  3.673261  0  0  -0.147793  0  3.922463  0  0  -0.147951  0  3.941068  0  0  -0.076036  -0.147638  0  3.910032  0
C  C86  1  0.91642341  0.69575635  0.35314973  1  0  0.044885  0  3.788256  0  0  0.063038  0  4.025412  0  0  0.06089  0  4.04855  0  0  -0.00585  0.064315  0  4.009754  0
C  C87  1  0.30424506  0.08357544  0.14684756  1  0  0.044758  0  3.788475  0  0  0.06304  0  4.025449  0  0  0.060896  0  4.048585  0  0  -0.005854  0.064317  0  4.009795  0
C  C88  1  0.08357695  0.30424310  0.64684844  1  0  0.044875  0  3.788314  0  0  0.06309  0  4.02538  0  0  0.060942  0  4.048518  0  0  -0.005815  0.064366  0  4.009726  0
C  C89  1  0.69575624  0.91642782  0.85315044  1  0  0.044846  0  3.788356  0  0  0.063049  0  4.025469  0  0  0.060904  0  4.048605  0  0  -0.005819  0.064325  0  4.009815  0
C  C90  1  0.80414238  0.66141019  0.44046514  1  0  -0.101446  0  3.672702  0  0  -0.137054  0  3.923774  0  0  -0.136101  0  3.941959  0  0  -0.077041  -0.137418  0  3.911528  0
C  C91  1  0.33859243  0.19585470  0.05953454  1  0  -0.101272  0  3.672724  0  0  -0.136889  0  3.923744  0  0  -0.135938  0  3.941931  0  0  -0.076989  -0.137273  0  3.911491  0
C  C92  1  0.19585705  0.33858929  0.55953337  1  0  -0.101367  0  3.672621  0  0  -0.136975  0  3.92368  0  0  -0.136023  0  3.941867  0  0  -0.077048  -0.137355  0  3.911428  0
C  C93  1  0.66140699  0.80414860  0.94046495  1  0  -0.101342  0  3.672509  0  0  -0.136945  0  3.923574  0  0  -0.135994  0  3.941764  0  0  -0.076998  -0.137324  0  3.911326  0
C  C94  1  0.93932580  0.72246579  0.22041062  1  0  0.097355  0  3.776559  0  0  0.109005  0  4.003476  0  0  0.113094  0  4.026379  0  0  0.008137  0.106561  0  3.987854  0
C  C95  1  0.27753471  0.06067337  0.27959010  1  0  0.097374  0  3.776491  0  0  0.10897  0  4.003406  0  0  0.11306  0  4.026308  0  0  0.008116  0.106527  0  3.987783  0
C  C96  1  0.06067549  0.27753362  0.77958883  1  0  0.097323  0  3.77654  0  0  0.10894  0  4.003473  0  0  0.113033  0  4.026373  0  0  0.008121  0.106497  0  3.987851  0
C  C97  1  0.72246447  0.93932706  0.72040976  1  0  0.097387  0  3.776494  0  0  0.108974  0  4.003485  0  0  0.113066  0  4.026382  0  0  0.008108  0.106531  0  3.987863  0
C  C98  1  0.00495754  0.81406249  0.12945100  1  0  -0.173899  0  3.729972  0  0  -0.190731  0  3.976002  0  0  -0.19845  0  3.998116  0  0  -0.090523  -0.185793  0  3.960772  0
C  C99  1  0.18593815  0.99503992  0.37055211  1  0  -0.173863  0  3.72986  0  0  -0.19069  0  3.975885  0  0  -0.198409  0  3.997998  0  0  -0.090502  -0.185753  0  3.960653  0
C  C100  1  0.99504324  0.18593500  0.87055178  1  0  -0.173912  0  3.729987  0  0  -0.190739  0  3.976033  0  0  -0.19846  0  3.998147  0  0  -0.090538  -0.185801  0  3.960802  0
C  C101  1  0.81406569  0.00495653  0.62944910  1  0  -0.173959  0  3.729931  0  0  -0.190787  0  3.975974  0  0  -0.198508  0  3.998089  0  0  -0.090546  -0.185849  0  3.960741  0
C  C102  1  0.02727128  0.83085819  0.00581126  1  0  0.115927  0  3.767519  0  0  0.090628  0  4.027392  0  0  0.096235  0  4.046141  0  0  0.032561  0.087167  0  4.014125  0
C  C103  1  0.16914413  0.97272824  0.49419045  1  0  0.115755  0  3.767359  0  0  0.090468  0  4.027242  0  0  0.096077  0  4.045991  0  0  0.032455  0.087007  0  4.013973  0
C  C104  1  0.97272881  0.16914219  0.99419068  1  0  0.115866  0  3.767308  0  0  0.090587  0  4.027187  0  0  0.096196  0  4.045938  0  0  0.032517  0.087125  0  4.013919  0
C  C105  1  0.83086137  0.02727297  0.50580834  1  0  0.115914  0  3.767556  0  0  0.090611  0  4.027451  0  0  0.096216  0  4.046199  0  0  0.03255  0.08715  0  4.014181  0
C  C106  1  0.92899670  0.67473178  0.05384432  1  0  0.118885  0  3.765095  0  0  0.095195  0  4.022081  0  0  0.100734  0  4.040321  0  0  0.039927  0.091664  0  4.00942  0
C  C107  1  0.32527215  0.07100189  0.44615302  1  0  0.1189  0  3.765129  0  0  0.095198  0  4.022122  0  0  0.100737  0  4.040363  0  0  0.039908  0.091666  0  4.009462  0
C  C108  1  0.07100202  0.32527059  0.94615499  1  0  0.118907  0  3.76515  0  0  0.09519  0  4.022144  0  0  0.100728  0  4.040388  0  0  0.039914  0.091659  0  4.009483  0
C  C109  1  0.67473218  0.92900031  0.55384584  1  0  0.118895  0  3.765083  0  0  0.09519  0  4.022065  0  0  0.100723  0  4.04031  0  0  0.039929  0.091659  0  4.009404  0
C  C110  1  0.89925303  0.65310797  0.17973964  1  0  -0.164765  0  3.714632  0  0  -0.180636  0  3.956739  0  0  -0.1885  0  3.979813  0  0  -0.087192  -0.175519  0  3.941111  0
C  C111  1  0.34689395  0.10074528  0.32025934  1  0  -0.164841  0  3.714728  0  0  -0.180709  0  3.956846  0  0  -0.188574  0  3.97992  0  0  -0.087218  -0.175595  0  3.94122  0
C  C112  1  0.10074614  0.34689246  0.82026022  1  0  -0.16476  0  3.714715  0  0  -0.180635  0  3.956836  0  0  -0.1885  0  3.97991  0  0  -0.087209  -0.17552  0  3.941209  0
C  C113  1  0.65310968  0.89925598  0.67974014  1  0  -0.164795  0  3.714758  0  0  -0.180665  0  3.956885  0  0  -0.18853  0  3.97996  0  0  -0.087213  -0.175549  0  3.941263  0
N  N114  1  0.28460160  0.64247443  0.65784245  1  0  -0.340648  0  3.30652  0  0  -0.255206  0  3.581789  0  0  -0.27511  0  3.596453  0  0  -0.335568  -0.241915  0  3.571642  0
N  N115  1  0.35752234  0.71539283  0.84216249  1  0  -0.340515  0  3.306303  0  0  -0.255068  0  3.581519  0  0  -0.274973  0  3.596186  0  0  -0.335604  -0.241776  0  3.571371  0
N  N116  1  0.71539687  0.35752123  0.34215787  1  0  -0.340492  0  3.306322  0  0  -0.255042  0  3.581575  0  0  -0.274942  0  3.596234  0  0  -0.33557  -0.241751  0  3.571426  0
N  N117  1  0.64247917  0.28460562  0.15783723  1  0  -0.340498  0  3.306303  0  0  -0.255037  0  3.5815  0  0  -0.274937  0  3.596162  0  0  -0.335597  -0.241744  0  3.571348  0
N  N118  1  0.99189017  0.76218774  0.96671766  1  0  -0.320464  0  3.09043  0  0  -0.280137  0  3.355078  0  0  -0.291785  0  3.370707  0  0  -0.325736  -0.272019  0  3.344115  0
N  N119  1  0.23781705  0.00811045  0.53328045  1  0  -0.320395  0  3.090325  0  0  -0.280064  0  3.354969  0  0  -0.291714  0  3.3706  0  0  -0.32568  -0.271947  0  3.344007  0
N  N120  1  0.00810923  0.23781554  0.03328346  1  0  -0.320449  0  3.090278  0  0  -0.280124  0  3.354936  0  0  -0.291775  0  3.370568  0  0  -0.325705  -0.272006  0  3.343972  0
N  N121  1  0.76218822  0.99189173  0.46671806  1  0  -0.320445  0  3.090436  0  0  -0.280122  0  3.355098  0  0  -0.29177  0  3.370728  0  0  -0.325715  -0.272003  0  3.344134  0
O  O122  1  0.57494743  0.61502033  0.61706118  1  0  -0.646067  0  2.036947  0  0  -0.573228  0  2.307898  0  0  -0.602334  0  2.292889  0  0  -0.338668  -0.552778  0  2.317272  0
O  O123  1  0.38498686  0.42504824  0.88293870  1  0  -0.64605  0  2.037004  0  0  -0.573182  0  2.30791  0  0  -0.602294  0  2.292917  0  0  -0.338612  -0.552733  0  2.317288  0
O  O124  1  0.42505129  0.38498204  0.38293812  1  0  -0.646077  0  2.037019  0  0  -0.573208  0  2.307922  0  0  -0.602317  0  2.292926  0  0  -0.338632  -0.552759  0  2.317301  0
O  O125  1  0.61501397  0.57495311  0.11705939  1  0  -0.646038  0  2.037043  0  0  -0.573164  0  2.30793  0  0  -0.602272  0  2.29293  0  0  -0.338607  -0.552715  0  2.317307  0
O  O126  1  0.66212236  0.54167341  0.77267526  1  0  -0.611607  0  1.880652  0  0  -0.568284  0  2.096512  0  0  -0.59011  0  2.087413  0  0  -0.329238  -0.553248  0  2.102363  0
O  O127  1  0.45832375  0.33787593  0.72732467  1  0  -0.61159  0  1.880604  0  0  -0.568282  0  2.096484  0  0  -0.590108  0  2.087387  0  0  -0.329224  -0.553246  0  2.102335  0
O  O128  1  0.33787729  0.45832510  0.22732353  1  0  -0.611594  0  1.880583  0  0  -0.568282  0  2.096452  0  0  -0.590106  0  2.087355  0  0  -0.329225  -0.553245  0  2.102304  0
O  O129  1  0.54167589  0.66212257  0.27267575  1  0  -0.611559  0  1.880599  0  0  -0.568261  0  2.096474  0  0  -0.590085  0  2.087377  0  0  -0.329217  -0.553225  0  2.102325  0
