# generated using pymatgen
data_SnH16C11O6
_symmetry_space_group_name_H-M   'P 1'
_cell_length_a   8.21362654
_cell_length_b   10.21776173
_cell_length_c   15.98636305
_cell_angle_alpha   90.00015888
_cell_angle_beta   89.99999337
_cell_angle_gamma   102.78501062
_symmetry_Int_Tables_number   1
_chemical_formula_structural   SnH16C11O6
_chemical_formula_sum   'Sn4 H64 C44 O24'
_cell_volume   1308.39034341
_cell_formula_units_Z   4
loop_
 _symmetry_equiv_pos_site_id
 _symmetry_equiv_pos_as_xyz
  1  'x, y, z'
loop_
 _atom_site_type_symbol
 _atom_site_label
 _atom_site_symmetry_multiplicity
 _atom_site_fract_x
 _atom_site_fract_y
 _atom_site_fract_z
 _atom_site_occupancy
 _atom_site_pbe_bader_spin_density
 _atom_site_pbe_cm5_charge
 _atom_site_pbe_ddec_charge
 _atom_site_pbe_ddec_spin_density
 _atom_site_pbe_ddec_sum_bond_order
 _atom_site_pbe_magmom
Sn  Sn0  1  0.17887854  0.14810444  0.00392284  1  0  0.622441  1.309745  0  3.273528  0
Sn  Sn1  1  0.82112317  0.85189481  0.50392147  1  0  0.622435  1.309752  0  3.273555  0
Sn  Sn2  1  0.95901548  0.41995325  0.14677669  1  0  0.624617  1.317188  0  3.269076  0
Sn  Sn3  1  0.04098504  0.58005065  0.64677739  1  0  0.62462  1.317219  0  3.269055  0
H  H4  1  0.95297389  0.78610572  0.98701065  1  0  0.30884  0.366565  0  0.970439  0
H  H5  1  0.04701586  0.21389470  0.48700777  1  0  0.308817  0.366509  0  0.970505  0
H  H6  1  0.30072414  0.53805133  0.85073430  1  0  0.110373  0.113483  0  0.978121  0
H  H7  1  0.69926897  0.46194346  0.35073620  1  0  0.110372  0.113414  0  0.978139  0
H  H8  1  0.11417980  0.63148149  0.94513172  1  0  0.095864  0.094843  0  0.992852  0
H  H9  1  0.88581408  0.36851173  0.44513156  1  0  0.095892  0.094835  0  0.992895  0
H  H10  1  0.26814925  0.66103331  0.02411613  1  0  0.092975  0.093128  0  1.008312  0
H  H11  1  0.73184570  0.33895899  0.52411636  1  0  0.092961  0.093143  0  1.008246  0
H  H12  1  0.29565311  0.79132221  0.85050183  1  0  0.109614  0.107421  0  0.994724  0
H  H13  1  0.70433757  0.20867258  0.35050015  1  0  0.109594  0.107431  0  0.994689  0
H  H14  1  0.54912661  0.84094588  0.99434321  1  0  0.091818  0.090491  0  0.995301  0
H  H15  1  0.45086936  0.15905057  0.49434396  1  0  0.091845  0.090499  0  0.995278  0
H  H16  1  0.56785598  0.92834810  0.89765525  1  0  0.097902  0.104087  0  0.98744  0
H  H17  1  0.43213475  0.07164690  0.39765585  1  0  0.097902  0.104106  0  0.987364  0
H  H18  1  0.57148044  0.71718484  0.82113110  1  0  0.105913  0.094674  0  0.957405  0
H  H19  1  0.42851468  0.28281283  0.32113269  1  0  0.105894  0.094711  0  0.957426  0
H  H20  1  0.55269591  0.58824071  0.99514805  1  0  0.092517  0.090177  0  0.999924  0
H  H21  1  0.44729951  0.41175374  0.49515050  1  0  0.092556  0.090244  0  0.999919  0
H  H22  1  0.57457187  0.50561566  0.89970913  1  0  0.097533  0.103236  0  0.982418  0
H  H23  1  0.42542306  0.49438137  0.39971298  1  0  0.097518  0.103149  0  0.982355  0
H  H24  1  0.85061213  0.05859609  0.98479000  1  0  0.093077  0.180859  0  1.031414  0
H  H25  1  0.14939074  0.94140334  0.48478901  1  0  0.093067  0.180848  0  1.031383  0
H  H26  1  0.95449603  0.03782619  0.88875125  1  0  0.094233  0.187658  0  1.046424  0
H  H27  1  0.04550769  0.96217181  0.38875093  1  0  0.094223  0.187621  0  1.046486  0
H  H28  1  0.91933241  0.19989352  0.91639433  1  0  0.097206  0.197224  0  1.027434  0
H  H29  1  0.08067039  0.80010560  0.41639310  1  0  0.097162  0.197158  0  1.02747  0
H  H30  1  0.35611546  0.26663891  0.13478948  1  0  0.095394  0.183986  0  1.034894  0
H  H31  1  0.64389966  0.73336497  0.63479104  1  0  0.095409  0.184006  0  1.034931  0
H  H32  1  0.46389283  0.15305967  0.08378716  1  0  0.095651  0.182158  0  1.025221  0
H  H33  1  0.53611343  0.84694296  0.58379205  1  0  0.095663  0.182182  0  1.025121  0
H  H34  1  0.29274177  0.08916321  0.15348776  1  0  0.096242  0.18479  0  1.037699  0
H  H35  1  0.70727675  0.91083976  0.65348838  1  0  0.096249  0.184817  0  1.037654  0
H  H36  1  0.18128659  0.77814218  0.14770344  1  0  0.310042  0.366524  0  0.963645  0
H  H37  1  0.81871432  0.22185873  0.64770534  1  0  0.310032  0.366515  0  0.963617  0
H  H38  1  0.82659339  0.77218446  0.29535927  1  0  0.110507  0.10457  0  0.978112  0
H  H39  1  0.17341093  0.22782014  0.79535996  1  0  0.11052  0.10459  0  0.978171  0
H  H40  1  0.02228454  0.93305232  0.20446696  1  0  0.096546  0.098919  0  0.991822  0
H  H41  1  0.97771725  0.06695185  0.70446796  1  0  0.096517  0.098893  0  0.991765  0
H  H42  1  0.87730379  0.90253970  0.12116842  1  0  0.094359  0.096092  0  1.002534  0
H  H43  1  0.12269764  0.09746309  0.62117014  1  0  0.094381  0.096086  0  1.002531  0
H  H44  1  0.82423880  0.02361351  0.29232915  1  0  0.109501  0.100347  0  0.989212  0
H  H45  1  0.17576254  0.97638906  0.79232991  1  0  0.109518  0.100387  0  0.98916  0
H  H46  1  0.55755854  0.05808363  0.23536689  1  0  0.095579  0.096951  0  0.993422  0
H  H47  1  0.44244152  0.94191868  0.73536820  1  0  0.095598  0.096981  0  0.993459  0
H  H48  1  0.58958230  0.97605839  0.14116366  1  0  0.091728  0.090134  0  0.994713  0
H  H49  1  0.41041793  0.02394449  0.64116523  1  0  0.091721  0.090094  0  0.994741  0
H  H50  1  0.55561815  0.84806675  0.31565914  1  0  0.10739  0.10687  0  0.99524  0
H  H51  1  0.44438470  0.15193693  0.81566094  1  0  0.107413  0.106878  0  0.995216  0
H  H52  1  0.59294172  0.72268980  0.14428547  1  0  0.090144  0.087215  0  0.996232  0
H  H53  1  0.40706285  0.27731109  0.64428686  1  0  0.090157  0.087221  0  0.996312  0
H  H54  1  0.56461050  0.63655018  0.24186857  1  0  0.095947  0.099026  0  0.997452  0
H  H55  1  0.43539349  0.36345316  0.74187011  1  0  0.095958  0.099027  0  0.997418  0
H  H56  1  0.18451050  0.52901935  0.26099228  1  0  0.09572  0.191498  0  1.033092  0
H  H57  1  0.81549120  0.47098007  0.76099274  1  0  0.095714  0.191503  0  1.033089  0
H  H58  1  0.28973597  0.50125710  0.16622148  1  0  0.09184  0.178264  0  1.037396  0
H  H59  1  0.71026442  0.49874188  0.66622325  1  0  0.091815  0.178249  0  1.03739  0
H  H60  1  0.20801370  0.36179117  0.23541033  1  0  0.092826  0.182178  0  1.06027  0
H  H61  1  0.79198432  0.63820813  0.73541234  1  0  0.092846  0.182196  0  1.060241  0
H  H62  1  0.85178889  0.47349477  0.99422090  1  0  0.095522  0.185267  0  1.033351  0
H  H63  1  0.14821006  0.52650369  0.49422169  1  0  0.095542  0.185292  0  1.033317  0
H  H64  1  0.67904309  0.42416368  0.06470926  1  0  0.095193  0.180095  0  1.025293  0
H  H65  1  0.32095707  0.57583885  0.56471055  1  0  0.095197  0.180098  0  1.025297  0
H  H66  1  0.77395540  0.29889454  0.01815509  1  0  0.097239  0.188805  0  1.025837  0
H  H67  1  0.22604295  0.70110577  0.51815536  1  0  0.097254  0.188831  0  1.025807  0
C  C68  1  0.32966059  0.54879971  0.91817429  1  0  -0.086436  -0.116896  0  3.87167  0
C  C69  1  0.67033409  0.45119640  0.41817617  1  0  -0.086515  -0.116893  0  3.871646  0
C  C70  1  0.24963600  0.65708150  0.95594095  1  0  -0.162744  -0.174787  0  3.903022  0
C  C71  1  0.75035911  0.34291177  0.45594076  1  0  -0.162749  -0.174802  0  3.903064  0
C  C72  1  0.32573813  0.79461545  0.91797246  1  0  -0.086469  -0.116788  0  3.867678  0
C  C73  1  0.67425505  0.20537965  0.41797140  1  0  -0.08649  -0.116853  0  3.867834  0
C  C74  1  0.51696715  0.83095634  0.92733359  1  0  -0.156034  -0.177495  0  3.879329  0
C  C75  1  0.48302726  0.16903880  0.42733498  1  0  -0.15606  -0.177471  0  3.879379  0
C  C76  1  0.59559830  0.72126853  0.88897517  1  0  -0.086107  -0.113499  0  3.886318  0
C  C77  1  0.40439689  0.27872945  0.38897551  1  0  -0.086168  -0.113761  0  3.886544  0
C  C78  1  0.52089033  0.58443247  0.92814469  1  0  -0.157635  -0.177043  0  3.892897  0
C  C79  1  0.47910584  0.41556468  0.42814777  1  0  -0.157532  -0.176841  0  3.892782  0
C  C80  1  0.26402838  0.41170202  0.95574932  1  0  0.237615  0.599623  0  4.070343  0
C  C81  1  0.73597336  0.58829327  0.45575144  1  0  0.237588  0.599601  0  4.070288  0
C  C82  1  0.25353526  0.90673945  0.95369175  1  0  0.235121  0.594547  0  4.075042  0
C  C83  1  0.74646432  0.09325683  0.45369112  1  0  0.235151  0.594623  0  4.075075  0
C  C84  1  0.78334430  0.76191542  0.89992641  1  0  0.232946  0.598435  0  4.065506  0
C  C85  1  0.21664887  0.23807960  0.39992544  1  0  0.233031  0.598622  0  4.065386  0
C  C86  1  0.94652680  0.10671062  0.94027835  1  0  -0.316286  -0.73773  0  3.70048  0
C  C87  1  0.05347724  0.89328862  0.44027729  1  0  -0.316205  -0.737596  0  3.700514  0
C  C88  1  0.34387479  0.16675284  0.10762311  1  0  -0.313698  -0.724599  0  3.704784  0
C  C89  1  0.65613610  0.83324891  0.60762422  1  0  -0.31373  -0.724688  0  3.704728  0
C  C90  1  0.80762074  0.77008603  0.22704166  1  0  -0.081901  -0.108702  0  3.86426  0
C  C91  1  0.19238256  0.22991925  0.72704299  1  0  -0.081931  -0.108776  0  3.864446  0
C  C92  1  0.88829311  0.90714971  0.18976063  1  0  -0.164113  -0.182427  0  3.904984  0
C  C93  1  0.11171111  0.09285440  0.68976172  1  0  -0.164106  -0.182307  0  3.904841  0
C  C94  1  0.80390163  0.01508301  0.22427427  1  0  -0.085833  -0.112779  0  3.87834  0
C  C95  1  0.19610045  0.98492226  0.72427629  1  0  -0.08588  -0.112957  0  3.878294  0
C  C96  1  0.61407201  0.97932135  0.20896645  1  0  -0.157263  -0.174426  0  3.888435  0
C  C97  1  0.38592897  0.02067984  0.70896802  1  0  -0.157311  -0.174443  0  3.888485  0
C  C98  1  0.53568436  0.84288614  0.24775752  1  0  -0.09137  -0.126313  0  3.883096  0
C  C99  1  0.46431543  0.15711522  0.74775870  1  0  -0.091361  -0.12626  0  3.882895  0
C  C100  1  0.61737785  0.73336496  0.21204761  1  0  -0.1567  -0.173332  0  3.879161  0
C  C101  1  0.38262490  0.26663825  0.71204961  1  0  -0.156717  -0.173328  0  3.879245  0
C  C102  1  0.88163764  0.65694261  0.19489666  1  0  0.236186  0.596854  0  4.07278  0
C  C103  1  0.11836685  0.34306253  0.69489819  1  0  0.236199  0.596823  0  4.072813  0
C  C104  1  0.34858022  0.80501187  0.23495470  1  0  0.231927  0.601573  0  4.059536  0
C  C105  1  0.65142078  0.19498943  0.73495594  1  0  0.231894  0.601513  0  4.05952  0
C  C106  1  0.87381992  0.15351931  0.18975184  1  0  0.238051  0.607179  0  4.070103  0
C  C107  1  0.12618036  0.84648380  0.68975175  1  0  0.238102  0.607304  0  4.069727  0
C  C108  1  0.19125853  0.45776535  0.21061178  1  0  -0.318475  -0.733664  0  3.695801  0
C  C109  1  0.80874217  0.54223484  0.71061174  1  0  -0.318475  -0.73369  0  3.695784  0
C  C110  1  0.79568617  0.40144862  0.04226948  1  0  -0.312841  -0.724454  0  3.703518  0
C  C111  1  0.20431369  0.59855281  0.54227020  1  0  -0.312861  -0.724497  0  3.703487  0
O  O112  1  0.31458428  0.31109438  0.92366189  1  0  -0.274176  -0.510379  0  2.197037  0
O  O113  1  0.68541744  0.68890076  0.42366355  1  0  -0.274156  -0.510389  0  2.19698  0
O  O114  1  0.16517682  0.39169696  0.01772670  1  0  -0.270521  -0.562987  0  2.27353  0
O  O115  1  0.83482503  0.60829834  0.51772615  1  0  -0.270516  -0.562974  0  2.273489  0
O  O116  1  0.32110831  0.02800672  0.93068637  1  0  -0.274967  -0.5206  0  2.238602  0
O  O117  1  0.67888976  0.97198845  0.43068541  1  0  -0.274995  -0.520631  0  2.238434  0
O  O118  1  0.13256298  0.88641214  0.00483740  1  0  -0.280054  -0.541179  0  2.27156  0
O  O119  1  0.86743426  0.11358409  0.50483410  1  0  -0.280073  -0.541232  0  2.271729  0
O  O120  1  0.83011798  0.74455192  0.97877422  1  0  -0.336103  -0.494219  0  2.322518  0
O  O121  1  0.16987569  0.25544948  0.47877203  1  0  -0.336051  -0.494149  0  2.32247  0
O  O122  1  0.88096999  0.80932522  0.84368539  1  0  -0.296525  -0.507393  0  2.127629  0
O  O123  1  0.11902866  0.19066755  0.34368434  1  0  -0.296566  -0.507461  0  2.127604  0
O  O124  1  0.82178396  0.53778644  0.22416526  1  0  -0.277125  -0.5234  0  2.209601  0
O  O125  1  0.17821934  0.46221883  0.72416511  1  0  -0.277129  -0.52346  0  2.209748  0
O  O126  1  0.99395863  0.67330038  0.13894086  1  0  -0.277825  -0.537902  0  2.258869  0
O  O127  1  0.00604526  0.32670249  0.63894236  1  0  -0.277847  -0.537826  0  2.258679  0
O  O128  1  0.81899681  0.25244635  0.22142955  1  0  -0.275561  -0.514924  0  2.203254  0
O  O129  1  0.18100134  0.74755789  0.72142928  1  0  -0.275517  -0.51488  0  2.203114  0
O  O130  1  0.97850155  0.17611055  0.13041378  1  0  -0.267787  -0.560648  0  2.279517  0
O  O131  1  0.02149638  0.82389730  0.63041366  1  0  -0.267831  -0.560726  0  2.279375  0
O  O132  1  0.30476717  0.81574434  0.15450177  1  0  -0.340089  -0.497697  0  2.317842  0
O  O133  1  0.69523403  0.18425760  0.65450361  1  0  -0.340044  -0.497651  0  2.317814  0
O  O134  1  0.24718861  0.76638596  0.29113693  1  0  -0.299502  -0.506429  0  2.10672  0
O  O135  1  0.75281543  0.23361761  0.79113823  1  0  -0.299502  -0.506421  0  2.106728  0
