# generated using pymatgen
data_CdH16C26N7O2
_symmetry_space_group_name_H-M   'P 1'
_cell_length_a   10.55828762
_cell_length_b   10.74586657
_cell_length_c   13.77927844
_cell_angle_alpha   77.24498864
_cell_angle_beta   68.89517114
_cell_angle_gamma   69.70538643
_symmetry_Int_Tables_number   1
_chemical_formula_structural   CdH16C26N7O2
_chemical_formula_sum   'Cd2 H32 C52 N14 O4'
_cell_volume   1359.72202162
_cell_formula_units_Z   2
loop_
 _symmetry_equiv_pos_site_id
 _symmetry_equiv_pos_as_xyz
  1  'x, y, z'
loop_
 _atom_site_type_symbol
 _atom_site_label
 _atom_site_symmetry_multiplicity
 _atom_site_fract_x
 _atom_site_fract_y
 _atom_site_fract_z
 _atom_site_occupancy
 _atom_site_hle17_bader_spin_density
 _atom_site_hle17_ddec_charge
 _atom_site_hle17_ddec_spin_density
 _atom_site_hle17_ddec_sum_bond_order
 _atom_site_hle17_magmom
 _atom_site_hse06_10hf_bader_spin_density
 _atom_site_hse06_10hf_ddec_charge
 _atom_site_hse06_10hf_ddec_spin_density
 _atom_site_hse06_10hf_ddec_sum_bond_order
 _atom_site_hse06_10hf_magmom
 _atom_site_hse06_bader_spin_density
 _atom_site_hse06_ddec_charge
 _atom_site_hse06_ddec_spin_density
 _atom_site_hse06_ddec_sum_bond_order
 _atom_site_hse06_magmom
 _atom_site_pbe_bader_spin_density
 _atom_site_pbe_cm5_charge
 _atom_site_pbe_ddec_charge
 _atom_site_pbe_ddec_spin_density
 _atom_site_pbe_ddec_sum_bond_order
 _atom_site_pbe_magmom
Cd  Cd0  1  0.19120604  0.69037187  0.16371056  1  0  1.003207  0  1.833284  0  0  0.790633  0  2.291411  0  0  0.844988  0  2.245528  0  0  0.79678  0.750713  0  2.324123  0
Cd  Cd1  1  0.80879379  0.30962785  0.83628981  1  0  1.003226  0  1.833271  0  0  0.790648  0  2.291385  0  0  0.845006  0  2.245502  0  0  0.79679  0.750729  0  2.324097  0
H  H2  1  0.89937538  0.50399581  0.62370236  1  0  0.083019  0  0.924232  0  0  0.093033  0  0.982858  0  0  0.095619  0  0.981039  0  0  0.117942  0.091222  0  0.984195  0
H  H3  1  0.10062311  0.49600492  0.37629603  1  0  0.082983  0  0.924232  0  0  0.092995  0  0.982862  0  0  0.09558  0  0.981049  0  0  0.11792  0.091187  0  0.984192  0
H  H4  1  0.59548430  0.12528808  0.94776101  1  0  0.071443  0  0.942498  0  0  0.075921  0  1.015514  0  0  0.079066  0  1.011833  0  0  0.113797  0.073788  0  1.017665  0
H  H5  1  0.40451149  0.87471163  0.05224483  1  0  0.071424  0  0.942468  0  0  0.075902  0  1.015486  0  0  0.079046  0  1.011804  0  0  0.11381  0.073768  0  1.017639  0
H  H6  1  0.00532831  0.11850075  0.16277319  1  0  0.119248  0  0.975118  0  0  0.128471  0  1.037413  0  0  0.132344  0  1.035147  0  0  0.110649  0.125601  0  1.039189  0
H  H7  1  0.99467151  0.88149898  0.83722572  1  0  0.119216  0  0.975151  0  0  0.128436  0  1.037448  0  0  0.132306  0  1.035193  0  0  0.110634  0.125562  0  1.039235  0
H  H8  1  0.27732363  0.41630737  0.05495359  1  0  0.098862  0  0.980076  0  0  0.103277  0  1.055278  0  0  0.106246  0  1.053369  0  0  0.102672  0.101  0  1.05703  0
H  H9  1  0.72267588  0.58369336  0.94504452  1  0  0.098897  0  0.980021  0  0  0.103308  0  1.055224  0  0  0.106279  0  1.053312  0  0  0.102658  0.101032  0  1.056976  0
H  H10  1  0.88207818  0.00032403  0.18628325  1  0  0.125299  0  0.989767  0  0  0.132662  0  1.052811  0  0  0.136832  0  1.050079  0  0  0.107674  0.12961  0  1.054855  0
H  H11  1  0.11792664  0.99967270  0.81371479  1  0  0.125231  0  0.98976  0  0  0.132629  0  1.052785  0  0  0.136799  0  1.05005  0  0  0.107659  0.129574  0  1.054834  0
H  H12  1  0.44935092  0.19270134  0.30118822  1  0  0.098025  0  0.934845  0  0  0.109529  0  0.990688  0  0  0.11283  0  0.988936  0  0  0.105035  0.107378  0  0.991377  0
H  H13  1  0.55064696  0.80730139  0.69881145  1  0  0.098016  0  0.934911  0  0  0.109524  0  0.990747  0  0  0.112826  0  0.988996  0  0  0.105034  0.107373  0  0.991437  0
H  H14  1  0.21017308  0.39720339  0.94035474  1  0  0.117589  0  0.998209  0  0  0.121085  0  1.069836  0  0  0.125338  0  1.067056  0  0  0.110035  0.117691  0  1.072353  0
H  H15  1  0.78982542  0.60279734  0.05964437  1  0  0.117529  0  0.998205  0  0  0.121075  0  1.06978  0  0  0.125299  0  1.067031  0  0  0.110048  0.117682  0  1.072298  0
H  H16  1  0.22229559  0.81041723  0.47168469  1  0  0.099603  0  0.940713  0  0  0.109786  0  0.998865  0  0  0.113726  0  0.996085  0  0  0.106092  0.106972  0  1.000936  0
H  H17  1  0.77770362  0.18958449  0.52831551  1  0  0.099605  0  0.940698  0  0  0.109784  0  0.998856  0  0  0.113723  0  0.996076  0  0  0.106096  0.106971  0  1.000927  0
H  H18  1  0.85693431  0.05190099  0.37893129  1  0  0.098213  0  0.943514  0  0  0.109373  0  1.001487  0  0  0.113029  0  0.999278  0  0  0.104534  0.10674  0  1.003136  0
H  H19  1  0.14306623  0.94809973  0.62106871  1  0  0.09822  0  0.943555  0  0  0.109378  0  1.00153  0  0  0.113035  0  0.999318  0  0  0.104541  0.106745  0  1.003178  0
H  H20  1  0.16730324  0.05737319  0.21767864  1  0  0.091891  0  0.99808  0  0  0.099992  0  1.065026  0  0  0.102478  0  1.064233  0  0  0.096917  0.098205  0  1.065513  0
H  H21  1  0.83269728  0.94262754  0.78231991  1  0  0.09185  0  0.998109  0  0  0.099963  0  1.065037  0  0  0.102451  0  1.064242  0  0  0.096915  0.098177  0  1.065523  0
H  H22  1  0.21256375  0.52536726  0.80786070  1  0  0.111309  0  1.017106  0  0  0.109008  0  1.093846  0  0  0.113676  0  1.090996  0  0  0.104797  0.104871  0  1.097068  0
H  H23  1  0.78743638  0.47463147  0.19213829  1  0  0.111293  0  1.017103  0  0  0.10898  0  1.093857  0  0  0.113652  0  1.091002  0  0  0.104786  0.104844  0  1.097077  0
H  H24  1  0.31452307  0.03018582  0.32876140  1  0  0.087257  0  0.954037  0  0  0.099023  0  1.009568  0  0  0.101295  0  1.00961  0  0  0.097691  0.09754  0  1.009436  0
H  H25  1  0.68547714  0.96981590  0.67123706  1  0  0.087215  0  0.954031  0  0  0.099023  0  1.009521  0  0  0.101295  0  1.009565  0  0  0.097698  0.09754  0  1.00939  0
H  H26  1  0.05650656  0.65511779  0.54112757  1  0  0.109924  0  0.962108  0  0  0.116576  0  1.026067  0  0  0.119548  0  1.025614  0  0  0.107407  0.114214  0  1.02679  0
H  H27  1  0.94349499  0.34488293  0.45887214  1  0  0.109977  0  0.962073  0  0  0.116622  0  1.026032  0  0  0.119607  0  1.025564  0  0  0.107418  0.11426  0  1.026756  0
H  H28  1  0.55847365  0.94211838  0.09508411  1  0  0.098981  0  0.948739  0  0  0.112133  0  1.004295  0  0  0.114746  0  1.003869  0  0  0.108765  0.110547  0  1.004012  0
H  H29  1  0.44152448  0.05788033  0.90492125  1  0  0.098952  0  0.948735  0  0  0.11209  0  1.004324  0  0  0.1147  0  1.003901  0  0  0.108776  0.110506  0  1.004033  0
H  H30  1  0.70601994  0.88112157  0.21631441  1  0  0.093521  0  0.91958  0  0  0.110354  0  0.965529  0  0  0.112721  0  0.964698  0  0  0.112197  0.108482  0  0.966477  0
H  H31  1  0.29398255  0.11887614  0.78368774  1  0  0.093575  0  0.919617  0  0  0.110404  0  0.965568  0  0  0.112773  0  0.964736  0  0  0.112215  0.108534  0  0.966515  0
H  H32  1  0.21389906  0.66451111  0.63855420  1  0  0.092801  0  0.929346  0  0  0.108264  0  0.979555  0  0  0.110526  0  0.97832  0  0  0.111462  0.106566  0  0.980577  0
H  H33  1  0.78610280  0.33548862  0.36144488  1  0  0.092726  0  0.929375  0  0  0.108212  0  0.97957  0  0  0.110475  0  0.978334  0  0  0.111448  0.106515  0  0.980591  0
C  C34  1  0.11848793  0.25748911  0.06239374  1  0  0.114746  0  3.745333  0  0  0.126254  0  3.978935  0  0  0.131575  0  4.001226  0  0  0.014323  0.122705  0  3.963253  0
C  C35  1  0.88151220  0.74250962  0.93760526  1  0  0.114788  0  3.745272  0  0  0.126298  0  3.978874  0  0  0.13162  0  4.00116  0  0  0.014336  0.122748  0  3.963191  0
C  C36  1  0.97061664  0.51242718  0.66138407  1  0  0.133243  0  3.720585  0  0  0.101994  0  3.972832  0  0  0.108125  0  3.991903  0  0  0.051129  0.097682  0  3.960097  0
C  C37  1  0.02938319  0.48757255  0.33861484  1  0  0.133381  0  3.720545  0  0  0.102144  0  3.972777  0  0  0.108272  0  3.991852  0  0  0.051202  0.097832  0  3.960044  0
C  C38  1  0.65723114  0.09324656  0.00226558  1  0  0.137128  0  3.708987  0  0  0.103947  0  3.968467  0  0  0.11016  0  3.987283  0  0  0.049952  0.099867  0  3.955822  0
C  C39  1  0.34276495  0.90675216  0.99773817  1  0  0.137166  0  3.708914  0  0  0.103987  0  3.968423  0  0  0.110202  0  3.987238  0  0  0.049943  0.099907  0  3.955775  0
C  C40  1  0.01819320  0.18677043  0.09122157  1  0  -0.166531  0  3.616795  0  0  -0.19248  0  3.862184  0  0  -0.199797  0  3.881507  0  0  -0.073078  -0.187742  0  3.849445  0
C  C41  1  0.98180663  0.81322930  0.90877734  1  0  -0.166471  0  3.616877  0  0  -0.192413  0  3.862248  0  0  -0.199731  0  3.88157  0  0  -0.073063  -0.187676  0  3.849507  0
C  C42  1  0.04447131  0.35521730  0.90804948  1  0  0.19691  0  3.764534  0  0  0.191076  0  4.010307  0  0  0.198887  0  4.030082  0  0  0.124159  0.1859  0  3.996744  0
C  C43  1  0.95552851  0.64478244  0.09194870  1  0  0.196868  0  3.764568  0  0  0.191115  0  4.010262  0  0  0.198926  0  4.030032  0  0  0.124193  0.185941  0  3.996695  0
C  C44  1  0.93569511  0.20273324  0.02712586  1  0  0.207737  0  3.75297  0  0  0.199205  0  4.002285  0  0  0.207369  0  4.02117  0  0  0.128299  0.193595  0  3.989045  0
C  C45  1  0.06430604  0.79726549  0.97287213  1  0  0.207673  0  3.753122  0  0  0.199142  0  4.002466  0  0  0.207307  0  4.021353  0  0  0.128259  0.193532  0  3.989224  0
C  C46  1  0.04372421  0.92291811  0.41777161  1  0  -0.049407  0  3.758505  0  0  -0.025271  0  3.987285  0  0  -0.031455  0  4.009684  0  0  -0.01492  -0.021123  0  3.972189  0
C  C47  1  0.95627641  0.07708560  0.58222785  1  0  -0.049445  0  3.758588  0  0  -0.025278  0  3.987335  0  0  -0.031462  0  4.009733  0  0  -0.014929  -0.021132  0  3.972239  0
C  C48  1  0.45284902  0.40740684  0.15829920  1  0  0.271189  0  3.810513  0  0  0.246547  0  4.076734  0  0  0.25714  0  4.09471  0  0  0.205492  0.239473  0  4.064492  0
C  C49  1  0.54715120  0.59259489  0.84169926  1  0  0.271184  0  3.810484  0  0  0.2465  0  4.076773  0  0  0.257093  0  4.09475  0  0  0.205453  0.239424  0  4.064534  0
C  C50  1  0.28357936  0.33157712  0.11503581  1  0  -0.11937  0  3.677993  0  0  -0.153221  0  3.930909  0  0  -0.15448  0  3.951021  0  0  -0.081767  -0.152593  0  3.917288  0
C  C51  1  0.71642117  0.66842361  0.88496346  1  0  -0.119476  0  3.677991  0  0  -0.15333  0  3.930928  0  0  -0.154588  0  3.951039  0  0  -0.081766  -0.152699  0  3.917305  0
C  C52  1  0.37066447  0.31449893  0.17631869  1  0  0.011528  0  3.799408  0  0  0.031747  0  4.035791  0  0  0.029595  0  4.058472  0  0  -0.005625  0.032906  0  4.02057  0
C  C53  1  0.62933605  0.68550180  0.82367986  1  0  0.011591  0  3.799311  0  0  0.031814  0  4.035712  0  0  0.029662  0  4.058396  0  0  -0.005613  0.032972  0  4.020491  0
C  C54  1  0.81613472  0.02768928  0.13520125  1  0  -0.137705  0  3.670264  0  0  -0.159938  0  3.923354  0  0  -0.166147  0  3.942707  0  0  -0.079117  -0.155535  0  3.909996  0
C  C55  1  0.18386846  0.97230944  0.86479835  1  0  -0.137496  0  3.670147  0  0  -0.159751  0  3.923209  0  0  -0.165964  0  3.942578  0  0  -0.079063  -0.155347  0  3.909852  0
C  C56  1  0.05325196  0.44121145  0.80600433  1  0  0.171406  0  3.74443  0  0  0.168713  0  3.981969  0  0  0.17432  0  4.003228  0  0  0.118387  0.16481  0  3.967418  0
C  C57  1  0.94674623  0.55879028  0.19399542  1  0  0.171455  0  3.744425  0  0  0.168746  0  3.981936  0  0  0.174353  0  4.003195  0  0  0.118408  0.164843  0  3.967384  0
C  C58  1  0.20857182  0.24037460  0.12856378  1  0  0.032694  0  3.773148  0  0  0.052174  0  4.003158  0  0  0.049602  0  4.027973  0  0  -0.011492  0.054123  0  3.985478  0
C  C59  1  0.79143004  0.75962512  0.87143602  1  0  0.032716  0  3.773185  0  0  0.052194  0  4.003184  0  0  0.049622  0  4.027998  0  0  -0.011495  0.054143  0  3.985502  0
C  C60  1  0.38152691  0.20541062  0.25375868  1  0  -0.091147  0  3.740354  0  0  -0.11551  0  3.986615  0  0  -0.116385  0  4.006637  0  0  -0.083607  -0.113203  0  3.971704  0
C  C61  1  0.61847127  0.79459111  0.74624034  1  0  -0.091206  0  3.740374  0  0  -0.115573  0  3.986654  0  0  -0.116448  0  4.006678  0  0  -0.083621  -0.113266  0  3.971743  0
C  C62  1  0.83123802  0.12732591  0.05070846  1  0  0.185873  0  3.742748  0  0  0.178589  0  3.990014  0  0  0.185132  0  4.00973  0  0  0.128276  0.174563  0  3.975711  0
C  C63  1  0.16876344  0.87267183  0.94929034  1  0  0.185825  0  3.742794  0  0  0.178544  0  3.990099  0  0  0.185086  0  4.009819  0  0  0.12826  0.174519  0  3.975794  0
C  C64  1  0.09245864  0.84110993  0.32912540  1  0  0.615078  0  3.958244  0  0  0.570149  0  4.242181  0  0  0.603616  0  4.236442  0  0  0.186546  0.547383  0  4.245226  0
C  C65  1  0.90754190  0.15889079  0.67087460  1  0  0.615137  0  3.958279  0  0  0.570187  0  4.242237  0  0  0.603655  0  4.236493  0  0  0.186563  0.547422  0  4.24528  0
C  C66  1  0.13143714  0.34281795  0.96808562  1  0  -0.178438  0  3.625372  0  0  -0.203575  0  3.872769  0  0  -0.211521  0  3.892537  0  0  -0.076273  -0.198324  0  3.858713  0
C  C67  1  0.86856238  0.65718278  0.03191393  1  0  -0.178376  0  3.625269  0  0  -0.20357  0  3.872628  0  0  -0.211492  0  3.892417  0  0  -0.076292  -0.198321  0  3.858569  0
C  C68  1  0.12492231  0.89367081  0.48549346  1  0  -0.083361  0  3.757057  0  0  -0.105931  0  4.009906  0  0  -0.106985  0  4.029949  0  0  -0.084281  -0.105066  0  3.996249  0
C  C69  1  0.87507893  0.10633090  0.51450617  1  0  -0.083337  0  3.757115  0  0  -0.105919  0  4.009961  0  0  -0.106972  0  4.030006  0  0  -0.084295  -0.105053  0  3.996304  0
C  C70  1  0.91865320  0.02998163  0.43253060  1  0  -0.079816  0  3.747922  0  0  -0.103433  0  3.997832  0  0  -0.104585  0  4.018403  0  0  -0.085314  -0.102672  0  3.983956  0
C  C71  1  0.08134866  0.97001809  0.56746920  1  0  -0.079841  0  3.747935  0  0  -0.103467  0  3.997844  0  0  -0.104617  0  4.018408  0  0  -0.085347  -0.102704  0  3.983967  0
C  C72  1  0.22200858  0.13116739  0.20625845  1  0  -0.106476  0  3.726548  0  0  -0.129372  0  3.975078  0  0  -0.131053  0  3.997604  0  0  -0.089075  -0.127426  0  3.958998  0
C  C73  1  0.77799227  0.86883233  0.79374236  1  0  -0.106487  0  3.726575  0  0  -0.129389  0  3.975116  0  0  -0.131071  0  3.997641  0  0  -0.089091  -0.127444  0  3.959035  0
C  C74  1  0.14337142  0.52262412  0.76590679  1  0  -0.13794  0  3.683976  0  0  -0.153195  0  3.928633  0  0  -0.16012  0  3.949407  0  0  -0.079965  -0.148072  0  3.914913  0
C  C75  1  0.85662903  0.47737361  0.23409374  1  0  -0.137924  0  3.68401  0  0  -0.153168  0  3.928669  0  0  -0.1601  0  3.949448  0  0  -0.079967  -0.148046  0  3.914947  0
C  C76  1  0.30678469  0.11484789  0.26842397  1  0  -0.074888  0  3.80681  0  0  -0.084346  0  4.056811  0  0  -0.087834  0  4.08021  0  0  -0.095307  -0.082693  0  4.04068  0
C  C77  1  0.69321585  0.88515283  0.73157603  1  0  -0.074784  0  3.806694  0  0  -0.084278  0  4.056696  0  0  -0.087764  0  4.080094  0  0  -0.095299  -0.082625  0  4.040565  0
C  C78  1  0.05721994  0.59595910  0.61627693  1  0  -0.117459  0  3.720168  0  0  -0.129331  0  3.970988  0  0  -0.135636  0  3.992921  0  0  -0.080961  -0.125216  0  3.956555  0
C  C79  1  0.94278325  0.40403962  0.38372268  1  0  -0.117568  0  3.720217  0  0  -0.129434  0  3.971039  0  0  -0.135752  0  3.992966  0  0  -0.080983  -0.12532  0  3.95661  0
C  C80  1  0.63624541  0.99300667  0.08442086  1  0  -0.106138  0  3.735259  0  0  -0.119241  0  3.986897  0  0  -0.125572  0  4.01006  0  0  -0.077256  -0.115307  0  3.971192  0
C  C81  1  0.36375404  0.00699105  0.91558286  1  0  -0.10599  0  3.735192  0  0  -0.119074  0  3.986823  0  0  -0.125404  0  4.009986  0  0  -0.077245  -0.115139  0  3.97112  0
C  C82  1  0.71800221  0.95990090  0.15150260  1  0  0.001701  0  3.722196  0  0  -0.017305  0  3.975326  0  0  -0.014626  0  3.994294  0  0  -0.065649  -0.019424  0  3.962963  0
C  C83  1  0.28200130  0.04009682  0.84849854  1  0  0.001461  0  3.722341  0  0  -0.017549  0  3.975504  0  0  -0.014874  0  3.994472  0  0  -0.065731  -0.019669  0  3.963142  0
C  C84  1  0.14451696  0.60037388  0.67031407  1  0  0.006314  0  3.71108  0  0  -0.011917  0  3.956474  0  0  -0.009456  0  3.976305  0  0  -0.061735  -0.013317  0  3.942779  0
C  C85  1  0.85548561  0.39962684  0.32968609  1  0  0.006397  0  3.711171  0  0  -0.01186  0  3.95657  0  0  -0.0094  0  3.976406  0  0  -0.061727  -0.013261  0  3.942876  0
N  N86  1  0.40575983  0.54118829  0.13571633  1  0  -0.34758  0  3.212106  0  0  -0.273482  0  3.500064  0  0  -0.293786  0  3.516555  0  0  -0.256051  -0.258811  0  3.48844  0
N  N87  1  0.59424039  0.45881343  0.86428358  1  0  -0.347604  0  3.212109  0  0  -0.273492  0  3.50008  0  0  -0.293797  0  3.516569  0  0  -0.256034  -0.258822  0  3.488456  0
N  N88  1  0.51421943  0.58870828  0.12200236  1  0  -0.121485  0  2.971432  0  0  -0.12012  0  3.262579  0  0  -0.119087  0  3.275116  0  0  -0.123479  -0.120342  0  3.253402  0
N  N89  1  0.48578009  0.41129244  0.87799792  1  0  -0.121434  0  2.971412  0  0  -0.120064  0  3.262543  0  0  -0.119031  0  3.275083  0  0  -0.123463  -0.120288  0  3.253369  0
N  N90  1  0.62276245  0.48645989  0.13482360  1  0  -0.108491  0  3.058844  0  0  -0.080899  0  3.359436  0  0  -0.082897  0  3.370094  0  0  -0.104306  -0.078675  0  3.352438  0
N  N91  1  0.37723738  0.51353984  0.86517677  1  0  -0.108513  0  3.058888  0  0  -0.080914  0  3.359464  0  0  -0.082914  0  3.370128  0  0  -0.104303  -0.078689  0  3.352466  0
N  N92  1  0.58794831  0.37139071  0.15862534  1  0  -0.317265  0  2.915314  0  0  -0.301671  0  3.196976  0  0  -0.311691  0  3.210357  0  0  -0.236898  -0.295038  0  3.188098  0
N  N93  1  0.41205152  0.62860901  0.84137502  1  0  -0.317275  0  2.915354  0  0  -0.301668  0  3.197028  0  0  -0.311688  0  3.210409  0  0  -0.236896  -0.295034  0  3.188149  0
N  N94  1  0.94914317  0.28695340  0.93878593  1  0  -0.384881  0  3.268567  0  0  -0.320291  0  3.53073  0  0  -0.338922  0  3.546918  0  0  -0.333069  -0.307229  0  3.519628  0
N  N95  1  0.05085533  0.71304733  0.06121391  1  0  -0.384832  0  3.268541  0  0  -0.320303  0  3.530727  0  0  -0.338935  0  3.546919  0  0  -0.333052  -0.307241  0  3.519623  0
N  N96  1  0.75292555  0.15726175  0.98547568  1  0  -0.336025  0  3.234795  0  0  -0.266157  0  3.496648  0  0  -0.284174  0  3.514479  0  0  -0.321122  -0.254382  0  3.484546  0
N  N97  1  0.24707155  0.84273697  0.01452707  1  0  -0.336084  0  3.2349  0  0  -0.26622  0  3.49675  0  0  -0.284234  0  3.514572  0  0  -0.321115  -0.254445  0  3.484649  0
N  N98  1  0.96895841  0.43764943  0.75324778  1  0  -0.353727  0  3.26328  0  0  -0.282301  0  3.522329  0  0  -0.300575  0  3.541046  0  0  -0.327369  -0.269125  0  3.509727  0
N  N99  1  0.03104080  0.56235229  0.24675169  1  0  -0.35381  0  3.263254  0  0  -0.282389  0  3.522304  0  0  -0.300661  0  3.54102  0  0  -0.327406  -0.269212  0  3.509702  0
O  O100  1  0.17946128  0.72472320  0.33402355  1  0  -0.62596  0  1.915268  0  0  -0.567924  0  2.139216  0  0  -0.594302  0  2.129017  0  0  -0.339084  -0.549482  0  2.145736  0
O  O101  1  0.82053824  0.27527752  0.66597673  1  0  -0.625988  0  1.915236  0  0  -0.56795  0  2.139186  0  0  -0.594327  0  2.128986  0  0  -0.339084  -0.549507  0  2.145707  0
O  O102  1  0.04616729  0.89264191  0.25092941  1  0  -0.641635  0  1.977273  0  0  -0.582588  0  2.217013  0  0  -0.609421  0  2.206862  0  0  -0.334196  -0.563338  0  2.222909  0
O  O103  1  0.95383355  0.10735782  0.74906995  1  0  -0.641654  0  1.977295  0  0  -0.582604  0  2.217032  0  0  -0.609444  0  2.206897  0  0  -0.334197  -0.563351  0  2.222928  0
