# generated using pymatgen
data_ZnH11C11NO5
_symmetry_space_group_name_H-M   'P 1'
_cell_length_a   7.94339722
_cell_length_b   11.61870048
_cell_length_c   14.16770000
_cell_angle_alpha   90.00000000
_cell_angle_beta   90.00000000
_cell_angle_gamma   107.49833875
_symmetry_Int_Tables_number   1
_chemical_formula_structural   ZnH11C11NO5
_chemical_formula_sum   'Zn4 H44 C44 N4 O20'
_cell_volume   1247.05802276
_cell_formula_units_Z   4
loop_
 _symmetry_equiv_pos_site_id
 _symmetry_equiv_pos_as_xyz
  1  'x, y, z'
loop_
 _atom_site_type_symbol
 _atom_site_label
 _atom_site_symmetry_multiplicity
 _atom_site_fract_x
 _atom_site_fract_y
 _atom_site_fract_z
 _atom_site_occupancy
 _atom_site_hle17_bader_spin_density
 _atom_site_hle17_ddec_charge
 _atom_site_hle17_ddec_spin_density
 _atom_site_hle17_ddec_sum_bond_order
 _atom_site_hle17_magmom
 _atom_site_hse06_10hf_bader_spin_density
 _atom_site_hse06_10hf_ddec_charge
 _atom_site_hse06_10hf_ddec_spin_density
 _atom_site_hse06_10hf_ddec_sum_bond_order
 _atom_site_hse06_10hf_magmom
 _atom_site_hse06_bader_spin_density
 _atom_site_hse06_ddec_charge
 _atom_site_hse06_ddec_spin_density
 _atom_site_hse06_ddec_sum_bond_order
 _atom_site_hse06_magmom
 _atom_site_pbe_bader_charge
 _atom_site_pbe_bader_spin_density
 _atom_site_pbe_cm5_charge
 _atom_site_pbe_ddec_charge
 _atom_site_pbe_ddec_spin_density
 _atom_site_pbe_ddec_sum_bond_order
 _atom_site_pbe_magmom
Zn  Zn0  1  0.41815099  0.09699169  0.99733125  1  0  1.10812  0  1.822624  0  0  0.947617  0  2.293372  0  0  1.000756  0  2.223471  0  1.333868  0  0.670889  0.910416  0  2.341333  0
Zn  Zn1  1  0.58185095  0.40300773  0.49733125  1  0  1.108163  0  1.822606  0  0  0.947649  0  2.293372  0  0  1.000785  0  2.223473  0  1.334143  0  0.670907  0.910448  0  2.341334  0
Zn  Zn2  1  0.58185002  0.90300715  0.00266804  1  0  1.108132  0  1.822613  0  0  0.947662  0  2.29333  0  0  1.000798  0  2.223432  0  1.334136  0  0.670902  0.910462  0  2.341291  0
Zn  Zn3  1  0.41814967  0.59699020  0.50266804  1  0  1.108155  0  1.82255  0  0  0.947694  0  2.293256  0  0  1.00083  0  2.223358  0  1.333889  0  0.670914  0.910495  0  2.341216  0
H  H4  1  0.04242951  0.07658659  0.84415466  1  0  0.112393  0  0.964897  0  0  0.11766  0  1.032689  0  0  0.121654  0  1.029644  0  0.113725  0  0.104778  0.114731  0  1.03506  0
H  H5  1  0.95757456  0.42341193  0.34415607  1  0  0.112373  0  0.965002  0  0  0.117651  0  1.032775  0  0  0.121642  0  1.029736  0  0.113751  0  0.104762  0.114721  0  1.035147  0
H  H6  1  0.95757064  0.92341315  0.15584534  1  0  0.112391  0  0.964918  0  0  0.117657  0  1.03271  0  0  0.121651  0  1.029665  0  0.113729  0  0.104772  0.114728  0  1.035082  0
H  H7  1  0.04242858  0.57658600  0.65584534  1  0  0.112375  0  0.964925  0  0  0.117642  0  1.032714  0  0  0.121636  0  1.029671  0  0.113718  0  0.104766  0.114713  0  1.035085  0
H  H8  1  0.27931607  0.19313598  0.73490969  1  0  0.096159  0  0.957875  0  0  0.106787  0  1.020047  0  0  0.110112  0  1.018  0  0.092  0  0.102143  0.104375  0  1.02162  0
H  H9  1  0.72068501  0.30686434  0.23491039  1  0  0.0961  0  0.957923  0  0  0.106751  0  1.020064  0  0  0.110076  0  1.018018  0  0.092013  0  0.102137  0.104339  0  1.021638  0
H  H10  1  0.72068574  0.80686466  0.26509031  1  0  0.096113  0  0.957944  0  0  0.106767  0  1.020075  0  0  0.110092  0  1.018027  0  0.092018  0  0.102136  0.104355  0  1.021649  0
H  H11  1  0.27931514  0.69313540  0.76509031  1  0  0.096117  0  0.957919  0  0  0.106765  0  1.020067  0  0  0.11009  0  1.018019  0  0.092014  0  0.102136  0.104352  0  1.021641  0
H  H12  1  0.93213722  0.38549315  0.62973383  1  0  0.116019  0  0.962816  0  0  0.122845  0  1.027682  0  0  0.127027  0  1.024041  0  0.122969  0  0.106814  0.119809  0  1.030414  0
H  H13  1  0.06785929  0.11450536  0.12973454  1  0  0.116009  0  0.962839  0  0  0.12283  0  1.027705  0  0  0.127015  0  1.024067  0  0.122978  0  0.106808  0.119793  0  1.030437  0
H  H14  1  0.06786293  0.61450659  0.37026617  1  0  0.115994  0  0.962834  0  0  0.12282  0  1.027697  0  0  0.127004  0  1.02406  0  0.122968  0  0.106802  0.119783  0  1.030429  0
H  H15  1  0.93213669  0.88549347  0.87026546  1  0  0.115994  0  0.962861  0  0  0.12282  0  1.027724  0  0  0.127005  0  1.024086  0  0.122974  0  0.106802  0.119784  0  1.030455  0
H  H16  1  0.69613898  0.27057718  0.73868588  1  0  0.10159  0  0.941467  0  0  0.11223  0  1.001066  0  0  0.115912  0  0.998441  0  0.064806  0  0.102773  0.109546  0  1.003087  0
H  H17  1  0.30386057  0.22941683  0.23868800  1  0  0.101596  0  0.941432  0  0  0.11226  0  1.00101  0  0  0.115942  0  0.998384  0  0.064259  0  0.102764  0.109574  0  1.003033  0
H  H18  1  0.30386077  0.72942166  0.26131341  1  0  0.101566  0  0.941477  0  0  0.112185  0  1.001102  0  0  0.115864  0  0.998476  0  0.064805  0  0.102757  0.109501  0  1.003121  0
H  H19  1  0.69613680  0.77057659  0.76131341  1  0  0.10157  0  0.941462  0  0  0.112191  0  1.001089  0  0  0.115871  0  0.998462  0  0.064802  0  0.102758  0.109506  0  1.003109  0
H  H20  1  0.51885954  0.32529580  0.89192247  1  0  0.052024  0  0.938485  0  0  0.060663  0  1.007805  0  0  0.063279  0  1.001496  0  0.13153  0  0.127507  0.058543  0  1.012448  0
H  H21  1  0.48114240  0.17470362  0.39192247  1  0  0.052032  0  0.93851  0  0  0.060675  0  1.007828  0  0  0.06329  0  1.001517  0  0.131545  0  0.127518  0.058552  0  1.01247  0
H  H22  1  0.48114061  0.67470394  0.10807753  1  0  0.052009  0  0.938513  0  0  0.060655  0  1.007827  0  0  0.063268  0  1.001518  0  0.131534  0  0.127504  0.058532  0  1.012469  0
H  H23  1  0.51885861  0.82529522  0.60807682  1  0  0.051997  0  0.938536  0  0  0.060638  0  1.007848  0  0  0.063251  0  1.001544  0  0.131538  0  0.127501  0.058514  0  1.012491  0
H  H24  1  0.55496465  0.49456131  0.82198593  1  0  0.106186  0  0.934555  0  0  0.126816  0  0.995983  0  0  0.127191  0  0.996439  0  0.069185  0  0.110929  0.126426  0  0.995757  0
H  H25  1  0.44503643  0.00543901  0.32198663  1  0  0.106193  0  0.934586  0  0  0.12682  0  0.996007  0  0  0.127196  0  0.996461  0  0.069198  0  0.110926  0.12643  0  0.995782  0
H  H26  1  0.44503511  0.50543753  0.17801407  1  0  0.106142  0  0.934601  0  0  0.126766  0  0.99604  0  0  0.127142  0  0.996495  0  0.069199  0  0.110897  0.126376  0  0.995814  0
H  H27  1  0.55496498  0.99456073  0.67801337  1  0  0.106174  0  0.934592  0  0  0.1268  0  0.996016  0  0  0.127175  0  0.996472  0  0.069178  0  0.110911  0.12641  0  0.99579  0
H  H28  1  0.46772933  0.60228031  0.87811077  1  0  0.111699  0  0.938659  0  0  0.128776  0  1.006562  0  0  0.130054  0  1.00581  0  0.11865  0  0.106883  0.127768  0  1.007175  0
H  H29  1  0.53226864  0.89771884  0.37811077  1  0  0.11167  0  0.938673  0  0  0.128747  0  1.006578  0  0  0.130025  0  1.005827  0  0.118631  0  0.10686  0.127741  0  1.007193  0
H  H30  1  0.53227082  0.39771943  0.12188923  1  0  0.111686  0  0.938655  0  0  0.128761  0  1.006557  0  0  0.13004  0  1.005803  0  0.118649  0  0.106876  0.127754  0  1.007171  0
H  H31  1  0.46773072  0.10227909  0.62188852  1  0  0.11169  0  0.938696  0  0  0.128755  0  1.006606  0  0  0.130033  0  1.005855  0  0.118666  0  0.106876  0.12775  0  1.00722  0
H  H32  1  0.35080672  0.51239806  0.78277208  1  0  0.111597  0  0.936315  0  0  0.13035  0  0.999771  0  0  0.13045  0  1.001047  0  0.077665  0  0.107285  0.130117  0  0.999047  0
H  H33  1  0.64919250  0.98760110  0.28277208  1  0  0.111593  0  0.936325  0  0  0.130343  0  0.999781  0  0  0.130444  0  1.001055  0  0.07767  0  0.107282  0.130111  0  0.999056  0
H  H34  1  0.64919303  0.48760078  0.21722792  1  0  0.111592  0  0.936311  0  0  0.130341  0  0.999769  0  0  0.130442  0  1.001044  0  0.077665  0  0.107279  0.130108  0  0.999045  0
H  H35  1  0.35080725  0.01239774  0.71722721  1  0  0.111592  0  0.93631  0  0  0.130333  0  0.999775  0  0  0.130441  0  1.001038  0  0.077678  0  0.107285  0.1301  0  0.999051  0
H  H36  1  0.12353789  0.35493468  0.00134320  1  0  0.120218  0  0.939066  0  0  0.137104  0  1.002008  0  0  0.138303  0  1.001973  0  0.117993  0  0.11454  0.136106  0  1.002158  0
H  H37  1  0.87646239  0.14506383  0.50134249  1  0  0.120237  0  0.939052  0  0  0.137123  0  1.001991  0  0  0.138321  0  1.001956  0  0.118016  0  0.114546  0.136124  0  1.002139  0
H  H38  1  0.87646226  0.64506506  0.99865680  1  0  0.120239  0  0.939044  0  0  0.137128  0  1.001982  0  0  0.138326  0  1.001947  0  0.118006  0  0.114553  0.136129  0  1.002133  0
H  H39  1  0.12353696  0.85493410  0.49865680  1  0  0.120225  0  0.939084  0  0  0.137118  0  1.002013  0  0  0.138315  0  1.001978  0  0.117986  0  0.114547  0.13612  0  1.002166  0
H  H40  1  0.07913807  0.42449396  0.89497448  1  0  0.103208  0  0.927114  0  0  0.124942  0  0.987168  0  0  0.124342  0  0.989276  0  0.066002  0  0.108743  0.125256  0  0.985768  0
H  H41  1  0.92086222  0.07550456  0.39497448  1  0  0.103241  0  0.9271  0  0  0.124946  0  0.987184  0  0  0.124347  0  0.989292  0  0.065983  0  0.10873  0.12524  0  0.985805  0
H  H42  1  0.92086122  0.57550668  0.10502552  1  0  0.103192  0  0.927133  0  0  0.124926  0  0.987187  0  0  0.124326  0  0.989296  0  0.065838  0  0.108738  0.12524  0  0.985788  0
H  H43  1  0.07913880  0.92449428  0.60502552  1  0  0.103226  0  0.927111  0  0  0.124958  0  0.987163  0  0  0.124359  0  0.98927  0  0.065971  0  0.108747  0.125273  0  0.985764  0
H  H44  1  0.20049373  0.51640670  0.98815545  1  0  0.099155  0  0.923095  0  0  0.122799  0  0.979418  0  0  0.123137  0  0.979286  0  0.062316  0  0.108388  0.122427  0  0.979607  0
H  H45  1  0.79950762  0.98359155  0.48815545  1  0  0.099122  0  0.923117  0  0  0.122766  0  0.979443  0  0  0.123104  0  0.97931  0  0.062291  0  0.108379  0.122395  0  0.979627  0
H  H46  1  0.79950729  0.48359213  0.01184455  1  0  0.099154  0  0.923095  0  0  0.122799  0  0.979421  0  0  0.123137  0  0.979289  0  0.0623  0  0.108388  0.122427  0  0.979608  0
H  H47  1  0.20049340  0.01640729  0.51184455  1  0  0.099151  0  0.923097  0  0  0.122783  0  0.979439  0  0  0.123118  0  0.979308  0  0.062317  0  0.108379  0.122413  0  0.979626  0
C  C48  1  0.85443277  0.16571079  0.79714774  1  0  -0.068416  0  3.775347  0  0  -0.045618  0  4.006325  0  0  -0.052875  0  4.028857  0  -0.05985  0  -0.02015  -0.04087  0  3.991114  0
C  C49  1  0.14556798  0.33428592  0.29714915  1  0  -0.068428  0  3.77546  0  0  -0.045596  0  4.006414  0  0  -0.052854  0  4.028947  0  -0.05994  0  -0.020124  -0.040849  0  3.991203  0
C  C50  1  0.14556699  0.83428805  0.20285156  1  0  -0.068445  0  3.775378  0  0  -0.045652  0  4.006359  0  0  -0.052909  0  4.028889  0  -0.059808  0  -0.020166  -0.040904  0  3.991149  0
C  C51  1  0.85443224  0.66571111  0.70285156  1  0  -0.068489  0  3.775384  0  0  -0.045685  0  4.006383  0  0  -0.052942  0  4.028911  0  -0.059857  0  -0.020184  -0.040939  0  3.991175  0
C  C52  1  0.01808952  0.14294941  0.79611370  1  0  -0.071889  0  3.726448  0  0  -0.095696  0  3.977301  0  0  -0.096258  0  3.996836  0  -0.01814  0  -0.086699  -0.095228  0  3.964129  0
C  C53  1  0.98191163  0.35704820  0.29611511  1  0  -0.071909  0  3.726736  0  0  -0.09574  0  3.977589  0  0  -0.096303  0  3.997127  0  -0.017979  0  -0.086712  -0.095272  0  3.964415  0
C  C54  1  0.98191063  0.85705033  0.20388630  1  0  -0.071901  0  3.726546  0  0  -0.095712  0  3.977409  0  0  -0.096275  0  3.996946  0  -0.018142  0  -0.086706  -0.095244  0  3.964236  0
C  C55  1  0.01808859  0.64294883  0.70388560  1  0  -0.07189  0  3.726469  0  0  -0.095697  0  3.97733  0  0  -0.09626  0  3.996865  0  -0.018144  0  -0.086703  -0.095229  0  3.964158  0
C  C56  1  0.15029432  0.20802626  0.73568187  1  0  -0.087848  0  3.758088  0  0  -0.111536  0  4.008475  0  0  -0.112523  0  4.028727  0  -0.069024  0  -0.09254  -0.1108  0  3.994791  0
C  C57  1  0.84970510  0.29197316  0.23568469  1  0  -0.087809  0  3.758188  0  0  -0.111514  0  4.008579  0  0  -0.112498  0  4.028823  0  -0.069213  0  -0.092559  -0.110778  0  3.994895  0
C  C58  1  0.84970583  0.79197348  0.26431743  1  0  -0.08781  0  3.758112  0  0  -0.11151  0  4.008486  0  0  -0.112499  0  4.028743  0  -0.069147  0  -0.092539  -0.110775  0  3.994803  0
C  C59  1  0.15029379  0.70802658  0.76431743  1  0  -0.087768  0  3.758117  0  0  -0.11147  0  4.008491  0  0  -0.112457  0  4.028746  0  -0.06903  0  -0.092517  -0.110734  0  3.994806  0
C  C60  1  0.11977458  0.29599263  0.67622691  1  0  -0.064059  0  3.773106  0  0  -0.040699  0  4.00495  0  0  -0.047286  0  4.026673  0  -0.081552  0  -0.020003  -0.036371  0  3.990286  0
C  C61  1  0.88022398  0.20400769  0.17622832  1  0  -0.064031  0  3.773058  0  0  -0.040667  0  4.004898  0  0  -0.047253  0  4.026621  0  -0.081535  0  -0.01999  -0.03634  0  3.990234  0
C  C62  1  0.88022557  0.70400711  0.32377309  1  0  -0.064112  0  3.773067  0  0  -0.040742  0  4.004913  0  0  -0.047331  0  4.026637  0  -0.081436  0  -0.020006  -0.036415  0  3.99025  0
C  C63  1  0.11977492  0.79599205  0.82377238  1  0  -0.064124  0  3.773089  0  0  -0.040762  0  4.004922  0  0  -0.047351  0  4.026647  0  -0.081547  0  -0.020011  -0.036435  0  3.990259  0
C  C64  1  0.95590590  0.31817193  0.67684310  1  0  -0.074929  0  3.733344  0  0  -0.10206  0  3.989726  0  0  -0.102205  0  4.007823  0  -0.002342  0  -0.086774  -0.101904  0  3.977534  0
C  C65  1  0.04409187  0.18182658  0.17684451  1  0  -0.074878  0  3.733269  0  0  -0.101994  0  3.989638  0  0  -0.102145  0  4.007738  0  -0.00234  0  -0.086742  -0.101838  0  3.977444  0
C  C66  1  0.04409386  0.68182691  0.32315619  1  0  -0.074905  0  3.733362  0  0  -0.102038  0  3.989731  0  0  -0.10219  0  4.007835  0  -0.002359  0  -0.08677  -0.101882  0  3.977539  0
C  C67  1  0.95590537  0.81817225  0.82315619  1  0  -0.074899  0  3.733326  0  0  -0.102034  0  3.989703  0  0  -0.102187  0  4.007806  0  -0.002334  0  -0.086767  -0.101879  0  3.97751  0
C  C68  1  0.82373520  0.25347321  0.73742951  1  0  -0.078086  0  3.746408  0  0  -0.101704  0  3.998641  0  0  -0.10211  0  4.017782  0  -0.014366  0  -0.087314  -0.10134  0  3.985695  0
C  C69  1  0.17626349  0.24652170  0.23743162  1  0  -0.078122  0  3.746388  0  0  -0.101777  0  3.998621  0  0  -0.10218  0  4.01776  0  -0.013746  0  -0.08733  -0.101413  0  3.985679  0
C  C70  1  0.17626289  0.74652473  0.26256979  1  0  -0.078  0  3.746363  0  0  -0.101598  0  3.998592  0  0  -0.101998  0  4.017729  0  -0.014389  0  -0.087252  -0.101233  0  3.985645  0
C  C71  1  0.82373633  0.75347443  0.76256908  1  0  -0.077991  0  3.746411  0  0  -0.101589  0  3.998641  0  0  -0.10199  0  4.017779  0  -0.01439  0  -0.08725  -0.101223  0  3.985693  0
C  C72  1  0.71505758  0.09823886  0.86434284  1  0  0.662757  0  3.900082  0  0  0.611955  0  4.190343  0  0  0.647786  0  4.182056  0  1.569556  0  0.213391  0.587657  0  4.195143  0
C  C73  1  0.28494317  0.40175785  0.36434354  1  0  0.662578  0  3.900107  0  0  0.611751  0  4.190405  0  0  0.647582  0  4.182121  0  1.569514  0  0.213256  0.587455  0  4.195202  0
C  C74  1  0.28494217  0.90175998  0.13565716  1  0  0.662729  0  3.900061  0  0  0.611926  0  4.190325  0  0  0.647756  0  4.18204  0  1.569465  0  0.213365  0.587629  0  4.195124  0
C  C75  1  0.71505831  0.59823918  0.63565646  1  0  0.662749  0  3.900076  0  0  0.611893  0  4.190415  0  0  0.647723  0  4.18213  0  1.569513  0  0.213351  0.587596  0  4.195214  0
C  C76  1  0.26304375  0.36811935  0.61305081  1  0  0.660688  0  3.901883  0  0  0.610569  0  4.192407  0  0  0.646032  0  4.184342  0  1.550518  0  0.212324  0.586521  0  4.197073  0
C  C77  1  0.73695606  0.13188097  0.11305081  1  0  0.660609  0  3.901913  0  0  0.610479  0  4.192462  0  0  0.645942  0  4.184397  0  1.550544  0  0.212294  0.586432  0  4.197125  0
C  C78  1  0.73695514  0.63188039  0.38694848  1  0  0.660732  0  3.901822  0  0  0.610605  0  4.192357  0  0  0.64607  0  4.184289  0  1.550528  0  0.212352  0.586557  0  4.197023  0
C  C79  1  0.26304283  0.86811877  0.88694919  1  0  0.660709  0  3.901862  0  0  0.610615  0  4.192341  0  0  0.64608  0  4.184274  0  1.550454  0  0.212341  0.586568  0  4.197006  0
C  C80  1  0.39633706  0.32475344  0.92876473  1  0  0.389979  0  3.78585  0  0  0.310947  0  4.074241  0  0  0.339333  0  4.075551  0  1.345605  0  0.18088  0.292018  0  4.072795  0
C  C81  1  0.60366323  0.17524508  0.42876543  1  0  0.389975  0  3.785749  0  0  0.310925  0  4.074157  0  0  0.339314  0  4.075463  0  1.345604  0  0.180863  0.291999  0  4.072708  0
C  C82  1  0.60366270  0.67524540  0.07123527  1  0  0.38997  0  3.78581  0  0  0.310936  0  4.074207  0  0  0.339327  0  4.075516  0  1.345598  0  0.180863  0.29201  0  4.072758  0
C  C83  1  0.39633739  0.82475285  0.57123386  1  0  0.390085  0  3.785911  0  0  0.311059  0  4.0743  0  0  0.339447  0  4.075608  0  1.346663  0  0.180961  0.292134  0  4.072849  0
C  C84  1  0.43363378  0.51270669  0.84498895  1  0  -0.179711  0  3.636328  0  0  -0.28401  0  3.89059  0  0  -0.281063  0  3.902207  0  0.22549  0  -0.13019  -0.285665  0  3.882694  0
C  C85  1  0.56636630  0.98729156  0.34498895  1  0  -0.179696  0  3.636357  0  0  -0.283992  0  3.890622  0  0  -0.281046  0  3.902239  0  0.225471  0  -0.130174  -0.285652  0  3.882729  0
C  C86  1  0.56636723  0.48729214  0.15501105  1  0  -0.179648  0  3.636314  0  0  -0.283939  0  3.890575  0  0  -0.280995  0  3.902191  0  0.225467  0  -0.130147  -0.285597  0  3.88268  0
C  C87  1  0.43363431  0.01270637  0.65501105  1  0  -0.179692  0  3.636319  0  0  -0.283963  0  3.89059  0  0  -0.281023  0  3.902196  0  0.225477  0  -0.130173  -0.285622  0  3.882696  0
C  C88  1  0.17570332  0.42934187  0.95168235  1  0  -0.165237  0  3.633141  0  0  -0.263089  0  3.872717  0  0  -0.259439  0  3.883509  0  0.232804  0  -0.126655  -0.26523  0  3.865359  0
C  C89  1  0.82429822  0.07065664  0.45168164  1  0  -0.165264  0  3.633146  0  0  -0.263096  0  3.872703  0  0  -0.259445  0  3.883492  0  0.232793  0  -0.126654  -0.265219  0  3.865355  0
C  C90  1  0.82429644  0.57065696  0.04831836  1  0  -0.165263  0  3.633153  0  0  -0.263117  0  3.872735  0  0  -0.259467  0  3.883525  0  0.232938  0  -0.12667  -0.26526  0  3.865378  0
C  C91  1  0.17570365  0.92934129  0.54831765  1  0  -0.165281  0  3.633192  0  0  -0.263126  0  3.872771  0  0  -0.259476  0  3.883567  0  0.23282  0  -0.126668  -0.265272  0  3.865416  0
N  N92  1  0.34000686  0.41982653  0.91162503  1  0  -0.084719  0  3.513713  0  0  0.018084  0  3.752152  0  0  -0.002485  0  3.778887  0  -1.203908  0  -0.27586  0.031812  0  3.733618  0
N  N93  1  0.65999383  0.08017289  0.41162503  1  0  -0.084678  0  3.513589  0  0  0.018136  0  3.752005  0  0  -0.002437  0  3.778746  0  -1.203892  0  -0.275823  0.031865  0  3.733465  0
N  N94  1  0.65999330  0.58017321  0.08837497  1  0  -0.084665  0  3.513638  0  0  0.01814  0  3.752067  0  0  -0.002431  0  3.778804  0  -1.203886  0  -0.275842  0.031868  0  3.733532  0
N  N95  1  0.34000719  0.91982595  0.58837426  1  0  -0.084715  0  3.513691  0  0  0.018099  0  3.75211  0  0  -0.002472  0  3.778846  0  -1.205122  0  -0.27585  0.031826  0  3.733578  0
O  O96  1  0.59847082  0.14808160  0.88775031  1  0  -0.658988  0  2.087172  0  0  -0.595841  0  2.350027  0  0  -0.625236  0  2.335967  0  -1.181207  0  -0.319536  -0.575348  0  2.358913  0
O  O97  1  0.40153158  0.35191602  0.38775172  1  0  -0.658896  0  2.087222  0  0  -0.595726  0  2.350072  0  0  -0.625124  0  2.33602  0  -1.181244  0  -0.319444  -0.57523  0  2.358954  0
O  O98  1  0.40153059  0.85191814  0.11224899  1  0  -0.658995  0  2.087137  0  0  -0.595846  0  2.349986  0  0  -0.625241  0  2.335931  0  -1.181177  0  -0.31954  -0.575352  0  2.35887  0
O  O99  1  0.59846990  0.64808101  0.61224828  1  0  -0.658959  0  2.087203  0  0  -0.595776  0  2.350053  0  0  -0.625173  0  2.336002  0  -1.181163  0  -0.319484  -0.575281  0  2.358935  0
O  O100  1  0.72492315  0.99664897  0.89317814  1  0  -0.624964  0  2.073265  0  0  -0.556018  0  2.329715  0  0  -0.585211  0  2.315719  0  -1.166175  0  -0.308836  -0.535705  0  2.338557  0
O  O101  1  0.27507574  0.50334657  0.39317885  1  0  -0.624859  0  2.073188  0  0  -0.555929  0  2.329673  0  0  -0.585112  0  2.315655  0  -1.166119  0  -0.308785  -0.535616  0  2.338514  0
O  O102  1  0.27507660  0.00334986  0.10682186  1  0  -0.624932  0  2.07328  0  0  -0.555976  0  2.329723  0  0  -0.58517  0  2.315731  0  -1.166138  0  -0.308799  -0.535662  0  2.338565  0
O  O103  1  0.72492534  0.49664956  0.60682115  1  0  -0.624985  0  2.073265  0  0  -0.556014  0  2.329734  0  0  -0.585206  0  2.315741  0  -1.16616  0  -0.308835  -0.5357  0  2.338577  0
O  O104  1  0.25571379  0.47265815  0.59052634  1  0  -0.634162  0  2.077127  0  0  -0.568261  0  2.338208  0  0  -0.597504  0  2.324245  0  -1.165936  0  -0.310684  -0.547901  0  2.347049  0
O  O105  1  0.74428437  0.02734126  0.09052634  1  0  -0.634122  0  2.077109  0  0  -0.568224  0  2.338197  0  0  -0.597472  0  2.324245  0  -1.165901  0  -0.310674  -0.547863  0  2.347038  0
O  O106  1  0.74428344  0.52734068  0.40947296  1  0  -0.634149  0  2.077156  0  0  -0.568223  0  2.338224  0  0  -0.597465  0  2.324259  0  -1.165935  0  -0.310676  -0.547862  0  2.347065  0
O  O107  1  0.25571578  0.97265847  0.90947225  1  0  -0.634139  0  2.077124  0  0  -0.56824  0  2.338197  0  0  -0.597477  0  2.324219  0  -1.165823  0  -0.310683  -0.54788  0  2.347037  0
O  O108  1  0.38015370  0.31971240  0.58772066  1  0  -0.644523  0  2.058728  0  0  -0.582808  0  2.318139  0  0  -0.611404  0  2.304211  0  -1.173103  0  -0.321158  -0.562931  0  2.326991  0
O  O109  1  0.61984817  0.18028973  0.08771925  1  0  -0.644465  0  2.058744  0  0  -0.582738  0  2.318148  0  0  -0.611335  0  2.304223  0  -1.173122  0  -0.321122  -0.56286  0  2.326997  0
O  O110  1  0.61984519  0.68028734  0.41227863  1  0  -0.644546  0  2.058698  0  0  -0.582841  0  2.318112  0  0  -0.611439  0  2.30418  0  -1.17311  0  -0.321184  -0.562965  0  2.326965  0
O  O111  1  0.38015238  0.81971091  0.91227934  1  0  -0.644536  0  2.058699  0  0  -0.582833  0  2.318092  0  0  -0.611432  0  2.304165  0  -1.173114  0  -0.321171  -0.562956  0  2.326944  0
O  O112  1  0.31850316  0.23873183  0.98258786  1  0  -0.51428  0  2.087715  0  0  -0.442842  0  2.349997  0  0  -0.469811  0  2.33988  0  -1.15923  0  -0.291885  -0.424273  0  2.35636  0
O  O113  1  0.68149878  0.26126759  0.48258856  1  0  -0.514315  0  2.087663  0  0  -0.442874  0  2.349964  0  0  -0.469833  0  2.33982  0  -1.159231  0  -0.291909  -0.424304  0  2.356326  0
O  O114  1  0.68149660  0.76126701  0.01741144  1  0  -0.514273  0  2.087647  0  0  -0.442867  0  2.349979  0  0  -0.469819  0  2.339818  0  -1.159215  0  -0.291882  -0.424298  0  2.35634  0
O  O115  1  0.31850183  0.73873034  0.51741144  1  0  -0.514334  0  2.087689  0  0  -0.44293  0  2.350009  0  0  -0.46989  0  2.339865  0  -1.159065  0  -0.291959  -0.424362  0  2.356372  0
