# generated using pymatgen
data_ZnH12C26N3(OF)4
_symmetry_space_group_name_H-M   'P 1'
_cell_length_a   18.30216157
_cell_length_b   19.22620716
_cell_length_c   19.72070915
_cell_angle_alpha   90.31696556
_cell_angle_beta   90.00619626
_cell_angle_gamma   89.90996880
_symmetry_Int_Tables_number   1
_chemical_formula_structural   ZnH12C26N3(OF)4
_chemical_formula_sum   'Zn2 H24 C52 N6 O8 F8'
_cell_volume   6939.23102251
_cell_formula_units_Z   2
loop_
 _symmetry_equiv_pos_site_id
 _symmetry_equiv_pos_as_xyz
  1  'x, y, z'
loop_
 _atom_site_type_symbol
 _atom_site_label
 _atom_site_symmetry_multiplicity
 _atom_site_fract_x
 _atom_site_fract_y
 _atom_site_fract_z
 _atom_site_occupancy
 _atom_site_pbe_bader_charge
 _atom_site_pbe_bader_spin_density
 _atom_site_pbe_cm5_charge
 _atom_site_pbe_ddec_charge
 _atom_site_pbe_ddec_spin_density
 _atom_site_pbe_ddec_sum_bond_order
 _atom_site_pbe_magmom
Zn  Zn0  1  0.57737096  0.49982615  0.49939810  1  1.301458  0  0.666166  0.816974  0  2.428303  0
Zn  Zn1  1  0.42263498  0.49996227  0.49935389  1  1.28505  0  0.666453  0.81735  0  2.428329  0
H  H2  1  0.61709675  0.27938588  0.51399990  1  0.095385  0  0.105003  0.109904  0  0.998596  0
H  H3  1  0.61793906  0.50004813  0.28222412  1  0.101593  0  0.114983  0.146236  0  0.987134  0
H  H4  1  0.38209737  0.49946535  0.28217355  1  0.100666  0  0.115025  0.146115  0  0.986919  0
H  H5  1  0.61789037  0.50053988  0.71693880  1  0.144175  0  0.114987  0.146721  0  0.986103  0
H  H6  1  0.69336700  0.57514899  0.57507502  1  0.13022  0  0.130558  0.105674  0  0.966907  0
H  H7  1  0.30621389  0.42461633  0.42444310  1  0.125978  0  0.131166  0.105732  0  0.96538  0
H  H8  1  0.69396545  0.42466020  0.42447466  1  0.124881  0  0.130673  0.104964  0  0.965425  0
H  H9  1  0.30647765  0.57510191  0.57505265  1  0.132699  0  0.130481  0.10551  0  0.967316  0
H  H10  1  0.83003293  0.57915843  0.57835890  1  0.066858  0  0.114484  0.120846  0  0.989246  0
H  H11  1  0.16956646  0.42072510  0.42170909  1  0.06332  0  0.114538  0.12095  0  0.990593  0
H  H12  1  0.83061648  0.42070066  0.42168915  1  0.060673  0  0.11441  0.12077  0  0.99049  0
H  H13  1  0.38291131  0.72067122  0.51457165  1  0.096384  0  0.104298  0.108524  0  0.999958  0
H  H14  1  0.16979975  0.57918486  0.57838042  1  0.065384  0  0.114404  0.120668  0  0.989385  0
H  H15  1  0.93267951  0.48597276  0.39148133  1  0.075977  0  0.108828  0.108299  0  0.993112  0
H  H16  1  0.06732726  0.51417016  0.60862512  1  0.036608  0  0.109085  0.108838  0  0.992696  0
H  H17  1  0.93260568  0.51414613  0.60862605  1  0.036408  0  0.1092  0.109108  0  0.992481  0
H  H18  1  0.06739782  0.48599473  0.39148547  1  0.078746  0  0.10893  0.108535  0  0.993048  0
H  H19  1  0.61712759  0.72047415  0.51453468  1  0.088856  0  0.104547  0.108618  0  0.999683  0
H  H20  1  0.38287172  0.27958786  0.51396385  1  0.093526  0  0.104965  0.109628  0  0.998853  0
H  H21  1  0.61758203  0.15039668  0.53294861  1  0.082778  0  0.105589  0.104058  0  1.015134  0
H  H22  1  0.38240704  0.84991915  0.53337328  1  0.080296  0  0.105407  0.103874  0  1.015091  0
H  H23  1  0.61751339  0.84970479  0.53334245  1  0.082907  0  0.105618  0.103948  0  1.015198  0
H  H24  1  0.38248277  0.15061076  0.53291302  1  0.083309  0  0.105793  0.104215  0  1.014984  0
H  H25  1  0.38206344  0.49995462  0.71692170  1  0.14088  0  0.11488  0.146756  0  0.986428  0
C  C26  1  0.49999990  0.49917802  0.36635176  1  1.600999  0  0.216664  0.592759  0  4.163986  0
C  C27  1  0.47245397  0.44383182  0.96382073  1  0.570499  0  0.092576  0.140217  0  4.081641  0
C  C28  1  0.50005966  0.49984386  0.07186057  1  0.212544  0  -0.021045  -0.08615  0  4.088235  0
C  C29  1  0.49995704  0.50017020  0.92725484  1  0.08955  0  -0.021302  -0.085703  0  4.088562  0
C  C30  1  0.72648751  0.54191722  0.54221909  1  0.424083  0  0.061424  0.106473  0  3.927846  0
C  C31  1  0.27329277  0.45790980  0.45741527  1  0.430232  0  0.06156  0.107917  0  3.927753  0
C  C32  1  0.72682130  0.45792151  0.45744477  1  0.436332  0  0.061683  0.108224  0  3.926629  0
C  C33  1  0.27342668  0.54190050  0.54219520  1  0.423035  0  0.061244  0.106371  0  3.92771  0
C  C34  1  0.80231786  0.54335798  0.54392742  1  0.016886  0  -0.078715  -0.179419  0  3.948523  0
C  C35  1  0.19745855  0.45652279  0.45600620  1  0.014495  0  -0.079179  -0.180633  0  3.950986  0
C  C36  1  0.80265504  0.45649869  0.45600578  1  0.013115  0  -0.079017  -0.180483  0  3.949968  0
C  C37  1  0.49998628  0.50073559  0.63286897  1  1.564345  0  0.21612  0.590661  0  4.167154  0
C  C38  1  0.19759401  0.54337346  0.54394257  1  0.015527  0  -0.078748  -0.179318  0  3.948303  0
C  C39  1  0.84238554  0.49996699  0.50000905  1  -0.008429  0  0.017474  0.114714  0  3.997297  0
C  C40  1  0.15762574  0.50000918  0.50002311  1  -0.008776  0  0.017556  0.114593  0  3.997235  0
C  C41  1  0.96206427  0.49103255  0.43936022  1  -0.0937  0  -0.082534  -0.117192  0  3.982807  0
C  C42  1  0.03793925  0.50909166  0.56075178  1  -0.028144  0  -0.08278  -0.117743  0  3.982067  0
C  C43  1  0.96201839  0.50907037  0.56075421  1  0.14519  0  -0.082805  -0.118292  0  3.981949  0
C  C44  1  0.03798459  0.49104294  0.43936183  1  0.076247  0  -0.082577  -0.11794  0  3.983303  0
C  C45  1  0.07714446  0.50007124  0.50006364  1  -0.069105  0  -0.004116  0.060847  0  4.0034  0
C  C46  1  0.92286126  0.50003165  0.50004985  1  -0.069467  0  -0.004155  0.060517  0  4.003564  0
C  C47  1  0.49997386  0.36413516  0.50318385  1  1.572807  0  0.214099  0.587206  0  4.177689  0
C  C48  1  0.49995188  0.50031899  0.85238243  1  0.154568  0  -0.024829  -0.130083  0  4.034456  0
C  C49  1  0.50002521  0.63565287  0.50508562  1  1.573344  0  0.214991  0.590015  0  4.174244  0
C  C50  1  0.56619830  0.25038311  0.51776971  1  -0.056399  0  -0.082435  -0.088502  0  3.973752  0
C  C51  1  0.43380721  0.74967774  0.51877980  1  -0.061802  0  -0.082253  -0.087985  0  3.973111  0
C  C52  1  0.56618626  0.74955082  0.51875282  1  -0.059276  0  -0.082647  -0.087817  0  3.972722  0
C  C53  1  0.43380559  0.25051658  0.51774092  1  0.020509  0  -0.082066  -0.087493  0  3.972919  0
C  C54  1  0.56644146  0.17898539  0.52826208  1  0.008233  0  -0.082105  -0.107896  0  3.968392  0
C  C55  1  0.43355131  0.82122772  0.52902289  1  0.013232  0  -0.081911  -0.107421  0  3.966726  0
C  C56  1  0.56640079  0.82109940  0.52899493  1  -0.002477  0  -0.081612  -0.107321  0  3.967669  0
C  C57  1  0.43358978  0.17912548  0.52824188  1  -0.069003  0  -0.082273  -0.108403  0  3.968777  0
C  C58  1  0.50002846  0.14270693  0.53386022  1  -0.027259  0  -0.005041  0.019841  0  3.999446  0
C  C59  1  0.50005549  0.49973725  0.14674420  1  -0.022442  0  -0.025111  -0.129081  0  4.031938  0
C  C60  1  0.49996450  0.85758480  0.53459950  1  -0.015932  0  -0.005095  0.018627  0  3.998803  0
C  C61  1  0.49999132  0.28677135  0.51254332  1  -0.025709  0  -0.009992  -0.017029  0  3.944521  0
C  C62  1  0.50001078  0.71316666  0.51398043  1  -0.012401  0  -0.011115  -0.018517  0  3.945372  0
C  C63  1  0.49997858  0.93305719  0.54570156  1  0.953619  0  0.239832  0.247159  0  3.991254  0
C  C64  1  0.50001038  0.06743175  0.54534404  1  0.956072  0  0.239471  0.246495  0  3.991339  0
C  C65  1  0.43361529  0.50008303  0.74438454  1  0.11491  0  -0.098502  -0.240853  0  3.981182  0
C  C66  1  0.56637189  0.49995001  0.25478870  1  0.031382  0  -0.098483  -0.238794  0  3.980429  0
C  C67  1  0.43368109  0.49913034  0.25476654  1  0.03446  0  -0.098424  -0.238774  0  3.980599  0
C  C68  1  0.56633396  0.50088961  0.74439046  1  0.112884  0  -0.098641  -0.240466  0  3.981148  0
C  C69  1  0.43509193  0.49970767  0.81457937  1  0.359252  0  0.103283  0.271938  0  4.055345  0
C  C70  1  0.49997614  0.50063158  0.70916280  1  -0.01522  0  -0.00662  0.03665  0  3.97101  0
C  C71  1  0.56489907  0.50032474  0.18456751  1  0.506118  0  0.103114  0.270158  0  4.054969  0
C  C72  1  0.43521648  0.49905971  0.18455554  1  0.501812  0  0.103201  0.270788  0  4.053854  0
C  C73  1  0.56481003  0.50097164  0.81459184  1  0.362845  0  0.103659  0.271726  0  4.055852  0
C  C74  1  0.50001815  0.49939894  0.29003224  1  -0.012935  0  -0.00728  0.034387  0  3.970386  0
C  C75  1  0.52746090  0.55632297  0.96468861  1  0.614741  0  0.0919  0.139661  0  4.082924  0
C  C76  1  0.47252410  0.44369110  0.03442375  1  0.472406  0  0.091728  0.139634  0  4.082343  0
C  C77  1  0.52753322  0.55619109  0.03529165  1  0.442099  0  0.091902  0.139538  0  4.083728  0
N  N78  1  0.43514686  0.03463337  0.55364941  1  -0.480015  0  -0.157823  -0.151451  0  3.222564  0
N  N79  1  0.56483636  0.96598933  0.55383153  1  -0.639001  0  -0.158505  -0.152271  0  3.224284  0
N  N80  1  0.43514326  0.96621923  0.55384011  1  -0.625877  0  -0.158856  -0.152353  0  3.22284  0
N  N81  1  0.56484325  0.03440096  0.55366212  1  -0.468135  0  -0.157923  -0.151439  0  3.223546  0
N  N82  1  0.68933256  0.49992774  0.49974361  1  -1.21713  0  -0.319673  -0.197553  0  3.518995  0
N  N83  1  0.31067826  0.49992894  0.49968138  1  -1.214459  0  -0.319852  -0.197802  0  3.518995  0
O  O84  1  0.56208789  0.49906751  0.39533377  1  -1.16681  0  -0.315584  -0.544937  0  2.317691  0
O  O85  1  0.43790547  0.50076230  0.60387517  1  -1.168218  0  -0.315766  -0.545149  0  2.316516  0
O  O86  1  0.56207664  0.50075041  0.60389134  1  -1.168179  0  -0.31599  -0.545453  0  2.316317  0
O  O87  1  0.43790524  0.49907735  0.39532216  1  -1.166779  0  -0.316022  -0.545244  0  2.317625  0
O  O88  1  0.56199602  0.39396112  0.50001959  1  -1.168898  0  -0.318287  -0.549643  0  2.330885  0
O  O89  1  0.43801004  0.60578692  0.50198529  1  -1.169107  0  -0.317995  -0.550144  0  2.330806  0
O  O90  1  0.56206601  0.60566891  0.50197441  1  -1.169562  0  -0.317515  -0.549329  0  2.33182  0
O  O91  1  0.43792911  0.39408213  0.49999852  1  -1.16873  0  -0.317885  -0.549331  0  2.333051  0
F  F92  1  0.37063024  0.49988852  0.84904377  1  -0.624684  0  -0.107411  -0.146062  0  1.316544  0
F  F93  1  0.62937173  0.50009875  0.15013143  1  -0.625515  0  -0.107229  -0.14565  0  1.316201  0
F  F94  1  0.37076342  0.49940453  0.15007133  1  -0.626166  0  -0.107215  -0.145774  0  1.316424  0
F  F95  1  0.62926697  0.50056275  0.84905314  1  -0.624152  0  -0.107503  -0.145857  0  1.316603  0
F  F96  1  0.55320945  0.61287865  0.93200213  1  -0.61587  0  -0.093497  -0.109207  0  1.354853  0
F  F97  1  0.44674822  0.38715370  0.06712395  1  -0.617566  0  -0.093843  -0.109404  0  1.355266  0
F  F98  1  0.55329218  0.61259813  0.06879425  1  -0.614469  0  -0.093033  -0.108282  0  1.355388  0
F  F99  1  0.44663708  0.38744413  0.93033134  1  -0.615592  0  -0.093131  -0.108287  0  1.354635  0
