# generated using pymatgen
data_Sn2H3C7NO5
_symmetry_space_group_name_H-M   'P 1'
_cell_length_a   6.60892014
_cell_length_b   7.60592374
_cell_length_c   20.27987421
_cell_angle_alpha   87.92580425
_cell_angle_beta   90.00494784
_cell_angle_gamma   115.81307818
_symmetry_Int_Tables_number   1
_chemical_formula_structural   Sn2H3C7NO5
_chemical_formula_sum   'Sn8 H12 C28 N4 O20'
_cell_volume   916.94973506
_cell_formula_units_Z   4
loop_
 _symmetry_equiv_pos_site_id
 _symmetry_equiv_pos_as_xyz
  1  'x, y, z'
loop_
 _atom_site_type_symbol
 _atom_site_label
 _atom_site_symmetry_multiplicity
 _atom_site_fract_x
 _atom_site_fract_y
 _atom_site_fract_z
 _atom_site_occupancy
 _atom_site_hle17_bader_spin_density
 _atom_site_hle17_ddec_charge
 _atom_site_hle17_ddec_spin_density
 _atom_site_hle17_ddec_sum_bond_order
 _atom_site_hle17_magmom
 _atom_site_hse06_10hf_bader_spin_density
 _atom_site_hse06_10hf_ddec_charge
 _atom_site_hse06_10hf_ddec_spin_density
 _atom_site_hse06_10hf_ddec_sum_bond_order
 _atom_site_hse06_10hf_magmom
 _atom_site_hse06_bader_spin_density
 _atom_site_hse06_ddec_charge
 _atom_site_hse06_ddec_spin_density
 _atom_site_hse06_ddec_sum_bond_order
 _atom_site_hse06_magmom
 _atom_site_pbe_bader_spin_density
 _atom_site_pbe_cm5_charge
 _atom_site_pbe_ddec_charge
 _atom_site_pbe_ddec_spin_density
 _atom_site_pbe_ddec_sum_bond_order
 _atom_site_pbe_magmom
Sn  Sn0  1  0.27280076  0.52362823  0.56050571  1  0  1.003924  0  1.966026  0  0  0.814198  0  2.402483  0  0  0.855756  0  2.378989  0  0  0.516023  0.784352  0  2.418987  0
Sn  Sn1  1  0.74930473  0.47602298  0.93941921  1  0  1.003955  0  1.965172  0  0  0.814525  0  2.401512  0  0  0.856076  0  2.377918  0  0  0.515915  0.784766  0  2.418032  0
Sn  Sn2  1  0.72722353  0.47643108  0.43947797  1  0  1.003947  0  1.966365  0  0  0.814226  0  2.402831  0  0  0.855767  0  2.379355  0  0  0.516027  0.784388  0  2.419328  0
Sn  Sn3  1  0.25075899  0.52398812  0.06061461  1  0  1.003774  0  1.96565  0  0  0.814547  0  2.401945  0  0  0.855953  0  2.378488  0  0  0.515847  0.78481  0  2.418463  0
Sn  Sn4  1  0.68379886  0.95367846  0.95691086  1  0  0.968752  0  2.060286  0  0  0.822804  0  2.460421  0  0  0.859736  0  2.440254  0  0  0.482069  0.796077  0  2.475292  0
Sn  Sn5  1  0.73028479  0.04710686  0.54306510  1  0  0.968464  0  2.060147  0  0  0.822307  0  2.460927  0  0  0.859424  0  2.440745  0  0  0.482204  0.795483  0  2.475761  0
Sn  Sn6  1  0.31624739  0.04631892  0.04308310  1  0  0.968626  0  2.060679  0  0  0.82252  0  2.461191  0  0  0.859565  0  2.440888  0  0  0.482023  0.7958  0  2.476067  0
Sn  Sn7  1  0.26969647  0.95290878  0.45694058  1  0  0.968422  0  2.060099  0  0  0.82243  0  2.460506  0  0  0.859542  0  2.440322  0  0  0.482215  0.795593  0  2.47534  0
H  H8  1  0.81743388  0.76211290  0.72708700  1  0  0.123406  0  0.976094  0  0  0.130343  0  1.038212  0  0  0.134982  0  1.034918  0  0  0.110497  0.126929  0  1.040895  0
H  H9  1  0.05450041  0.23688555  0.77296766  1  0  0.124308  0  0.975585  0  0  0.130952  0  1.037883  0  0  0.135614  0  1.034523  0  0  0.111051  0.127524  0  1.040608  0
H  H10  1  0.18253883  0.23789475  0.27290542  1  0  0.123445  0  0.976042  0  0  0.130409  0  1.038139  0  0  0.135039  0  1.034861  0  0  0.110508  0.126996  0  1.040819  0
H  H11  1  0.94553674  0.76312991  0.22704147  1  0  0.124212  0  0.975754  0  0  0.130897  0  1.038019  0  0  0.135555  0  1.034665  0  0  0.111004  0.127474  0  1.040731  0
H  H12  1  0.06995718  0.83182901  0.82301603  1  0  0.109868  0  0.941421  0  0  0.117138  0  1.008555  0  0  0.120756  0  1.00571  0  0  0.115252  0.114598  0  1.010518  0
H  H13  1  0.23710083  0.16760120  0.67699001  1  0  0.110507  0  0.940993  0  0  0.118051  0  1.007823  0  0  0.121721  0  1.004895  0  0  0.115717  0.115474  0  1.009789  0
H  H14  1  0.93000053  0.16812750  0.17697673  1  0  0.109736  0  0.941495  0  0  0.117038  0  1.008609  0  0  0.120656  0  1.005763  0  0  0.115262  0.114497  0  1.010577  0
H  H15  1  0.76293773  0.83242616  0.32301559  1  0  0.110358  0  0.940984  0  0  0.117851  0  1.007916  0  0  0.121566  0  1.004943  0  0  0.115663  0.115274  0  1.009881  0
H  H16  1  0.50696790  0.67512131  0.70577123  1  0  0.08867  0  0.9679  0  0  0.094185  0  1.037705  0  0  0.097813  0  1.033776  0  0  0.119201  0.09148  0  1.040593  0
H  H17  1  0.83142509  0.32439948  0.79413743  1  0  0.087485  0  0.968993  0  0  0.093479  0  1.03855  0  0  0.097103  0  1.034542  0  0  0.119002  0.090807  0  1.04147  0
H  H18  1  0.49299335  0.32485740  0.29421645  1  0  0.088616  0  0.967791  0  0  0.094069  0  1.037706  0  0  0.097788  0  1.033613  0  0  0.119194  0.091365  0  1.040595  0
H  H19  1  0.16860294  0.67561288  0.20587468  1  0  0.087371  0  0.969062  0  0  0.093406  0  1.03857  0  0  0.097039  0  1.034569  0  0  0.119016  0.090735  0  1.041489  0
C  C20  1  0.02722224  0.67868035  0.66624351  1  0  0.106867  0  3.706951  0  0  0.106327  0  3.947368  0  0  0.109261  0  3.964281  0  0  0.123896  0.104403  0  3.935894  0
C  C21  1  0.34811099  0.32063059  0.83375345  1  0  0.106661  0  3.706615  0  0  0.105561  0  3.947572  0  0  0.108492  0  3.964522  0  0  0.123352  0.103637  0  3.936089  0
C  C22  1  0.97274974  0.32133189  0.33374542  1  0  0.106855  0  3.706873  0  0  0.106672  0  3.946907  0  0  0.109602  0  3.963824  0  0  0.124058  0.104749  0  3.935439  0
C  C23  1  0.65191810  0.67936575  0.16625779  1  0  0.107001  0  3.706231  0  0  0.105623  0  3.947425  0  0  0.108559  0  3.964366  0  0  0.123416  0.103698  0  3.935945  0
C  C24  1  0.97035853  0.74298214  0.72364588  1  0  -0.09618  0  3.670945  0  0  -0.11796  0  3.920189  0  0  -0.123574  0  3.9384  0  0  -0.068698  -0.114555  0  3.90821  0
C  C25  1  0.22663372  0.25624961  0.77639354  1  0  -0.095721  0  3.671275  0  0  -0.117019  0  3.92057  0  0  -0.122617  0  3.938799  0  0  -0.068743  -0.113627  0  3.908587  0
C  C26  1  0.02961359  0.25702130  0.27634360  1  0  -0.09626  0  3.670866  0  0  -0.118195  0  3.920073  0  0  -0.123815  0  3.938294  0  0  -0.06882  -0.114792  0  3.9081  0
C  C27  1  0.77339613  0.74375732  0.22361170  1  0  -0.095893  0  3.671489  0  0  -0.117109  0  3.920806  0  0  -0.122714  0  3.939061  0  0  -0.068807  -0.113716  0  3.90882  0
C  C28  1  0.11206575  0.78252311  0.77750605  1  0  0.001643  0  3.663725  0  0  -0.026645  0  3.914304  0  0  -0.021278  0  3.930566  0  0  -0.051973  -0.029716  0  3.903001  0
C  C29  1  0.32865680  0.21691863  0.72250079  1  0  0.000471  0  3.664004  0  0  -0.028168  0  3.914348  0  0  -0.022836  0  3.930576  0  0  -0.052025  -0.031171  0  3.903078  0
C  C30  1  0.88788336  0.21744646  0.22248810  1  0  0.001812  0  3.66349  0  0  -0.026451  0  3.91404  0  0  -0.021082  0  3.930299  0  0  -0.051878  -0.029515  0  3.902714  0
C  C31  1  0.67136685  0.78309405  0.27750589  1  0  0.000766  0  3.663905  0  0  -0.027923  0  3.914261  0  0  -0.022643  0  3.930474  0  0  -0.051963  -0.030907  0  3.903016  0
C  C32  1  0.31056634  0.76113435  0.77206008  1  0  -0.1003  0  3.718241  0  0  -0.078928  0  3.958517  0  0  -0.090489  0  3.98143  0  0  -0.006396  -0.071741  0  3.9434  0
C  C33  1  0.54864086  0.23841960  0.72789944  1  0  -0.102015  0  3.717092  0  0  -0.080291  0  3.957694  0  0  -0.091853  0  3.980534  0  0  -0.007508  -0.073088  0  3.942579  0
C  C34  1  0.68937970  0.23882908  0.22793905  1  0  -0.100526  0  3.717999  0  0  -0.079154  0  3.958299  0  0  -0.090719  0  3.981218  0  0  -0.006562  -0.07196  0  3.943175  0
C  C35  1  0.45138604  0.76158747  0.27210333  1  0  -0.10198  0  3.717193  0  0  -0.080107  0  3.957646  0  0  -0.091655  0  3.980497  0  0  -0.007517  -0.072983  0  3.942641  0
C  C36  1  0.35526681  0.69523823  0.71271223  1  0  0.138611  0  3.640543  0  0  0.096305  0  3.890165  0  0  0.104977  0  3.905386  0  0  0.065851  0.0907  0  3.879931  0
C  C37  1  0.65959169  0.30428458  0.78722190  1  0  0.141404  0  3.640552  0  0  0.098172  0  3.890711  0  0  0.106945  0  3.90593  0  0  0.066916  0.092475  0  3.880444  0
C  C38  1  0.64468880  0.30475340  0.28727930  1  0  0.138723  0  3.640524  0  0  0.096451  0  3.890183  0  0  0.105094  0  3.905397  0  0  0.065818  0.090846  0  3.879955  0
C  C39  1  0.34043215  0.69571638  0.21278536  1  0  0.141639  0  3.640709  0  0  0.098305  0  3.89086  0  0  0.107056  0  3.90608  0  0  0.066961  0.092627  0  3.880618  0
C  C40  1  0.87677559  0.62843215  0.60711630  1  0  0.623639  0  3.884782  0  0  0.564476  0  4.183878  0  0  0.599585  0  4.174616  0  0  0.228857  0.540778  0  4.189274  0
C  C41  1  0.24828987  0.37097239  0.89293379  1  0  0.624346  0  3.882809  0  0  0.565547  0  4.181795  0  0  0.600652  0  4.172541  0  0  0.229551  0.541849  0  4.187216  0
C  C42  1  0.12319501  0.37157430  0.39287168  1  0  0.623451  0  3.884587  0  0  0.564057  0  4.183859  0  0  0.59916  0  4.174608  0  0  0.228695  0.540361  0  4.189253  0
C  C43  1  0.75174477  0.62901085  0.10707704  1  0  0.623849  0  3.883085  0  0  0.565328  0  4.181794  0  0  0.60044  0  4.172532  0  0  0.229444  0.541629  0  4.187225  0
C  C44  1  0.47808374  0.81183097  0.82672601  1  0  0.624394  0  3.930143  0  0  0.574649  0  4.223637  0  0  0.608646  0  4.216943  0  0  0.208172  0.551712  0  4.227364  0
C  C45  1  0.66556690  0.18802943  0.67320961  1  0  0.624055  0  3.926067  0  0  0.574145  0  4.219852  0  0  0.608218  0  4.213095  0  0  0.20746  0.551205  0  4.223581  0
C  C46  1  0.52185588  0.18811361  0.17327078  1  0  0.624415  0  3.929842  0  0  0.574701  0  4.223296  0  0  0.608713  0  4.216607  0  0  0.208111  0.551762  0  4.22703  0
C  C47  1  0.33447438  0.81201847  0.32679436  1  0  0.623309  0  3.926791  0  0  0.573346  0  4.220593  0  0  0.607403  0  4.213864  0  0  0.207047  0.550422  0  4.224323  0
N  N48  1  0.21727989  0.65500955  0.66155686  1  0  -0.289258  0  3.26236  0  0  -0.21044  0  3.502061  0  0  -0.227007  0  3.521651  0  0  -0.279109  -0.19913  0  3.488438  0
N  N49  1  0.56203502  0.34450158  0.83838467  1  0  -0.289811  0  3.261493  0  0  -0.210635  0  3.501636  0  0  -0.22727  0  3.521251  0  0  -0.27892  -0.199323  0  3.488079  0
N  N50  1  0.78268613  0.34500286  0.33842911  1  0  -0.289139  0  3.262299  0  0  -0.210495  0  3.502063  0  0  -0.22707  0  3.521676  0  0  -0.279064  -0.199196  0  3.488456  0
N  N51  1  0.43798046  0.65548872  0.16163005  1  0  -0.289766  0  3.261463  0  0  -0.210559  0  3.50188  0  0  -0.227195  0  3.52151  0  0  -0.278882  -0.199249  0  3.488323  0
O  O52  1  0.93543814  0.55332635  0.55862922  1  0  -0.619526  0  2.141556  0  0  -0.523957  0  2.380965  0  0  -0.553872  0  2.374022  0  0  -0.258205  -0.503025  0  2.385085  0
O  O53  1  0.38233871  0.44618823  0.94137897  1  0  -0.61854  0  2.140267  0  0  -0.523938  0  2.381077  0  0  -0.553643  0  2.373677  0  0  -0.258641  -0.503079  0  2.385321  0
O  O54  1  0.06451947  0.44669044  0.44135672  1  0  -0.619746  0  2.141573  0  0  -0.523929  0  2.380875  0  0  -0.553829  0  2.373913  0  0  -0.258171  -0.502995  0  2.384987  0
O  O55  1  0.61766151  0.55376857  0.05863401  1  0  -0.618177  0  2.140285  0  0  -0.523743  0  2.381078  0  0  -0.553465  0  2.373703  0  0  -0.25852  -0.502838  0  2.385222  0
O  O56  1  0.70675192  0.66154207  0.60817703  1  0  -0.616926  0  2.040148  0  0  -0.554777  0  2.288083  0  0  -0.581664  0  2.282855  0  0  -0.278307  -0.535898  0  2.290747  0
O  O57  1  0.04502407  0.33778390  0.89189135  1  0  -0.618687  0  2.04055  0  0  -0.556367  0  2.288498  0  0  -0.583407  0  2.283422  0  0  -0.278709  -0.537394  0  2.291056  0
O  O58  1  0.29322529  0.33846550  0.39181686  1  0  -0.616646  0  2.039989  0  0  -0.554526  0  2.288072  0  0  -0.581411  0  2.282836  0  0  -0.278226  -0.53565  0  2.290733  0
O  O59  1  0.95500961  0.66221858  0.10811491  1  0  -0.618599  0  2.041007  0  0  -0.556329  0  2.288831  0  0  -0.583353  0  2.283743  0  0  -0.278676  -0.537375  0  2.291418  0
O  O60  1  0.64585596  0.77754688  0.82108412  1  0  -0.617435  0  1.976585  0  0  -0.568806  0  2.207374  0  0  -0.594087  0  2.204033  0  0  -0.302662  -0.551117  0  2.209257  0
O  O61  1  0.86768903  0.22232009  0.67898461  1  0  -0.617097  0  1.975167  0  0  -0.568639  0  2.206767  0  0  -0.593936  0  2.203474  0  0  -0.30235  -0.550884  0  2.208499  0
O  O62  1  0.35407877  0.22239699  0.17889986  1  0  -0.617437  0  1.976434  0  0  -0.568853  0  2.207401  0  0  -0.594138  0  2.20406  0  0  -0.302608  -0.551168  0  2.209285  0
O  O63  1  0.13235689  0.77773102  0.32101442  1  0  -0.616847  0  1.975453  0  0  -0.56839  0  2.207019  0  0  -0.593664  0  2.20369  0  0  -0.302313  -0.550632  0  2.208742  0
O  O64  1  0.43336246  0.89073782  0.87682899  1  0  -0.581498  0  2.037269  0  0  -0.50959  0  2.27663  0  0  -0.535835  0  2.268778  0  0  -0.281883  -0.491222  0  2.281264  0
O  O65  1  0.54204697  0.10946339  0.62299666  1  0  -0.581143  0  2.034794  0  0  -0.509338  0  2.274474  0  0  -0.535896  0  2.266971  0  0  -0.281561  -0.490954  0  2.279081  0
O  O66  1  0.56660738  0.10919456  0.12317676  1  0  -0.581303  0  2.037347  0  0  -0.509514  0  2.276888  0  0  -0.535811  0  2.269058  0  0  -0.281765  -0.491148  0  2.281525  0
O  O67  1  0.45801959  0.89057152  0.37700494  1  0  -0.580886  0  2.035138  0  0  -0.508929  0  2.274545  0  0  -0.535475  0  2.26706  0  0  -0.281184  -0.490528  0  2.279127  0
O  O68  1  0.41631492  0.81010153  0.52143700  1  0  -0.868614  0  1.853612  0  0  -0.728891  0  2.113307  0  0  -0.763297  0  2.099346  0  0  -0.44288  -0.704155  0  2.122302  0
O  O69  1  0.60620306  0.18986581  0.97867810  1  0  -0.868642  0  1.854262  0  0  -0.72875  0  2.113689  0  0  -0.763201  0  2.099827  0  0  -0.44239  -0.704153  0  2.122806  0
O  O70  1  0.58368926  0.18995990  0.47855998  1  0  -0.868668  0  1.853325  0  0  -0.728963  0  2.113018  0  0  -0.763377  0  2.099072  0  0  -0.442891  -0.704226  0  2.122011  0
O  O71  1  0.39381101  0.81009751  0.02132350  1  0  -0.868493  0  1.85385  0  0  -0.728732  0  2.113389  0  0  -0.763074  0  2.099419  0  0  -0.44249  -0.704161  0  2.122527  0
