# generated using pymatgen
data_ZnH8C6(BrN)2
_symmetry_space_group_name_H-M   'P 1'
_cell_length_a   6.14019618
_cell_length_b   10.35335009
_cell_length_c   14.24042992
_cell_angle_alpha   89.99965528
_cell_angle_beta   90.00005491
_cell_angle_gamma   90.00044307
_symmetry_Int_Tables_number   1
_chemical_formula_structural   ZnH8C6(BrN)2
_chemical_formula_sum   'Zn4 H32 C24 Br8 N8'
_cell_volume   905.28692362
_cell_formula_units_Z   4
loop_
 _symmetry_equiv_pos_site_id
 _symmetry_equiv_pos_as_xyz
  1  'x, y, z'
loop_
 _atom_site_type_symbol
 _atom_site_label
 _atom_site_symmetry_multiplicity
 _atom_site_fract_x
 _atom_site_fract_y
 _atom_site_fract_z
 _atom_site_occupancy
 _atom_site_hle17_bader_spin_density
 _atom_site_hle17_ddec_charge
 _atom_site_hle17_ddec_spin_density
 _atom_site_hle17_ddec_sum_bond_order
 _atom_site_hle17_magmom
 _atom_site_hse06_10hf_bader_spin_density
 _atom_site_hse06_10hf_ddec_charge
 _atom_site_hse06_10hf_ddec_spin_density
 _atom_site_hse06_10hf_ddec_sum_bond_order
 _atom_site_hse06_10hf_magmom
 _atom_site_hse06_bader_spin_density
 _atom_site_hse06_ddec_charge
 _atom_site_hse06_ddec_spin_density
 _atom_site_hse06_ddec_sum_bond_order
 _atom_site_hse06_magmom
 _atom_site_pbe_bader_spin_density
 _atom_site_pbe_cm5_charge
 _atom_site_pbe_ddec_charge
 _atom_site_pbe_ddec_spin_density
 _atom_site_pbe_ddec_sum_bond_order
 _atom_site_pbe_magmom
Zn  Zn0  1  0.38188254  0.25000679  0.49662990  1  0  0.779555  0  2.070464  0  0  0.60721  0  2.536122  0  0  0.650718  0  2.491603  0  0  0.514001  0.577014  0  2.566995  0
Zn  Zn1  1  0.11812288  0.74999786  0.99662699  1  0  0.779532  0  2.070414  0  0  0.607241  0  2.53609  0  0  0.650761  0  2.491549  0  0  0.514015  0.577046  0  2.566971  0
Zn  Zn2  1  0.61810307  0.75000487  0.50337232  1  0  0.779464  0  2.07046  0  0  0.607152  0  2.536141  0  0  0.650665  0  2.491629  0  0  0.513948  0.576962  0  2.567008  0
Zn  Zn3  1  0.88189531  0.24999835  0.00337031  1  0  0.77944  0  2.070551  0  0  0.607132  0  2.536192  0  0  0.65064  0  2.491674  0  0  0.51396  0.576935  0  2.567063  0
H  H4  1  0.09520018  0.37326438  0.36306338  1  0  0.094061  0  0.965057  0  0  0.099476  0  1.034678  0  0  0.102264  0  1.032882  0  0  0.109145  0.097413  0  1.036405  0
H  H5  1  0.40480004  0.62673364  0.86306183  1  0  0.093994  0  0.964947  0  0  0.099418  0  1.034556  0  0  0.102203  0  1.032769  0  0  0.109123  0.097356  0  1.03628  0
H  H6  1  0.90481638  0.87325687  0.63693197  1  0  0.093959  0  0.965123  0  0  0.099383  0  1.034743  0  0  0.10217  0  1.03295  0  0  0.10911  0.097311  0  1.0365  0
H  H7  1  0.59518882  0.12674333  0.13692969  1  0  0.093998  0  0.965111  0  0  0.099446  0  1.034702  0  0  0.102231  0  1.03291  0  0  0.109154  0.097371  0  1.036461  0
H  H8  1  0.90479032  0.62674632  0.63693813  1  0  0.093935  0  0.964943  0  0  0.099351  0  1.034563  0  0  0.102139  0  1.03277  0  0  0.109108  0.097278  0  1.03631  0
H  H9  1  0.59520511  0.37326354  0.13693828  1  0  0.094044  0  0.965086  0  0  0.099458  0  1.0347  0  0  0.102243  0  1.032911  0  0  0.109118  0.097391  0  1.036413  0
H  H10  1  0.09520832  0.12674321  0.36306322  1  0  0.094068  0  0.964945  0  0  0.099471  0  1.034579  0  0  0.102262  0  1.032777  0  0  0.109133  0.097401  0  1.036313  0
H  H11  1  0.40479679  0.87326061  0.86305918  1  0  0.09406  0  0.964806  0  0  0.099472  0  1.034433  0  0  0.102254  0  1.032654  0  0  0.109129  0.097406  0  1.036152  0
H  H12  1  0.18146431  0.52219846  0.72421789  1  0  0.129508  0  0.960351  0  0  0.147577  0  1.024148  0  0  0.149543  0  1.023683  0  0  0.087396  0.146122  0  1.024501  0
H  H13  1  0.31851605  0.47779007  0.22421766  1  0  0.1295  0  0.960509  0  0  0.147569  0  1.024295  0  0  0.149539  0  1.023822  0  0  0.087385  0.146112  0  1.024648  0
H  H14  1  0.81852155  0.02220416  0.27577900  1  0  0.129546  0  0.960158  0  0  0.147603  0  1.023983  0  0  0.149574  0  1.023508  0  0  0.087357  0.146148  0  1.024332  0
H  H15  1  0.68147747  0.97780649  0.77578776  1  0  0.129442  0  0.960615  0  0  0.147566  0  1.024321  0  0  0.149532  0  1.023853  0  0  0.087386  0.146112  0  1.024675  0
H  H16  1  0.81851317  0.47780162  0.27578081  1  0  0.129467  0  0.96042  0  0  0.147537  0  1.024206  0  0  0.149506  0  1.023736  0  0  0.087359  0.146079  0  1.024563  0
H  H17  1  0.68147282  0.52220034  0.77578525  1  0  0.1294  0  0.960285  0  0  0.147509  0  1.024062  0  0  0.149474  0  1.023597  0  0  0.087371  0.146054  0  1.024411  0
H  H18  1  0.18148361  0.97780075  0.72421548  1  0  0.129436  0  0.960511  0  0  0.147555  0  1.024236  0  0  0.149522  0  1.023766  0  0  0.087383  0.146099  0  1.024593  0
H  H19  1  0.31853258  0.02220034  0.22422569  1  0  0.129486  0  0.960087  0  0  0.147568  0  1.023895  0  0  0.149535  0  1.02343  0  0  0.087305  0.146112  0  1.024244  0
H  H20  1  0.39208397  0.43541084  0.66469885  1  0  0.123553  0  0.984836  0  0  0.141301  0  1.050839  0  0  0.142896  0  1.050786  0  0  0.084008  0.140038  0  1.051005  0
H  H21  1  0.10790439  0.56457625  0.16469605  1  0  0.123512  0  0.984923  0  0  0.141258  0  1.050933  0  0  0.142852  0  1.050882  0  0  0.084004  0.139998  0  1.051098  0
H  H22  1  0.60789596  0.93541220  0.33530535  1  0  0.123474  0  0.984861  0  0  0.141233  0  1.050868  0  0  0.14283  0  1.050814  0  0  0.083992  0.139972  0  1.051031  0
H  H23  1  0.89208039  0.06458347  0.83530347  1  0  0.123524  0  0.985228  0  0  0.141311  0  1.051159  0  0  0.142907  0  1.051105  0  0  0.084034  0.140049  0  1.051327  0
H  H24  1  0.60789676  0.56458826  0.33530336  1  0  0.123445  0  0.984908  0  0  0.141195  0  1.050925  0  0  0.14279  0  1.050876  0  0  0.08397  0.139935  0  1.051089  0
H  H25  1  0.89209751  0.43541224  0.83530476  1  0  0.123484  0  0.984835  0  0  0.141241  0  1.050842  0  0  0.142835  0  1.050793  0  0  0.084012  0.139979  0  1.051006  0
H  H26  1  0.39209780  0.06458305  0.66470107  1  0  0.123543  0  0.985096  0  0  0.141293  0  1.051075  0  0  0.142888  0  1.051021  0  0  0.084019  0.140032  0  1.051242  0
H  H27  1  0.10790359  0.93540694  0.16470577  1  0  0.123443  0  0.984795  0  0  0.141232  0  1.050781  0  0  0.142829  0  1.050731  0  0  0.083965  0.139972  0  1.050943  0
H  H28  1  0.15416762  0.35389064  0.70237341  1  0  0.126672  0  0.957361  0  0  0.146018  0  1.021104  0  0  0.147562  0  1.020591  0  0  0.088425  0.144618  0  1.021909  0
H  H29  1  0.34580617  0.64610386  0.20237666  1  0  0.126589  0  0.95745  0  0  0.145954  0  1.021194  0  0  0.147478  0  1.020702  0  0  0.088427  0.144559  0  1.021992  0
H  H30  1  0.84582426  0.85388372  0.29762483  1  0  0.126664  0  0.957199  0  0  0.146052  0  1.020905  0  0  0.147579  0  1.020409  0  0  0.088455  0.144643  0  1.02172  0
H  H31  1  0.65419435  0.14610550  0.79762952  1  0  0.126781  0  0.957471  0  0  0.146046  0  1.021294  0  0  0.147576  0  1.020791  0  0  0.088425  0.14465  0  1.022096  0
H  H32  1  0.84580822  0.64611426  0.29762389  1  0  0.126556  0  0.957347  0  0  0.145874  0  1.021153  0  0  0.147406  0  1.020652  0  0  0.088384  0.144478  0  1.021953  0
H  H33  1  0.65418759  0.35388559  0.79762414  1  0  0.126632  0  0.957256  0  0  0.145953  0  1.021063  0  0  0.147498  0  1.02055  0  0  0.088426  0.144554  0  1.021867  0
H  H34  1  0.15418742  0.14610186  0.70237106  1  0  0.126582  0  0.957465  0  0  0.145926  0  1.021228  0  0  0.147453  0  1.020729  0  0  0.088374  0.144529  0  1.022029  0
H  H35  1  0.34583849  0.85387816  0.20237831  1  0  0.126641  0  0.95696  0  0  0.146018  0  1.020727  0  0  0.147559  0  1.02022  0  0  0.088469  0.144615  0  1.021533  0
C  C36  1  0.05097891  0.42997127  0.42476503  1  0  0.046296  0  3.625336  0  0  0.007039  0  3.879223  0  0  0.009958  0  3.895269  0  0  0.053767  0.004676  0  3.869605  0
C  C37  1  0.44900191  0.57002141  0.92477288  1  0  0.04632  0  3.62502  0  0  0.007126  0  3.878868  0  0  0.010057  0  3.894888  0  0  0.053858  0.004759  0  3.869251  0
C  C38  1  0.94901723  0.92996833  0.57523077  1  0  0.046491  0  3.624782  0  0  0.007295  0  3.878705  0  0  0.01022  0  3.894751  0  0  0.053848  0.00492  0  3.869086  0
C  C39  1  0.55096178  0.07002561  0.07524066  1  0  0.04623  0  3.625568  0  0  0.006897  0  3.879653  0  0  0.009805  0  3.895712  0  0  0.053592  0.004537  0  3.870027  0
C  C40  1  0.94899041  0.57003170  0.57522314  1  0  0.046417  0  3.624681  0  0  0.007309  0  3.878519  0  0  0.010239  0  3.894557  0  0  0.05387  0.004946  0  3.868885  0
C  C41  1  0.55099510  0.42996708  0.07523425  1  0  0.046303  0  3.625067  0  0  0.007166  0  3.878969  0  0  0.010087  0  3.895016  0  0  0.053794  0.004818  0  3.869332  0
C  C42  1  0.05099607  0.07003174  0.42476863  1  0  0.046263  0  3.625042  0  0  0.007135  0  3.878896  0  0  0.01005  0  3.894951  0  0  0.053819  0.00478  0  3.869267  0
C  C43  1  0.44900918  0.92998412  0.92477700  1  0  0.046427  0  3.624703  0  0  0.00731  0  3.878517  0  0  0.010239  0  3.894558  0  0  0.053905  0.004951  0  3.868891  0
C  C44  1  0.10815509  0.47384544  0.58219769  1  0  0.290055  0  3.687501  0  0  0.291939  0  3.937841  0  0  0.298142  0  3.956698  0  0  0.131299  0.287421  0  3.925421  0
C  C45  1  0.39184123  0.52614908  0.08219658  1  0  0.289979  0  3.687879  0  0  0.291868  0  3.938257  0  0  0.298071  0  3.957113  0  0  0.131275  0.287348  0  3.925837  0
C  C46  1  0.89184164  0.97384547  0.41780634  1  0  0.290266  0  3.68771  0  0  0.29213  0  3.938076  0  0  0.298338  0  3.956921  0  0  0.13132  0.287609  0  3.925656  0
C  C47  1  0.60816422  0.02616594  0.91780030  1  0  0.289892  0  3.687544  0  0  0.291893  0  3.937757  0  0  0.298095  0  3.956603  0  0  0.131314  0.287374  0  3.925344  0
C  C48  1  0.89185496  0.52614787  0.41780944  1  0  0.289893  0  3.688438  0  0  0.291961  0  3.938552  0  0  0.298168  0  3.957406  0  0  0.131325  0.287441  0  3.926131  0
C  C49  1  0.60817370  0.47384037  0.91780353  1  0  0.290037  0  3.687802  0  0  0.292086  0  3.937962  0  0  0.298295  0  3.956817  0  0  0.131327  0.287564  0  3.925546  0
C  C50  1  0.10817655  0.02616137  0.58219306  1  0  0.290095  0  3.687609  0  0  0.292021  0  3.937935  0  0  0.298221  0  3.956786  0  0  0.131342  0.287506  0  3.925518  0
C  C51  1  0.39187839  0.97386504  0.08218997  1  0  0.290211  0  3.688964  0  0  0.29222  0  3.939149  0  0  0.298431  0  3.957995  0  0  0.131284  0.287698  0  3.926732  0
C  C52  1  0.21547894  0.44544388  0.67334811  1  0  -0.391779  0  3.714473  0  0  -0.471658  0  3.943563  0  0  -0.475683  0  3.951882  0  0  -0.251138  -0.468263  0  3.937853  0
C  C53  1  0.28450619  0.55454507  0.17334683  1  0  -0.391607  0  3.714776  0  0  -0.471483  0  3.943814  0  0  -0.475492  0  3.952149  0  0  -0.2511  -0.468086  0  3.938098  0
C  C54  1  0.78452230  0.94545093  0.32666166  1  0  -0.391814  0  3.714269  0  0  -0.471714  0  3.943383  0  0  -0.475728  0  3.951719  0  0  -0.251087  -0.468305  0  3.937672  0
C  C55  1  0.71551267  0.05456703  0.82663658  1  0  -0.391603  0  3.714776  0  0  -0.471576  0  3.943886  0  0  -0.475582  0  3.952198  0  0  -0.251137  -0.468187  0  3.938182  0
C  C56  1  0.78450668  0.55455233  0.32665199  1  0  -0.391484  0  3.714287  0  0  -0.471362  0  3.943273  0  0  -0.475374  0  3.951594  0  0  -0.251063  -0.467966  0  3.937558  0
C  C57  1  0.71548920  0.44544051  0.82665538  1  0  -0.391495  0  3.714413  0  0  -0.47141  0  3.943436  0  0  -0.47544  0  3.951757  0  0  -0.251086  -0.468013  0  3.937721  0
C  C58  1  0.21550729  0.05455591  0.67335389  1  0  -0.391605  0  3.714794  0  0  -0.471541  0  3.943849  0  0  -0.475548  0  3.952174  0  0  -0.251116  -0.468149  0  3.938137  0
C  C59  1  0.28454135  0.94545236  0.17332841  1  0  -0.391775  0  3.713858  0  0  -0.471719  0  3.942975  0  0  -0.475752  0  3.951304  0  0  -0.251072  -0.468312  0  3.937259  0
Br  Br60  1  0.68008649  0.25002248  0.60140909  1  0  -0.494894  0  1.03791  0  0  -0.42596  0  1.333608  0  0  -0.446009  0  1.315569  0  0  -0.247782  -0.411165  0  1.346556  0
Br  Br61  1  0.81990723  0.74999925  0.10140837  1  0  -0.494919  0  1.037842  0  0  -0.426007  0  1.33359  0  0  -0.446068  0  1.315543  0  0  -0.247797  -0.41122  0  1.346562  0
Br  Br62  1  0.31991215  0.75000173  0.39858399  1  0  -0.494799  0  1.037857  0  0  -0.425909  0  1.333617  0  0  -0.445964  0  1.315581  0  0  -0.247732  -0.411123  0  1.34658  0
Br  Br63  1  0.18008490  0.24999889  0.89858120  1  0  -0.494795  0  1.037822  0  0  -0.425899  0  1.33357  0  0  -0.445958  0  1.315541  0  0  -0.247735  -0.411091  0  1.346498  0
Br  Br64  1  0.50013102  0.25000964  0.33704274  1  0  -0.519797  0  1.018243  0  0  -0.456727  0  1.329059  0  0  -0.475242  0  1.306595  0  0  -0.260132  -0.442807  0  1.344886  0
Br  Br65  1  0.99986325  0.74999954  0.83704350  1  0  -0.519778  0  1.018168  0  0  -0.456717  0  1.329  0  0  -0.475241  0  1.306532  0  0  -0.260138  -0.442791  0  1.344831  0
Br  Br66  1  0.49986111  0.75001458  0.66296017  1  0  -0.519763  0  1.018179  0  0  -0.456696  0  1.328999  0  0  -0.475219  0  1.306544  0  0  -0.260123  -0.442771  0  1.344825  0
Br  Br67  1  0.00013702  0.24999667  0.16295871  1  0  -0.519786  0  1.018225  0  0  -0.456695  0  1.329001  0  0  -0.475212  0  1.306539  0  0  -0.260146  -0.442775  0  1.344827  0
N  N68  1  0.15785164  0.40427129  0.50470792  1  0  -0.300777  0  3.250546  0  0  -0.223996  0  3.514977  0  0  -0.239458  0  3.529879  0  0  -0.305955  -0.213591  0  3.505815  0
N  N69  1  0.34214123  0.59572484  0.00471139  1  0  -0.300697  0  3.250927  0  0  -0.224002  0  3.515455  0  0  -0.239463  0  3.530361  0  0  -0.30598  -0.213597  0  3.506294  0
N  N70  1  0.84213927  0.90426659  0.49528940  1  0  -0.300965  0  3.250798  0  0  -0.224226  0  3.515315  0  0  -0.239698  0  3.530232  0  0  -0.306026  -0.21381  0  3.506141  0
N  N71  1  0.65785211  0.09573163  0.99530063  1  0  -0.300691  0  3.250235  0  0  -0.223918  0  3.514655  0  0  -0.239388  0  3.529569  0  0  -0.305822  -0.213509  0  3.505491  0
N  N72  1  0.84212583  0.59573264  0.49527884  1  0  -0.300681  0  3.251094  0  0  -0.224083  0  3.515622  0  0  -0.23954  0  3.530507  0  0  -0.306002  -0.213681  0  3.506469  0
N  N73  1  0.65786393  0.40426365  0.99529222  1  0  -0.300864  0  3.250822  0  0  -0.22424  0  3.515368  0  0  -0.239696  0  3.530251  0  0  -0.306029  -0.213838  0  3.506216  0
N  N74  1  0.15785611  0.09572672  0.50470579  1  0  -0.300903  0  3.251288  0  0  -0.224167  0  3.515729  0  0  -0.239637  0  3.530652  0  0  -0.305991  -0.213753  0  3.506545  0
N  N75  1  0.34212210  0.90426748  0.00472335  1  0  -0.300891  0  3.250514  0  0  -0.224289  0  3.515096  0  0  -0.23974  0  3.529955  0  0  -0.306025  -0.213888  0  3.505958  0
