# generated using pymatgen
data_CoPH8C8N3O4
_symmetry_space_group_name_H-M   'P 1'
_cell_length_a   7.12993782
_cell_length_b   10.95880154
_cell_length_c   12.86545711
_cell_angle_alpha   107.80743722
_cell_angle_beta   90.00026422
_cell_angle_gamma   89.99968183
_symmetry_Int_Tables_number   1
_chemical_formula_structural   CoPH8C8N3O4
_chemical_formula_sum   'Co4 P4 H32 C32 N12 O16'
_cell_volume   957.08805199
_cell_formula_units_Z   4
loop_
 _symmetry_equiv_pos_site_id
 _symmetry_equiv_pos_as_xyz
  1  'x, y, z'
loop_
 _atom_site_type_symbol
 _atom_site_label
 _atom_site_symmetry_multiplicity
 _atom_site_fract_x
 _atom_site_fract_y
 _atom_site_fract_z
 _atom_site_occupancy
 _atom_site_hle17_ddec_charge
 _atom_site_hle17_ddec_spin_density
 _atom_site_hle17_ddec_sum_bond_order
 _atom_site_hle17_magmom
 _atom_site_hse06_10hf_ddec_charge
 _atom_site_hse06_10hf_ddec_spin_density
 _atom_site_hse06_10hf_ddec_sum_bond_order
 _atom_site_hse06_10hf_magmom
 _atom_site_hse06_ddec_charge
 _atom_site_hse06_ddec_spin_density
 _atom_site_hse06_ddec_sum_bond_order
 _atom_site_hse06_magmom
 _atom_site_pbe_cm5_charge
 _atom_site_pbe_ddec_charge
 _atom_site_pbe_ddec_spin_density
 _atom_site_pbe_ddec_sum_bond_order
 _atom_site_pbe_magmom
Co  Co0  1  0.95122472  0.01042638  0.79613774  1  1.055416  2.856738  2.011354  2.575  1.010745  2.845078  2.443009  2.634  1.085141  2.886784  2.370869  2.71  0.683286  0.940144  2.803973  2.513198  2.559
Co  Co1  1  0.45125650  0.98959405  0.70386860  1  1.05545  2.856696  2.011269  2.575  1.010747  2.8451  2.442875  2.634  1.085177  2.886812  2.370736  2.71  0.683267  0.940149  2.804008  2.513094  2.559
Co  Co2  1  0.04875724  0.98969542  0.20390446  1  1.055488  -2.973697  2.011636  -2.573  1.010329  -2.89273  2.444128  -2.63  1.085123  -2.940598  2.371952  -2.709  0.682754  0.938744  -2.842553  2.514328  -2.551
Co  Co3  1  0.54873808  0.01028911  0.29609035  1  1.055424  2.855638  2.011868  2.573  1.010238  2.842631  2.44427  2.631  1.085044  2.886252  2.372116  2.709  0.682698  0.938679  2.795701  2.51442  2.551
P  P4  1  0.78875340  0.79897302  0.57379128  1  1.45962  0.005801  4.900989  0.004  1.303915  0.009102  5.414026  0.009  1.359064  0.006619  5.375426  0.007  0.338685  1.263855  0.011491  5.436834  0.009
P  P5  1  0.28876005  0.20103352  0.92620792  1  1.459812  0.005664  4.901152  0.004  1.30409  0.008883  5.414226  0.008  1.359238  0.006501  5.375609  0.007  0.338605  1.264049  0.011143  5.437003  0.009
P  P6  1  0.21099854  0.20091215  0.42602363  1  1.459776  0.001285  4.902102  0.0  1.303769  0.00208  5.415496  0.002  1.358942  0.001731  5.376966  0.002  0.338614  1.263627  0.002503  5.438122  0.001
P  P7  1  0.71098769  0.79908435  0.07397861  1  1.459496  -0.001535  4.902153  0.0  1.303499  -0.00207  5.41558  -0.002  1.35867  -0.001771  5.377046  -0.002  0.338564  1.263363  -0.002398  5.438216  -0.001
H  H8  1  0.92227602  0.70331010  0.74604437  1  0.087779  -0.000312  0.990699  0.0  0.095509  -0.000129  1.058183  0.0  0.097409  -0.000136  1.057714  0.0  0.103013  0.094203  -0.000132  1.058552  0.0
H  H9  1  0.42227482  0.29669604  0.75395662  1  0.087715  -0.000323  0.990684  0.0  0.09542  -0.000149  1.058211  0.0  0.097338  -0.00014  1.057721  0.0  0.102987  0.094115  -0.000173  1.058578  0.0
H  H10  1  0.07770874  0.29674377  0.25378579  1  0.087911  0.000326  0.990453  0.0  0.095636  0.000237  1.058001  0.0  0.097541  0.0002  1.057511  0.0  0.10296  0.094377  0.000294  1.058351  0.0
H  H11  1  0.57771134  0.70325409  0.24621646  1  0.087924  -0.000312  0.99049  0.0  0.095636  -0.000211  1.058061  0.0  0.097542  -0.000178  1.057571  0.0  0.102975  0.094374  -0.000262  1.058404  0.0
H  H12  1  0.91426996  0.48982414  0.77396939  1  0.096846  3.9e-05  0.972231  0.0  0.108412  2.6e-05  1.033783  0.0  0.110879  2.4e-05  1.033152  0.0  0.104405  0.106577  1.9e-05  1.034509  0.0
H  H13  1  0.41427373  0.51018107  0.72603056  1  0.09682  2.9e-05  0.972209  0.0  0.108406  1.5e-05  1.033744  0.0  0.110873  1.8e-05  1.033113  0.0  0.104418  0.106575  -0.0  1.034469  0.0
H  H14  1  0.08563626  0.51025265  0.22599500  1  0.096443  5.1e-05  0.973405  0.0  0.108193  4.4e-05  1.034646  0.0  0.110654  2.9e-05  1.034028  0.0  0.104432  0.106372  6.3e-05  1.035339  0.0
H  H15  1  0.58563389  0.48974326  0.27400676  1  0.096397  -5.7e-05  0.973374  0.0  0.10815  -3.5e-05  1.034625  0.0  0.110605  -2.5e-05  1.034013  0.0  0.104448  0.106347  -4.8e-05  1.035273  0.0
H  H16  1  0.68783396  0.32593109  0.45024328  1  0.123043  -8.7e-05  0.94412  0.0  0.131108  -0.000108  1.006867  0.0  0.134442  -0.00012  1.00538  0.0  0.110458  0.128487  -8.8e-05  1.008322  0.0
H  H17  1  0.18784050  0.67407506  0.04975909  1  0.123014  0.00027  0.944119  0.0  0.131085  0.000223  1.006867  0.0  0.134424  0.000201  1.005372  0.0  0.110422  0.128465  0.000235  1.008317  0.0
H  H18  1  0.31231630  0.67393867  0.54969042  1  0.123495  -0.000152  0.943977  0.0  0.131399  -0.000214  1.006713  0.0  0.134743  -0.000203  1.005206  0.0  0.110608  0.128772  -0.000217  1.008181  0.0
H  H19  1  0.81231116  0.32605917  0.95031046  1  0.123472  -0.000235  0.944093  0.0  0.131425  -0.000219  1.006757  0.0  0.134771  -0.000208  1.005246  0.0  0.110594  0.128794  -0.00022  1.008229  0.0
H  H20  1  0.70363111  0.54166394  0.42236119  1  0.081847  -1.9e-05  0.974976  0.0  0.091388  6.2e-05  1.040408  0.0  0.093838  3.9e-05  1.039544  0.0  0.097937  0.089622  8.8e-05  1.041143  0.0
H  H21  1  0.20364111  0.45834217  0.07764042  1  0.081851  -1.2e-05  0.974915  0.0  0.091383  6e-05  1.040366  0.0  0.093832  3.9e-05  1.039504  0.0  0.09793  0.089621  8.6e-05  1.04109  0.0
H  H22  1  0.29632140  0.45819148  0.57750813  1  0.081854  -6.8e-05  0.974958  0.0  0.091385  -1.2e-05  1.04051  0.0  0.09383  -8e-06  1.039655  0.0  0.097793  0.089629  -2e-05  1.041214  0.0
H  H23  1  0.79631981  0.54180832  0.92249555  1  0.081736  5e-05  0.975026  0.0  0.091257  9e-06  1.040599  0.0  0.0937  7e-06  1.039742  0.0  0.097718  0.089498  1e-05  1.041302  0.0
H  H24  1  0.51317142  0.20308018  0.55903816  1  0.126672  4.6e-05  0.964763  0.001  0.13188  -8.8e-05  1.029281  0.0  0.135991  -0.000115  1.024732  0.0  0.147652  0.128464  -6.1e-05  1.032943  0.0
H  H25  1  0.01315630  0.79691568  0.94095287  1  0.126685  0.000396  0.964718  0.001  0.131912  0.000204  1.029205  0.0  0.136024  0.000204  1.024655  0.0  0.147662  0.128489  0.000182  1.032878  0.0
H  H26  1  0.48664083  0.79702130  0.44128556  1  0.126455  -0.000213  0.965925  0.0  0.131641  -0.000317  1.030353  0.0  0.13577  -0.000308  1.025791  0.0  0.147429  0.128198  -0.000314  1.034028  0.0
H  H27  1  0.98665315  0.20298970  0.05872817  1  0.12636  -2.7e-05  0.965938  0.0  0.131708  0.000142  1.03018  0.0  0.135838  5.5e-05  1.025614  0.0  0.147417  0.128259  0.000263  1.033862  0.0
H  H28  1  0.01920541  0.27795739  0.74162609  1  0.122316  0.000237  0.934316  0.001  0.131341  8e-06  0.99465  0.0  0.134466  -1.3e-05  0.990961  0.0  0.147655  0.128553  2.2e-05  0.998142  0.0
H  H29  1  0.51920515  0.72205570  0.75838112  1  0.122386  0.00023  0.934286  0.001  0.13139  1e-06  0.994628  0.0  0.134515  -1.8e-05  0.990939  0.0  0.147672  0.128602  1.3e-05  0.998113  0.0
H  H30  1  0.98128706  0.72216174  0.25807109  1  0.123225  0.000101  0.934212  0.0  0.132186  0.000315  0.994537  0.0  0.135363  0.000259  0.9908  0.0  0.147857  0.12932  0.00037  0.998119  0.0
H  H31  1  0.48127470  0.27782725  0.24191590  1  0.123253  -0.000123  0.93436  0.0  0.13216  -0.000319  0.994679  0.0  0.135341  -0.000262  0.990934  0.0  0.147835  0.129294  -0.00038  0.998262  0.0
H  H32  1  0.62666955  0.04371050  0.89211115  1  0.439598  0.000191  0.85949  0.0  0.408361  0.00058  0.923552  0.0  0.419986  0.000193  0.907021  0.0  0.294507  0.400144  0.001018  0.934979  0.001
H  H33  1  0.12668820  0.95626201  0.60788886  1  0.439581  0.000207  0.859516  0.0  0.408275  0.000608  0.923682  0.0  0.419897  0.000214  0.907161  0.0  0.294491  0.400058  0.001051  0.935107  0.001
H  H34  1  0.37292671  0.95627523  0.10784503  1  0.440116  3.8e-05  0.85891  0.0  0.408985  0.000163  0.922885  0.0  0.420638  0.000288  0.906309  0.0  0.294809  0.40073  -2e-05  0.934342  -0.001
H  H35  1  0.87291508  0.04374283  0.39215859  1  0.440119  -7.1e-05  0.858879  0.0  0.408993  -0.000173  0.922869  0.0  0.420646  -0.000297  0.906297  0.0  0.294748  0.400736  5e-06  0.934331  0.001
H  H36  1  0.72255880  0.91603935  0.91913722  1  0.448978  0.000412  0.851423  0.001  0.417577  0.000781  0.91506  0.002  0.42942  0.000569  0.8986  0.001  0.289936  0.408774  0.000936  0.927124  0.002
H  H37  1  0.22256499  0.08391563  0.58084602  1  0.449054  0.000443  0.851313  0.001  0.417699  0.000815  0.91488  0.002  0.429523  0.000587  0.898444  0.001  0.289976  0.408898  0.000987  0.926936  0.002
H  H38  1  0.27728711  0.08412074  0.08097871  1  0.448936  -0.000559  0.851429  -0.001  0.417626  -0.0009  0.914952  -0.002  0.429449  -0.000672  0.898523  -0.001  0.290094  0.408829  -0.00107  0.926996  -0.002
H  H39  1  0.77728513  0.91590719  0.41903190  1  0.448991  0.000494  0.851332  0.001  0.417694  0.000872  0.914819  0.002  0.429515  0.00064  0.89839  0.001  0.290122  0.408905  0.001049  0.926852  0.002
C  C40  1  0.81314985  0.63710001  0.58219138  1  -0.224365  0.002591  3.742464  0.004  -0.182916  0.002469  3.978062  0.003  -0.191386  0.001404  3.998416  0.002  -0.02285  -0.178068  0.003769  3.965782  0.005
C  C41  1  0.31315645  0.36290454  0.91781047  1  -0.224296  0.002372  3.742449  0.004  -0.182879  0.002321  3.978086  0.003  -0.191351  0.00133  3.998445  0.002  -0.022794  -0.17802  0.003505  3.965788  0.005
C  C42  1  0.18670588  0.36283592  0.41769118  1  -0.223429  0.000696  3.741062  0.001  -0.182098  0.000768  3.977001  0.001  -0.190555  0.000339  3.997347  0.0  -0.022383  -0.177266  0.001412  3.964746  0.001
C  C43  1  0.68670629  0.63716065  0.08231179  1  -0.223331  -0.000552  3.741032  0.0  -0.182067  -0.000641  3.977045  0.0  -0.190523  -0.000289  3.997389  0.0  -0.022382  -0.177229  -0.001174  3.964765  -0.001
C  C44  1  0.87462912  0.62060373  0.68046671  1  -0.029672  0.00214  3.762485  0.003  -0.052346  0.001128  4.008752  0.001  -0.052102  0.000799  4.030144  0.001  -0.084912  -0.052385  0.001635  3.994617  0.002
C  C45  1  0.37463337  0.37940064  0.81953603  1  -0.029561  0.00213  3.762336  0.003  -0.052234  0.001092  4.008677  0.001  -0.051997  0.000786  4.030044  0.001  -0.0849  -0.052272  0.001559  3.994539  0.002
C  C46  1  0.12532759  0.37940697  0.31941826  1  -0.030034  0.002158  3.76156  0.003  -0.052824  0.001192  4.00819  0.001  -0.052573  0.000866  4.02957  0.001  -0.084949  -0.052911  0.001692  3.994045  0.002
C  C47  1  0.62532615  0.62059074  0.18058408  1  -0.030084  -0.002241  3.761671  -0.003  -0.052854  -0.001162  4.008317  -0.001  -0.052601  -0.000849  4.029694  -0.001  -0.084946  -0.052934  -0.001645  3.994148  -0.002
C  C48  1  0.86891155  0.50115377  0.69665694  1  -0.152603  -0.001486  3.7441  -0.002  -0.174397  -0.000336  4.002838  -0.001  -0.178829  -0.000381  4.024039  -0.001  -0.091574  -0.171365  -0.000315  3.988359  -0.001
C  C49  1  0.36891465  0.49885061  0.80334501  1  -0.152632  -0.001548  3.744104  -0.002  -0.17447  -0.000385  4.002853  -0.001  -0.178901  -0.000413  4.024059  -0.001  -0.091555  -0.171435  -0.000395  3.988376  -0.001
C  C50  1  0.13106339  0.49888374  0.30328010  1  -0.152506  -0.000842  3.744233  -0.001  -0.174297  -1.7e-05  4.002996  0.0  -0.178732  -0.000118  4.024211  0.0  -0.091706  -0.171242  0.000132  3.988469  0.0
C  C51  1  0.63106169  0.50111396  0.19672224  1  -0.152473  0.000854  3.74419  0.001  -0.174294  4.4e-05  4.002927  0.0  -0.178728  0.000137  4.024143  0.0  -0.091741  -0.171238  -8.2e-05  3.988408  0.0
C  C52  1  0.79868945  0.39604056  0.61432241  1  0.186733  0.002877  3.773279  0.004  0.176407  0.001872  4.023626  0.003  0.181977  0.00141  4.045772  0.002  0.096602  0.172635  0.002502  4.008919  0.003
C  C53  1  0.29869093  0.60396594  0.88567914  1  0.186749  0.002915  3.77331  0.004  0.176499  0.001901  4.023592  0.003  0.182073  0.00143  4.045739  0.002  0.096639  0.172723  0.002546  4.008892  0.003
C  C54  1  0.20131916  0.60397297  0.38562470  1  0.187662  0.001995  3.772254  0.003  0.17713  0.001109  4.02278  0.001  0.182682  0.000743  4.04495  0.001  0.096816  0.173419  0.001749  4.00801  0.002
C  C55  1  0.70131627  0.39602547  0.11437724  1  0.187823  -0.00213  3.772221  -0.003  0.177373  -0.001138  4.022645  -0.001  0.182926  -0.000768  4.044815  -0.001  0.096913  0.173658  -0.001793  4.007877  -0.002
C  C56  1  0.74026210  0.40887885  0.51456567  1  -0.141055  -0.00146  3.69443  -0.002  -0.159665  -0.00027  3.948788  0.0  -0.163542  -0.00037  3.968818  -0.001  -0.085271  -0.157288  -0.000159  3.935939  0.0
C  C57  1  0.24026593  0.59112495  0.98543502  1  -0.14115  -0.001454  3.694515  -0.002  -0.159811  -0.000257  3.948879  0.0  -0.163696  -0.000343  3.968912  -0.001  -0.085311  -0.157431  -0.000189  3.936025  0.0
C  C58  1  0.25975492  0.59105897  0.48535236  1  -0.141492  -0.001299  3.694325  -0.002  -0.159693  -0.000265  3.948537  0.0  -0.163573  -0.000301  3.968603  0.0  -0.085333  -0.15732  -0.000219  3.935622  0.0
C  C59  1  0.75975530  0.40894026  0.01464994  1  -0.141714  0.001233  3.694333  0.002  -0.159977  0.000255  3.948519  0.0  -0.163856  0.000257  3.96858  0.0  -0.085392  -0.1576  0.000269  3.935604  0.001
C  C60  1  0.74844814  0.52967968  0.49953160  1  -0.02559  0.002464  3.761365  0.003  -0.048003  0.001473  4.006671  0.002  -0.048382  0.001111  4.029513  0.001  -0.07957  -0.047722  0.001956  3.991782  0.002
C  C61  1  0.24845599  0.47032342  0.00046935  1  -0.025558  0.00252  3.761189  0.003  -0.047942  0.001488  4.006495  0.002  -0.048322  0.001124  4.02934  0.001  -0.079544  -0.047664  0.001972  3.991596  0.002
C  C62  1  0.25148333  0.47023132  0.50035767  1  -0.02639  0.001735  3.761212  0.002  -0.048908  0.000646  4.006695  0.001  -0.049308  0.000452  4.029556  0.001  -0.079916  -0.048567  0.001021  3.991769  0.001
C  C63  1  0.75148389  0.52976670  0.99964465  1  -0.026182  -0.001868  3.761129  -0.002  -0.048674  -0.000663  4.006649  -0.001  -0.049069  -0.000462  4.029508  -0.001  -0.07985  -0.048342  -0.00105  3.991726  -0.001
C  C64  1  0.62948404  0.19516454  0.61121051  1  0.186278  -0.007841  3.579288  -0.009  0.131992  -0.000311  3.842197  0.0  0.149177  9.8e-05  3.846745  0.001  0.171428  0.11926  -0.001366  3.840638  -0.001
C  C65  1  0.12947123  0.80483576  0.88878587  1  0.186092  -0.007624  3.579394  -0.009  0.131812  -0.000158  3.842259  0.0  0.148992  0.000286  3.846815  0.001  0.171378  0.119091  -0.001287  3.840684  -0.001
C  C66  1  0.37070128  0.80483838  0.38884654  1  0.185923  -0.009718  3.580942  -0.012  0.132094  -0.001642  3.843537  -0.002  0.14928  -0.000943  3.848023  -0.001  0.171334  0.119308  -0.00309  3.842206  -0.004
C  C67  1  0.87070849  0.19516723  0.11116082  1  0.185989  0.009068  3.580977  0.012  0.132009  0.001391  3.843595  0.002  0.14919  0.000631  3.848086  0.001  0.171352  0.119241  0.002977  3.842246  0.004
C  C68  1  0.88671091  0.23618800  0.70777765  1  0.198617  -0.008678  3.580191  -0.01  0.13976  -0.001783  3.848286  -0.002  0.15786  -0.001392  3.853282  -0.001  0.171028  0.126008  -0.002772  3.84633  -0.003
C  C69  1  0.38670887  0.76382399  0.79222866  1  0.198317  -0.008696  3.580255  -0.01  0.139503  -0.001802  3.848288  -0.001  0.157606  -0.001396  3.853286  -0.001  0.170926  0.125759  -0.002828  3.84632  -0.002
C  C70  1  0.11375632  0.76384862  0.29204412  1  0.197173  0.010715  3.581566  0.014  0.138165  0.003829  3.849855  0.005  0.156222  0.003199  3.854785  0.004  0.170277  0.124436  0.004931  3.848022  0.006
C  C71  1  0.61374574  0.23613859  0.20794534  1  0.196958  -0.01113  3.581954  -0.014  0.138144  -0.003885  3.849979  -0.005  0.156204  -0.003274  3.854903  -0.004  0.170288  0.124417  -0.004939  3.848157  -0.006
N  N72  1  0.80829839  0.13476031  0.72429319  1  -0.239343  0.029196  3.183337  0.052  -0.208003  0.021609  3.492975  0.036  -0.224158  0.018948  3.50052  0.032  -0.232692  -0.195202  0.023671  3.487826  0.039
N  N73  1  0.30829535  0.86525384  0.77571581  1  -0.239179  0.029156  3.183133  0.052  -0.207818  0.021556  3.492674  0.036  -0.22399  0.018901  3.500246  0.032  -0.232498  -0.195024  0.02361  3.487534  0.039
N  N74  1  0.19238624  0.86521975  0.27553947  1  -0.238749  -0.031852  3.183778  -0.056  -0.207123  -0.020528  3.493368  -0.036  -0.223289  -0.018247  3.50093  -0.032  -0.232172  -0.194157  -0.022392  3.48811  -0.039
N  N75  1  0.69237666  0.13476723  0.22444857  1  -0.238744  0.03032  3.183891  0.056  -0.207108  0.020134  3.493297  0.036  -0.223273  0.017852  3.50086  0.032  -0.232147  -0.19415  0.022019  3.488049  0.039
N  N76  1  0.64476246  0.10951609  0.66389956  1  -0.247206  0.030935  3.214473  0.054  -0.211329  0.02311  3.518091  0.035  -0.227533  0.020585  3.522308  0.03  -0.237789  -0.199605  0.024716  3.517745  0.038
N  N77  1  0.14475689  0.89048992  0.83610379  1  -0.247062  0.030824  3.214457  0.054  -0.211203  0.023048  3.518071  0.035  -0.227397  0.020626  3.522297  0.03  -0.237763  -0.199482  0.024503  3.51772  0.038
N  N78  1  0.35571600  0.89042457  0.33607595  1  -0.247301  0.032342  3.217431  0.059  -0.212038  0.023336  3.521508  0.036  -0.228232  0.020938  3.525507  0.031  -0.238456  -0.200339  0.024757  3.521493  0.04
N  N79  1  0.85571595  0.10956958  0.16391983  1  -0.24724  -0.033838  3.217346  -0.059  -0.21197  -0.023692  3.521464  -0.036  -0.228164  -0.02141  3.525463  -0.031  -0.238436  -0.200281  -0.024917  3.521476  -0.039
N  N80  1  0.77824106  0.27785907  0.63771858  1  -0.114352  0.001603  3.552024  0.003  -0.026042  0.000994  3.767703  0.002  -0.042014  0.00086  3.786245  0.001  -0.213098  -0.016022  0.001053  3.756943  0.002
N  N81  1  0.27823714  0.72214654  0.86228190  1  -0.114123  0.001542  3.55203  0.003  -0.02588  0.000912  3.767698  0.001  -0.041856  0.000811  3.786248  0.001  -0.213068  -0.015853  0.000934  3.756922  0.002
N  N82  1  0.22190499  0.72216979  0.36224419  1  -0.114296  -0.000314  3.551394  -0.001  -0.025936  5.9e-05  3.76686  0.0  -0.041881  1.4e-05  3.785391  0.0  -0.212712  -0.015973  7.4e-05  3.756158  0.0
N  N83  1  0.72190330  0.27782859  0.13775546  1  -0.114253  0.000243  3.551595  0.001  -0.025998  -1.4e-05  3.767058  0.0  -0.04194  -1.1e-05  3.785589  0.0  -0.212714  -0.016036  2.9e-05  3.756356  0.0
O  O84  1  0.59382330  0.83532817  0.62748953  1  -0.87293  0.053174  2.096924  0.085  -0.825584  0.039177  2.420113  0.056  -0.868358  0.029706  2.399894  0.04  -0.38222  -0.786479  0.049827  2.429544  0.073
O  O85  1  0.09385645  0.16467225  0.87248115  1  -0.872943  0.053176  2.096816  0.085  -0.825624  0.039211  2.420071  0.056  -0.868379  0.029731  2.399821  0.04  -0.382137  -0.786535  0.049863  2.429521  0.073
O  O86  1  0.40537043  0.16435706  0.37167083  1  -0.87214  0.053711  2.096503  0.085  -0.824567  0.040044  2.419946  0.056  -0.867436  0.030776  2.399749  0.041  -0.38171  -0.785194  0.050096  2.429171  0.072
O  O87  1  0.90534710  0.83564459  0.12835036  1  -0.872031  -0.056072  2.096225  -0.085  -0.824456  -0.04078  2.419691  -0.056  -0.867313  -0.0314  2.399488  -0.041  -0.381733  -0.785084  -0.050938  2.428928  -0.072
O  O88  1  0.94756960  0.88082408  0.64404353  1  -0.872963  0.039431  2.101442  0.06  -0.804145  0.033745  2.389788  0.047  -0.842323  0.026377  2.368872  0.035  -0.375046  -0.771992  0.041095  2.402565  0.058
O  O89  1  0.44758898  0.11918005  0.85597099  1  -0.873179  0.039419  2.101652  0.06  -0.804311  0.033706  2.389908  0.047  -0.84251  0.026348  2.369028  0.035  -0.375105  -0.772173  0.041044  2.402692  0.058
O  O90  1  0.05163676  0.11919116  0.35623670  1  -0.873641  -0.040136  2.10171  -0.057  -0.804089  -0.034085  2.389016  -0.045  -0.842483  -0.027384  2.368505  -0.035  -0.37512  -0.771595  -0.039891  2.401227  -0.053
O  O91  1  0.55161457  0.88080391  0.14374921  1  -0.873404  0.038451  2.101842  0.057  -0.803892  0.033487  2.389124  0.045  -0.842298  0.026857  2.368648  0.035  -0.375058  -0.77142  0.039243  2.401344  0.053
O  O92  1  0.74420371  0.99339470  0.89119293  1  -0.85344  0.050603  1.951162  0.082  -0.818327  0.04454  2.194938  0.067  -0.854831  0.033651  2.15661  0.05  -0.571283  -0.784892  0.055521  2.221078  0.084
O  O93  1  0.24423884  0.00654394  0.60875968  1  -0.853534  0.050346  1.951037  0.082  -0.818333  0.044383  2.194708  0.067  -0.854829  0.033503  2.156407  0.05  -0.571355  -0.784948  0.055346  2.220962  0.084
O  O94  1  0.25545707  0.00670601  0.10883367  1  -0.853914  -0.050349  1.951325  -0.079  -0.818888  -0.040643  2.194976  -0.061  -0.855599  -0.030835  2.156754  -0.046  -0.571591  -0.784967  -0.050496  2.220838  -0.076
O  O95  1  0.75543456  0.99333347  0.39119700  1  -0.853861  0.04777  1.951348  0.079  -0.818884  0.039648  2.194911  0.061  -0.855594  0.029981  2.156701  0.046  -0.571489  -0.784982  0.049368  2.220775  0.076
O  O96  1  0.79543461  0.79454996  0.45435850  1  -0.840024  0.006685  1.901992  0.012  -0.767627  0.004409  2.142826  0.008  -0.796172  0.002423  2.124809  0.005  -0.379972  -0.745725  0.007262  2.154417  0.013
O  O97  1  0.29541283  0.20545587  0.04563939  1  -0.840094  0.004428  1.902275  0.008  -0.767702  0.002876  2.143144  0.006  -0.796251  0.001595  2.125117  0.003  -0.379945  -0.745817  0.004809  2.154743  0.009
O  O98  1  0.20531313  0.20536490  0.54548358  1  -0.840768  -0.000209  1.90284  0.0  -0.768125  0.000225  2.14372  0.001  -0.796649  -2.5e-05  2.125636  0.0  -0.380092  -0.746216  0.000552  2.155362  0.002
O  O99  1  0.70532649  0.79462654  0.95451768  1  -0.840835  0.001941  1.903115  0.004  -0.768087  0.000909  2.143957  0.002  -0.796609  0.000536  2.125868  0.001  -0.380135  -0.746204  0.001367  2.155615  0.002
