# generated using pymatgen
data_CdH5C10N2O7
_symmetry_space_group_name_H-M   'P 1'
_cell_length_a   7.48310393
_cell_length_b   11.91943696
_cell_length_c   13.20980167
_cell_angle_alpha   89.99960915
_cell_angle_beta   90.00086374
_cell_angle_gamma   89.07249989
_symmetry_Int_Tables_number   1
_chemical_formula_structural   CdH5C10N2O7
_chemical_formula_sum   'Cd4 H20 C40 N8 O28'
_cell_volume   1178.08576909
_cell_formula_units_Z   4
loop_
 _symmetry_equiv_pos_site_id
 _symmetry_equiv_pos_as_xyz
  1  'x, y, z'
loop_
 _atom_site_type_symbol
 _atom_site_label
 _atom_site_symmetry_multiplicity
 _atom_site_fract_x
 _atom_site_fract_y
 _atom_site_fract_z
 _atom_site_occupancy
 _atom_site_hle17_bader_spin_density
 _atom_site_hle17_ddec_charge
 _atom_site_hle17_ddec_spin_density
 _atom_site_hle17_ddec_sum_bond_order
 _atom_site_hle17_magmom
 _atom_site_hse06_10hf_bader_spin_density
 _atom_site_hse06_10hf_ddec_charge
 _atom_site_hse06_10hf_ddec_spin_density
 _atom_site_hse06_10hf_ddec_sum_bond_order
 _atom_site_hse06_10hf_magmom
 _atom_site_hse06_bader_spin_density
 _atom_site_hse06_ddec_charge
 _atom_site_hse06_ddec_spin_density
 _atom_site_hse06_ddec_sum_bond_order
 _atom_site_hse06_magmom
 _atom_site_pbe_bader_spin_density
 _atom_site_pbe_cm5_charge
 _atom_site_pbe_ddec_charge
 _atom_site_pbe_ddec_spin_density
 _atom_site_pbe_ddec_sum_bond_order
 _atom_site_pbe_magmom
Cd  Cd0  1  0.42496459  0.67820677  0.83121740  1  0  1.126227  0  1.67133  0  0  0.934551  0  2.111402  0  0  0.994321  0  2.057311  0  0  0.775361  0.891741  0  2.148571  0
Cd  Cd1  1  0.92497091  0.17819918  0.66878867  1  0  1.126329  0  1.67135  0  0  0.934653  0  2.111451  0  0  0.994423  0  2.057359  0  0  0.775356  0.891838  0  2.148614  0
Cd  Cd2  1  0.57501935  0.32181630  0.16878830  1  0  1.12624  0  1.671316  0  0  0.934541  0  2.111425  0  0  0.994312  0  2.057337  0  0  0.775325  0.891739  0  2.148595  0
Cd  Cd3  1  0.07503111  0.82180417  0.33121098  1  0  1.126319  0  1.671202  0  0  0.934587  0  2.111302  0  0  0.994364  0  2.057212  0  0  0.775333  0.891774  0  2.148465  0
H  H4  1  0.12212760  0.78070962  0.72573653  1  0  0.437872  0  0.807357  0  0  0.419385  0  0.860955  0  0  0.427859  0  0.852  0  0  0.323629  0.413349  0  0.867362  0
H  H5  1  0.62209804  0.28070460  0.77427235  1  0  0.437792  0  0.807567  0  0  0.419319  0  0.861127  0  0  0.427789  0  0.852189  0  0  0.323589  0.413288  0  0.867534  0
H  H6  1  0.87787328  0.21929963  0.27427901  1  0  0.437803  0  0.807616  0  0  0.419329  0  0.861177  0  0  0.427802  0  0.852229  0  0  0.323588  0.413299  0  0.86758  0
H  H7  1  0.37790462  0.71927776  0.22571518  1  0  0.437733  0  0.80774  0  0  0.419259  0  0.86129  0  0  0.427732  0  0.852345  0  0  0.323522  0.413237  0  0.867689  0
H  H8  1  0.12424443  0.82824225  0.83945801  1  0  0.43129  0  0.870635  0  0  0.395343  0  0.942829  0  0  0.407428  0  0.924978  0  0  0.292482  0.386746  0  0.955488  0
H  H9  1  0.62426105  0.32822945  0.66054833  1  0  0.431232  0  0.870681  0  0  0.39536  0  0.942729  0  0  0.407443  0  0.924882  0  0  0.292545  0.386763  0  0.955394  0
H  H10  1  0.87577379  0.17176575  0.16055753  1  0  0.431237  0  0.870665  0  0  0.395321  0  0.942802  0  0  0.407406  0  0.924952  0  0  0.292477  0.386724  0  0.955464  0
H  H11  1  0.37577399  0.67176139  0.33944223  1  0  0.43113  0  0.870811  0  0  0.395229  0  0.942923  0  0  0.407314  0  0.925073  0  0  0.292436  0.386636  0  0.955583  0
H  H12  1  0.08289606  0.69617164  0.99737734  1  0  0.102671  0  0.927835  0  0  0.110174  0  0.988729  0  0  0.113194  0  0.985263  0  0  0.127468  0.10773  0  0.991501  0
H  H13  1  0.58285302  0.19614040  0.50261129  1  0  0.102813  0  0.927753  0  0  0.11014  0  0.98883  0  0  0.113203  0  0.9853  0  0  0.127481  0.107694  0  0.991601  0
H  H14  1  0.91710951  0.30385848  0.00263518  1  0  0.102689  0  0.927898  0  0  0.110195  0  0.988785  0  0  0.113226  0  0.985298  0  0  0.127492  0.10775  0  0.991559  0
H  H15  1  0.41710729  0.80385553  0.49737625  1  0  0.102644  0  0.927867  0  0  0.110162  0  0.988783  0  0  0.113189  0  0.985313  0  0  0.127495  0.107711  0  0.991569  0
H  H16  1  0.96040820  0.58059514  0.14215895  1  0  0.147798  0  0.957328  0  0  0.152204  0  1.017292  0  0  0.157212  0  1.014917  0  0  0.118861  0.148492  0  1.019345  0
H  H17  1  0.46041733  0.08057005  0.35780954  1  0  0.147818  0  0.957289  0  0  0.152246  0  1.017277  0  0  0.157255  0  1.014906  0  0  0.118835  0.148534  0  1.019319  0
H  H18  1  0.03953979  0.41939184  0.85781571  1  0  0.147749  0  0.957489  0  0  0.152201  0  1.017382  0  0  0.157204  0  1.015012  0  0  0.118881  0.148511  0  1.019407  0
H  H19  1  0.53955950  0.91939947  0.64218178  1  0  0.147777  0  0.957572  0  0  0.152241  0  1.017444  0  0  0.157244  0  1.015075  0  0  0.118874  0.148538  0  1.019477  0
H  H20  1  0.15686031  0.41959529  0.20612513  1  0  0.11033  0  0.921547  0  0  0.118083  0  0.982082  0  0  0.121032  0  0.978383  0  0  0.130072  0.115794  0  0.984902  0
H  H21  1  0.65691152  0.91958346  0.29385457  1  0  0.110131  0  0.921722  0  0  0.117929  0  0.982203  0  0  0.120873  0  0.978514  0  0  0.130036  0.115637  0  0.985016  0
H  H22  1  0.84311618  0.58040445  0.79384801  1  0  0.11019  0  0.921606  0  0  0.118004  0  0.982065  0  0  0.120939  0  0.978376  0  0  0.130121  0.115716  0  0.984869  0
H  H23  1  0.34313295  0.08040967  0.70615416  1  0  0.110153  0  0.921716  0  0  0.11797  0  0.982173  0  0  0.120908  0  0.97848  0  0  0.130061  0.115675  0  0.984983  0
C  C24  1  0.62444414  0.87700252  0.95188791  1  0  0.215672  0  3.807094  0  0  0.200192  0  4.073462  0  0  0.212063  0  4.087333  0  0  0.112534  0.192153  0  4.063991  0
C  C25  1  0.12444812  0.37699157  0.54810679  1  0  0.21556  0  3.806777  0  0  0.200046  0  4.073221  0  0  0.211914  0  4.087091  0  0  0.112556  0.192024  0  4.063732  0
C  C26  1  0.37556489  0.12301073  0.04810719  1  0  0.215257  0  3.807087  0  0  0.199868  0  4.0734  0  0  0.211733  0  4.08727  0  0  0.112502  0.191844  0  4.063919  0
C  C27  1  0.87556019  0.62299988  0.45189134  1  0  0.215579  0  3.806697  0  0  0.200053  0  4.073135  0  0  0.211913  0  4.087006  0  0  0.112595  0.192018  0  4.063659  0
C  C28  1  0.67398742  0.88566819  0.84403409  1  0  0.216968  0  3.808425  0  0  0.193075  0  4.079959  0  0  0.203771  0  4.09764  0  0  0.108907  0.185625  0  4.068256  0
C  C29  1  0.17397843  0.38566262  0.65596855  1  0  0.217301  0  3.808379  0  0  0.193355  0  4.079845  0  0  0.204049  0  4.097527  0  0  0.109013  0.185909  0  4.068145  0
C  C30  1  0.32603063  0.11433479  0.15596782  1  0  0.217371  0  3.808331  0  0  0.193365  0  4.079887  0  0  0.204064  0  4.097566  0  0  0.109009  0.185907  0  4.068212  0
C  C31  1  0.82601950  0.61433831  0.34403185  1  0  0.217044  0  3.808551  0  0  0.193195  0  4.079997  0  0  0.203894  0  4.097677  0  0  0.108992  0.185744  0  4.068315  0
C  C32  1  0.77242206  0.98228717  0.80726834  1  0  0.212059  0  3.839873  0  0  0.192386  0  4.114044  0  0  0.201262  0  4.132685  0  0  0.104797  0.186058  0  4.101852  0
C  C33  1  0.27241407  0.48228215  0.69274062  1  0  0.211647  0  3.840562  0  0  0.192177  0  4.114416  0  0  0.201056  0  4.133053  0  0  0.104473  0.185861  0  4.102253  0
C  C34  1  0.22760108  0.01770813  0.19273130  1  0  0.211776  0  3.840201  0  0  0.192253  0  4.114211  0  0  0.20113  0  4.132853  0  0  0.104615  0.185935  0  4.102045  0
C  C35  1  0.72757573  0.51771560  0.30727038  1  0  0.212186  0  3.839909  0  0  0.192533  0  4.11406  0  0  0.201408  0  4.132703  0  0  0.104817  0.18621  0  4.101912  0
C  C36  1  0.83292705  0.06759831  0.87922855  1  0  0.219599  0  3.804598  0  0  0.196308  0  4.078737  0  0  0.208506  0  4.092701  0  0  0.112529  0.18787  0  4.069394  0
C  C37  1  0.33293050  0.56758624  0.62077815  1  0  0.219537  0  3.805036  0  0  0.196135  0  4.079158  0  0  0.208334  0  4.09312  0  0  0.112519  0.187669  0  4.069874  0
C  C38  1  0.16708312  0.93240905  0.12076882  1  0  0.219561  0  3.804904  0  0  0.196084  0  4.079171  0  0  0.208285  0  4.093134  0  0  0.11242  0.187622  0  4.069878  0
C  C39  1  0.66707533  0.43241115  0.37923133  1  0  0.219323  0  3.805143  0  0  0.195939  0  4.079391  0  0  0.208138  0  4.093354  0  0  0.112382  0.187473  0  4.070104  0
C  C40  1  0.81553683  0.04818741  0.98909393  1  0  0.246039  0  3.782119  0  0  0.222464  0  4.057079  0  0  0.236787  0  4.065997  0  0  0.123768  0.213016  0  4.050648  0
C  C41  1  0.31555092  0.54818176  0.51090972  1  0  0.246151  0  3.782228  0  0  0.222572  0  4.057209  0  0  0.236892  0  4.066135  0  0  0.123834  0.21313  0  4.050798  0
C  C42  1  0.18448796  0.95181709  0.01090874  1  0  0.246145  0  3.782019  0  0  0.222606  0  4.057014  0  0  0.23692  0  4.06594  0  0  0.123767  0.213165  0  4.050587  0
C  C43  1  0.68447763  0.45181510  0.48909371  1  0  0.246055  0  3.781837  0  0  0.222517  0  4.056833  0  0  0.236829  0  4.065759  0  0  0.123755  0.213076  0  4.050418  0
C  C44  1  0.70135213  0.95586410  0.02739342  1  0  0.224033  0  3.808149  0  0  0.206186  0  4.08383  0  0  0.218175  0  4.092664  0  0  0.118141  0.197969  0  4.077769  0
C  C45  1  0.20135158  0.45585770  0.47260310  1  0  0.224051  0  3.80823  0  0  0.206201  0  4.083913  0  0  0.218201  0  4.092742  0  0  0.118138  0.197986  0  4.077866  0
C  C46  1  0.29866499  0.04415148  0.97260319  1  0  0.224368  0  3.807959  0  0  0.206466  0  4.083651  0  0  0.218477  0  4.092472  0  0  0.118197  0.198248  0  4.077588  0
C  C47  1  0.79868231  0.54413903  0.52739882  1  0  0.224381  0  3.807635  0  0  0.206484  0  4.083391  0  0  0.218496  0  4.092204  0  0  0.118224  0.198267  0  4.077337  0
C  C48  1  0.15539187  0.62332910  0.02742463  1  0  0.198212  0  3.623356  0  0  0.159485  0  3.883282  0  0  0.170159  0  3.898495  0  0  0.080795  0.152526  0  3.873157  0
C  C49  1  0.65537512  0.12330807  0.47257049  1  0  0.198031  0  3.623387  0  0  0.159498  0  3.883357  0  0  0.170154  0  3.898537  0  0  0.08071  0.152529  0  3.873248  0
C  C50  1  0.84460780  0.37668437  0.97256593  1  0  0.198124  0  3.623639  0  0  0.159458  0  3.883647  0  0  0.170132  0  3.898839  0  0  0.080653  0.152497  0  3.873527  0
C  C51  1  0.34461315  0.87668384  0.52744505  1  0  0.198539  0  3.623365  0  0  0.159773  0  3.883395  0  0  0.170448  0  3.898602  0  0  0.080757  0.152801  0  3.873287  0
C  C52  1  0.08940715  0.56060710  0.10774443  1  0  -0.147733  0  3.643972  0  0  -0.160578  0  3.900719  0  0  -0.171557  0  3.920978  0  0  -0.066341  -0.153627  0  3.887606  0
C  C53  1  0.58941766  0.06058603  0.39224065  1  0  -0.147773  0  3.643935  0  0  -0.160733  0  3.900787  0  0  -0.171721  0  3.921053  0  0  -0.066366  -0.153789  0  3.887678  0
C  C54  1  0.91056517  0.43938770  0.89223401  1  0  -0.147664  0  3.644137  0  0  -0.160565  0  3.900969  0  0  -0.171539  0  3.921217  0  0  -0.066267  -0.153638  0  3.887844  0
C  C55  1  0.41057425  0.93939490  0.60777489  1  0  -0.147869  0  3.644411  0  0  -0.16078  0  3.901283  0  0  -0.171753  0  3.921531  0  0  -0.066347  -0.153846  0  3.888153  0
C  C56  1  0.19650704  0.47218586  0.14268967  1  0  0.19116  0  3.623409  0  0  0.155286  0  3.879671  0  0  0.165563  0  3.894989  0  0  0.079681  0.148512  0  3.869521  0
C  C57  1  0.69653847  0.97217151  0.35729762  1  0  0.1916  0  3.623374  0  0  0.15573  0  3.879706  0  0  0.166011  0  3.895016  0  0  0.07995  0.148948  0  3.869561  0
C  C58  1  0.80346789  0.52780721  0.85728802  1  0  0.191372  0  3.623227  0  0  0.155475  0  3.879541  0  0  0.165764  0  3.894837  0  0  0.079588  0.148699  0  3.869393  0
C  C59  1  0.30348555  0.02780951  0.64271640  1  0  0.191435  0  3.623581  0  0  0.155559  0  3.879884  0  0  0.16585  0  3.895184  0  0  0.07966  0.148779  0  3.869729  0
C  C60  1  0.41038882  0.51280419  0.02312698  1  0  0.328475  0  3.707507  0  0  0.302964  0  3.960092  0  0  0.317245  0  3.973901  0  0  0.263659  0.293327  0  3.950881  0
C  C61  1  0.91037945  0.01280058  0.47686874  1  0  0.32851  0  3.707694  0  0  0.303031  0  3.960294  0  0  0.31731  0  3.974091  0  0  0.263708  0.293389  0  3.951076  0
C  C62  1  0.58957589  0.48720338  0.97686282  1  0  0.328564  0  3.707308  0  0  0.302686  0  3.960388  0  0  0.316916  0  3.974237  0  0  0.263536  0.293046  0  3.951177  0
C  C63  1  0.08956648  0.98720491  0.52313772  1  0  0.328699  0  3.706739  0  0  0.302758  0  3.959838  0  0  0.317015  0  3.973665  0  0  0.26349  0.293111  0  3.950625  0
N  N64  1  0.31345386  0.59799577  0.98446398  1  0  -0.35373  0  3.18054  0  0  -0.285018  0  3.438196  0  0  -0.305885  0  3.453876  0  0  -0.304875  -0.271081  0  3.427532  0
N  N65  1  0.81344253  0.09798299  0.51553632  1  0  -0.353746  0  3.180608  0  0  -0.285059  0  3.438183  0  0  -0.305935  0  3.453881  0  0  -0.304822  -0.271121  0  3.427511  0
N  N66  1  0.68653529  0.40202298  0.01552507  1  0  -0.353641  0  3.180364  0  0  -0.284983  0  3.438296  0  0  -0.305841  0  3.453993  0  0  -0.304687  -0.271042  0  3.427625  0
N  N67  1  0.18654323  0.90201402  0.48448528  1  0  -0.353983  0  3.180204  0  0  -0.285181  0  3.438041  0  0  -0.306057  0  3.453744  0  0  -0.304752  -0.271243  0  3.427372  0
N  N68  1  0.35718646  0.44946155  0.10111070  1  0  -0.372255  0  3.182837  0  0  -0.306462  0  3.445862  0  0  -0.327928  0  3.461785  0  0  -0.307958  -0.292048  0  3.435054  0
N  N69  1  0.85720340  0.94946066  0.39888645  1  0  -0.372461  0  3.183174  0  0  -0.306681  0  3.44623  0  0  -0.328147  0  3.462147  0  0  -0.308164  -0.292272  0  3.435419  0
N  N70  1  0.64279757  0.55052375  0.89887077  1  0  -0.372458  0  3.18273  0  0  -0.306601  0  3.445917  0  0  -0.328047  0  3.461838  0  0  -0.307996  -0.292187  0  3.435105  0
N  N71  1  0.14280750  0.05052822  0.60112834  1  0  -0.372612  0  3.182572  0  0  -0.306745  0  3.445762  0  0  -0.328207  0  3.461687  0  0  -0.308022  -0.292335  0  3.434951  0
O  O72  1  0.51847694  0.80262159  0.97917196  1  0  -0.448804  0  2.021759  0  0  -0.407881  0  2.247082  0  0  -0.427391  0  2.246847  0  0  -0.270363  -0.393908  0  2.246823  0
O  O73  1  0.01848026  0.30261253  0.52082303  1  0  -0.448787  0  2.021664  0  0  -0.407836  0  2.246991  0  0  -0.427342  0  2.246755  0  0  -0.270369  -0.393848  0  2.246714  0
O  O74  1  0.48151769  0.19740123  0.02082163  1  0  -0.448581  0  2.021784  0  0  -0.40765  0  2.247032  0  0  -0.427156  0  2.246799  0  0  -0.270224  -0.393678  0  2.246762  0
O  O75  1  0.98153223  0.69738386  0.47917510  1  0  -0.448754  0  2.021403  0  0  -0.407834  0  2.246736  0  0  -0.427341  0  2.246505  0  0  -0.270362  -0.393847  0  2.246456  0
O  O76  1  0.62138681  0.81333664  0.78114972  1  0  -0.462431  0  2.064439  0  0  -0.402729  0  2.301706  0  0  -0.426859  0  2.298713  0  0  -0.274642  -0.385845  0  2.303481  0
O  O77  1  0.12136369  0.31333849  0.71885669  1  0  -0.462672  0  2.064807  0  0  -0.40291  0  2.302059  0  0  -0.427037  0  2.299062  0  0  -0.274717  -0.386011  0  2.303828  0
O  O78  1  0.37862058  0.18666743  0.21885598  1  0  -0.462627  0  2.06464  0  0  -0.402878  0  2.301937  0  0  -0.427003  0  2.298942  0  0  -0.274728  -0.385992  0  2.303725  0
O  O79  1  0.87861577  0.68667042  0.28114749  1  0  -0.462538  0  2.06479  0  0  -0.40284  0  2.30204  0  0  -0.426966  0  2.299039  0  0  -0.274727  -0.385943  0  2.303816  0
O  O80  1  0.80241411  0.99429538  0.71395363  1  0  -0.478733  0  2.039625  0  0  -0.43217  0  2.271367  0  0  -0.456055  0  2.273188  0  0  -0.282973  -0.415298  0  2.269787  0
O  O81  1  0.30237799  0.49429453  0.78605703  1  0  -0.478497  0  2.039871  0  0  -0.432  0  2.271451  0  0  -0.455887  0  2.273272  0  0  -0.282737  -0.415118  0  2.269877  0
O  O82  1  0.19762240  0.00569961  0.28604677  1  0  -0.4786  0  2.039612  0  0  -0.432061  0  2.271248  0  0  -0.455949  0  2.273074  0  0  -0.282816  -0.415186  0  2.269672  0
O  O83  1  0.69757584  0.50570742  0.21395473  1  0  -0.478807  0  2.039595  0  0  -0.432226  0  2.271319  0  0  -0.456116  0  2.273141  0  0  -0.282991  -0.415343  0  2.269755  0
O  O84  1  0.90721243  0.15497256  0.84783601  1  0  -0.45045  0  2.037209  0  0  -0.394801  0  2.26929  0  0  -0.417732  0  2.267861  0  0  -0.267218  -0.378496  0  2.269871  0
O  O85  1  0.40720614  0.65496384  0.65216929  1  0  -0.450388  0  2.03729  0  0  -0.394692  0  2.269326  0  0  -0.417629  0  2.267898  0  0  -0.267124  -0.378359  0  2.269911  0
O  O86  1  0.09278321  0.84504017  0.15216136  1  0  -0.450403  0  2.03733  0  0  -0.39465  0  2.26938  0  0  -0.417587  0  2.267951  0  0  -0.26708  -0.378334  0  2.269976  0
O  O87  1  0.59278644  0.34503721  0.34784019  1  0  -0.450377  0  2.037349  0  0  -0.394591  0  2.26935  0  0  -0.417524  0  2.267924  0  0  -0.267066  -0.378266  0  2.269937  0
O  O88  1  0.89734661  0.11040693  0.04876733  1  0  -0.466168  0  2.078462  0  0  -0.423138  0  2.309407  0  0  -0.442268  0  2.307815  0  0  -0.258253  -0.409414  0  2.310132  0
O  O89  1  0.39736427  0.61039547  0.45123677  1  0  -0.466104  0  2.078547  0  0  -0.423114  0  2.309504  0  0  -0.442242  0  2.307908  0  0  -0.258244  -0.409374  0  2.310226  0
O  O90  1  0.10267559  0.88960015  0.95122853  1  0  -0.466341  0  2.07848  0  0  -0.423301  0  2.309479  0  0  -0.442437  0  2.307889  0  0  -0.258285  -0.409564  0  2.310198  0
O  O91  1  0.60265871  0.38959481  0.54877045  1  0  -0.466267  0  2.078327  0  0  -0.42323  0  2.309244  0  0  -0.44236  0  2.307657  0  0  -0.25824  -0.409491  0  2.309968  0
O  O92  1  0.66779876  0.94750051  0.11890338  1  0  -0.408513  0  1.943798  0  0  -0.385173  0  2.159486  0  0  -0.397065  0  2.157932  0  0  -0.264335  -0.376466  0  2.160419  0
O  O93  1  0.16777888  0.44750949  0.38109366  1  0  -0.408612  0  1.944024  0  0  -0.385245  0  2.159722  0  0  -0.397144  0  2.158169  0  0  -0.264366  -0.376519  0  2.160653  0
O  O94  1  0.33220618  0.05251032  0.88109172  1  0  -0.408664  0  1.943761  0  0  -0.385284  0  2.159472  0  0  -0.397187  0  2.157913  0  0  -0.264365  -0.376567  0  2.160392  0
O  O95  1  0.83225367  0.55248728  0.61890599  1  0  -0.408644  0  1.943653  0  0  -0.385294  0  2.159389  0  0  -0.397194  0  2.157827  0  0  -0.264405  -0.37657  0  2.160318  0
O  O96  1  0.14296867  0.76043987  0.79610489  1  0  -0.819527  0  1.834146  0  0  -0.76003  0  2.02383  0  0  -0.781717  0  1.993697  0  0  -0.575761  -0.744667  0  2.044789  0
O  O97  1  0.64298129  0.26043271  0.70390885  1  0  -0.819414  0  1.834429  0  0  -0.759926  0  2.024061  0  0  -0.781625  0  1.99394  0  0  -0.575755  -0.744555  0  2.045006  0
O  O98  1  0.85701603  0.23956556  0.20391293  1  0  -0.819431  0  1.834389  0  0  -0.759936  0  2.024037  0  0  -0.781629  0  1.993908  0  0  -0.575687  -0.744567  0  2.044983  0
O  O99  1  0.35702557  0.73955542  0.29607868  1  0  -0.819293  0  1.834656  0  0  -0.759781  0  2.024275  0  0  -0.781476  0  1.994148  0  0  -0.575565  -0.744406  0  2.045215  0
