# generated using pymatgen
data_Mn2H15C19NO9
_symmetry_space_group_name_H-M   'P 1'
_cell_length_a   9.70577694
_cell_length_b   12.17107038
_cell_length_c   11.98923601
_cell_angle_alpha   104.08799260
_cell_angle_beta   109.38170563
_cell_angle_gamma   108.41005537
_symmetry_Int_Tables_number   1
_chemical_formula_structural   Mn2H15C19NO9
_chemical_formula_sum   'Mn4 H30 C38 N2 O18'
_cell_volume   1167.77635561
_cell_formula_units_Z   2
loop_
 _symmetry_equiv_pos_site_id
 _symmetry_equiv_pos_as_xyz
  1  'x, y, z'
loop_
 _atom_site_type_symbol
 _atom_site_label
 _atom_site_symmetry_multiplicity
 _atom_site_fract_x
 _atom_site_fract_y
 _atom_site_fract_z
 _atom_site_occupancy
 _atom_site_hle17_ddec_charge
 _atom_site_hle17_ddec_spin_density
 _atom_site_hle17_ddec_sum_bond_order
 _atom_site_hle17_magmom
 _atom_site_hse06_10hf_ddec_charge
 _atom_site_hse06_10hf_ddec_spin_density
 _atom_site_hse06_10hf_ddec_sum_bond_order
 _atom_site_hse06_10hf_magmom
 _atom_site_hse06_ddec_charge
 _atom_site_hse06_ddec_spin_density
 _atom_site_hse06_ddec_sum_bond_order
 _atom_site_hse06_magmom
 _atom_site_pbe_cm5_charge
 _atom_site_pbe_ddec_charge
 _atom_site_pbe_ddec_spin_density
 _atom_site_pbe_ddec_sum_bond_order
 _atom_site_pbe_magmom
Mn  Mn0  1  0.21575868  0.33271384  0.12805215  1  1.222526  4.789184  1.719649  4.657  1.064333  4.714438  2.226768  4.514  1.130605  4.761349  2.145972  4.583  0.615475  1.012286  4.665789  2.287002  4.445
Mn  Mn1  1  0.78424615  0.66728870  0.87195885  1  1.222494  4.789178  1.719639  4.657  1.064322  4.714431  2.226748  4.514  1.130595  4.761345  2.145952  4.583  0.615466  1.012273  4.665781  2.286971  4.445
Mn  Mn2  1  0.00000167  0.00000052  0.99999617  1  1.301746  4.796458  1.725182  4.686  1.148747  4.721775  2.241383  4.548  1.210091  4.763379  2.158427  4.61  0.623153  1.101022  4.675946  2.302506  4.482
Mn  Mn3  1  0.00000072  0.49999776  0.99999673  1  1.246068  4.791254  1.759254  4.682  1.108041  4.708251  2.253017  4.538  1.160442  4.756026  2.180799  4.605  0.613543  1.068372  4.654558  2.305912  4.465
H  H4  1  0.48601409  0.37145413  0.51889011  1  0.121307  -0.000532  0.931696  0.0  0.129024  -0.000395  0.993103  0.0  0.133686  -0.00045  0.988847  0.0  0.1138  0.125556  -0.000321  0.99627  0.0
H  H5  1  0.51398052  0.62854939  0.48111157  1  0.121321  -0.000538  0.931737  0.0  0.129019  -0.000395  0.993162  0.0  0.133677  -0.00045  0.988905  0.0  0.113815  0.125552  -0.000321  0.996328  0.0
H  H6  1  0.57177007  0.14056298  0.72934363  1  0.086704  -0.000256  1.007608  0.0  0.094193  -8.2e-05  1.076971  0.0  0.095706  -0.000123  1.077999  0.0  0.096152  0.093156  1.8e-05  1.076205  0.0
H  H7  1  0.42823214  0.85944051  0.27066185  1  0.086737  -0.000264  1.007574  0.0  0.094262  -8.2e-05  1.076914  0.0  0.095775  -0.000123  1.077941  0.0  0.096163  0.093226  1.8e-05  1.076155  0.0
H  H8  1  0.34408318  0.95008872  0.54313345  1  0.087245  9.7e-05  0.947909  0.0  0.098953  4.4e-05  1.00352  0.0  0.101618  2.6e-05  1.003429  0.0  0.099524  0.097067  7.9e-05  1.003694  0.0
H  H9  1  0.65591576  0.04991478  0.45687111  1  0.087259  8.8e-05  0.947868  0.0  0.09897  4.4e-05  1.003473  0.0  0.101632  2.6e-05  1.003385  0.0  0.099507  0.097088  7.9e-05  1.003653  0.0
H  H10  1  0.19773453  0.97195757  0.33867857  1  0.090816  -0.00045  0.967034  0.0  0.098758  -0.000299  1.034824  0.0  0.102412  -0.000346  1.031197  0.0  0.100591  0.096064  -0.000219  1.037524  0.0
H  H11  1  0.80225895  0.02804407  0.66132568  1  0.090743  -0.000455  0.967182  0.0  0.098781  -0.000299  1.034853  0.0  0.102392  -0.000346  1.031274  0.0  0.100593  0.096087  -0.000219  1.037549  0.0
H  H12  1  0.71476849  0.00958682  0.85248957  1  0.099581  -4e-06  1.010938  0.0  0.105511  0.000599  1.079551  0.0  0.108841  0.000389  1.077467  0.0  0.106391  0.102937  0.000831  1.081237  0.0
H  H13  1  0.28523387  0.99041291  0.14751088  1  0.099615  -5e-06  1.010857  0.0  0.105529  0.000599  1.07948  0.0  0.108857  0.000389  1.077394  0.0  0.106396  0.102954  0.000831  1.081167  0.0
H  H14  1  0.41967093  0.87189101  0.75046551  1  0.093864  6.3e-05  0.927891  0.0  0.10776  -4e-05  0.976732  0.0  0.110962  -4.3e-05  0.976203  0.0  0.105879  0.105329  -2.9e-05  0.977451  0.0
H  H15  1  0.58033298  0.12811154  0.24953773  1  0.09389  6.7e-05  0.927811  0.0  0.107755  -4e-05  0.976691  0.0  0.110956  -4.3e-05  0.976164  0.0  0.105884  0.105329  -2.9e-05  0.977411  0.0
H  H16  1  0.23718787  0.95237544  0.81435155  1  0.106689  -0.000668  0.933315  0.0  0.118025  -0.00048  0.988346  0.0  0.121893  -0.00052  0.985348  0.0  0.110029  0.115013  -0.00042  0.990844  0.0
H  H17  1  0.76282409  0.04763368  0.18565637  1  0.106815  -0.00067  0.933169  0.0  0.118097  -0.00048  0.988255  0.0  0.121969  -0.00052  0.985256  0.0  0.110043  0.115075  -0.000421  0.990765  0.0
H  H18  1  0.64577488  0.30791836  0.07030424  1  0.113951  -0.000656  0.936537  0.0  0.121582  -0.00041  1.000452  0.0  0.126217  -0.000487  0.996169  0.0  0.111107  0.118104  -0.000318  1.003681  0.0
H  H19  1  0.35424004  0.69208416  0.92969792  1  0.113943  -0.00066  0.936543  0.0  0.121593  -0.00041  1.000443  0.0  0.126232  -0.000487  0.996154  0.0  0.111099  0.118112  -0.000318  1.003671  0.0
H  H20  1  0.37238650  0.48416030  0.91063762  1  0.119245  -0.000562  0.947388  0.0  0.136758  -0.000619  1.012542  0.0  0.13848  -0.000647  1.010998  0.0  0.115921  0.135385  -0.000577  1.013785  0.0
H  H21  1  0.62759534  0.51583762  0.08934994  1  0.119273  -0.000563  0.947318  0.0  0.136787  -0.000619  1.012453  0.0  0.138516  -0.000646  1.0109  0.0  0.115946  0.135411  -0.000577  1.013697  0.0
H  H22  1  0.37231906  0.43404374  0.75707184  1  0.115859  -0.00015  0.919603  0.0  0.136743  1e-05  0.977598  0.0  0.137609  -8.3e-05  0.977111  0.0  0.114543  0.135886  0.000126  0.97819  0.0
H  H23  1  0.62766279  0.56595794  0.24291329  1  0.115885  -0.000155  0.919616  0.0  0.136691  1e-05  0.977684  0.0  0.137557  -8.3e-05  0.977201  0.0  0.114529  0.135836  0.000126  0.978274  0.0
H  H24  1  0.43649977  0.36455868  0.86715775  1  0.104393  4.2e-05  0.930484  0.0  0.124381  0.000261  0.995545  0.0  0.124073  0.000129  0.996812  0.0  0.107745  0.124405  0.000436  0.994833  0.001
H  H25  1  0.56349349  0.63544957  0.13282884  1  0.104399  4.5e-05  0.930343  0.0  0.124331  0.000262  0.995451  0.0  0.124026  0.000128  0.996715  0.0  0.107749  0.124354  0.000436  0.994744  0.001
H  H26  1  0.00145569  0.13972896  0.62780870  1  0.099002  -2.6e-05  0.956894  0.0  0.118573  -5e-06  1.022334  0.0  0.118959  -1.1e-05  1.022288  0.0  0.108667  0.118156  7e-06  1.02245  0.0
H  H27  1  0.99853716  0.86025951  0.37218219  1  0.098958  -2.5e-05  0.95701  0.0  0.118551  -4e-06  1.022413  0.0  0.118937  -1.1e-05  1.02237  0.0  0.108675  0.118133  7e-06  1.022528  0.0
H  H28  1  0.20225566  0.15166619  0.67433946  1  0.104686  0.000147  0.935318  0.0  0.12317  0.0004  0.999802  0.0  0.123163  0.000288  1.001599  0.0  0.105431  0.12304  0.000563  0.998633  0.001
H  H29  1  0.79774370  0.84832979  0.32565090  1  0.104687  0.000156  0.935243  0.0  0.123151  0.0004  0.999756  0.0  0.123143  0.000288  1.001555  0.0  0.105412  0.123022  0.000563  0.998592  0.001
H  H30  1  0.13751557  0.23740132  0.58368339  1  0.105795  0.00023  0.917381  0.0  0.126134  0.000454  0.974931  0.0  0.126639  0.000341  0.975513  0.0  0.10969  0.125591  0.00057  0.974696  0.0
H  H31  1  0.86247449  0.76259186  0.41630701  1  0.105754  0.00024  0.917185  0.0  0.126091  0.000454  0.974751  0.0  0.126595  0.000341  0.975336  0.0  0.10965  0.125546  0.00057  0.974518  0.0
H  H32  1  0.96691122  0.24180314  0.78513784  1  0.051312  -0.00091  0.915914  0.0  0.061245  -0.000595  0.983064  0.0  0.063285  -0.00074  0.97754  0.0  0.130711  0.059476  -0.000397  0.987411  0.0
H  H33  1  0.03309181  0.75818246  0.21486523  1  0.051371  -0.000887  0.915877  0.0  0.061321  -0.000595  0.983014  0.0  0.063361  -0.000741  0.977493  0.0  0.130726  0.059548  -0.000397  0.987365  0.0
C  C34  1  0.24646643  0.18177498  0.29278319  1  0.671858  0.009247  3.890779  0.01  0.622161  0.016296  4.177109  0.015  0.658313  0.012541  4.17122  0.012  0.22758  0.597055  0.020238  4.179621  0.018
C  C35  1  0.75352496  0.81823043  0.70721470  1  0.671541  0.009249  3.89094  0.01  0.621975  0.016305  4.177083  0.015  0.658147  0.012549  4.17117  0.012  0.227586  0.596865  0.020249  4.179591  0.018
C  C36  1  0.33296017  0.17209071  0.41675512  1  -0.078715  -0.000399  3.774185  0.0  -0.053334  0.000201  4.00868  0.0  -0.06321  -0.000704  4.032637  0.0  -0.021153  -0.047167  0.000862  3.992894  0.001
C  C37  1  0.66703051  0.82790810  0.58325266  1  -0.078548  -0.000444  3.774195  0.0  -0.053129  0.000197  4.008587  0.0  -0.063011  -0.000712  4.03253  0.0  -0.021101  -0.046958  0.00086  3.992791  0.001
C  C38  1  0.45617615  0.27914799  0.52373294  1  -0.069382  0.004196  3.692648  0.004  -0.106475  0.005099  3.938935  0.004  -0.103342  0.004267  3.95658  0.004  -0.074056  -0.108352  0.006242  3.927371  0.005
C  C39  1  0.54382223  0.72085269  0.47627329  1  -0.069401  0.004246  3.692418  0.004  -0.106528  0.005104  3.938731  0.004  -0.103386  0.004274  3.956371  0.004  -0.074037  -0.108409  0.006246  3.927166  0.005
C  C40  1  0.54325818  0.26686688  0.63565811  1  -0.077562  -0.000914  3.772331  0.0  -0.052636  -0.000424  4.008189  0.0  -0.061852  -0.001344  4.030382  -0.001  -0.018997  -0.046937  0.000364  3.993666  0.0
C  C41  1  0.45673986  0.73313664  0.36433786  1  -0.077592  -0.000967  3.772356  0.0  -0.052628  -0.000427  4.00818  0.0  -0.061845  -0.001348  4.030378  -0.001  -0.019019  -0.04693  0.000364  3.993656  0.0
C  C42  1  0.50256622  0.14825399  0.64180418  1  -0.063713  0.004173  3.740515  0.004  -0.092495  0.00495  3.991262  0.004  -0.090653  0.004145  4.012169  0.003  -0.084056  -0.093345  0.006268  3.976752  0.005
C  C43  1  0.49742573  0.85174483  0.35819645  1  -0.063695  0.004216  3.740641  0.004  -0.092547  0.004953  3.991401  0.004  -0.090706  0.004151  4.012311  0.003  -0.084051  -0.0934  0.006271  3.976901  0.005
C  C44  1  0.37514602  0.04206386  0.53717994  1  -0.086631  -0.003213  3.807427  -0.002  -0.095463  -0.001713  4.06064  -0.001  -0.100675  -0.002261  4.083581  -0.002  -0.095282  -0.091955  -0.001472  4.044787  -0.001
C  C45  1  0.62485182  0.95793965  0.46282432  1  -0.086607  -0.003225  3.807289  -0.002  -0.095431  -0.001713  4.060548  -0.001  -0.100639  -0.002269  4.083477  -0.002  -0.095244  -0.091928  -0.001474  4.044708  -0.001
C  C46  1  0.29267276  0.05362665  0.42422807  1  -0.069347  0.004008  3.745813  0.004  -0.095958  0.00482  3.995194  0.004  -0.094422  0.003991  4.015263  0.003  -0.084919  -0.096637  0.00634  3.981485  0.005
C  C47  1  0.70732570  0.94637592  0.57577363  1  -0.069362  0.004043  3.745627  0.004  -0.096062  0.004821  3.995001  0.004  -0.094492  0.003997  4.015085  0.003  -0.084931  -0.096741  0.006342  3.981292  0.005
C  C48  1  0.87695652  0.24690263  0.03024878  1  0.680703  0.016935  3.833393  0.017  0.629741  0.028057  4.117804  0.025  0.667664  0.021253  4.109579  0.02  0.230507  0.602454  0.03579  4.12318  0.031
C  C49  1  0.12304487  0.75309334  0.96974882  1  0.680722  0.016923  3.833607  0.017  0.629769  0.028048  4.118009  0.025  0.667689  0.021246  4.109785  0.02  0.230475  0.602487  0.035776  4.123381  0.031
C  C50  1  0.69934358  0.16692094  0.96833597  1  -0.076511  -0.006916  3.757757  -0.005  -0.050258  -0.00489  3.993893  -0.003  -0.061035  -0.005715  4.015944  -0.004  -0.015961  -0.043584  -0.004413  3.980083  -0.004
C  C51  1  0.30066540  0.83307501  0.03166543  1  -0.076665  -0.00694  3.757759  -0.005  -0.050446  -0.004889  3.993918  -0.003  -0.061219  -0.005719  4.015969  -0.004  -0.016049  -0.043771  -0.004411  3.980105  -0.004
C  C52  1  0.63452442  0.04393552  0.87852308  1  -0.054807  0.006306  3.699259  0.006  -0.084085  0.007589  3.950688  0.006  -0.080888  0.006164  3.968574  0.005  -0.077444  -0.086345  0.010407  3.939227  0.008
C  C53  1  0.36548536  0.95606795  0.12148703  1  -0.05474  0.006333  3.699236  0.006  -0.08396  0.007585  3.950607  0.006  -0.080763  0.006163  3.968489  0.005  -0.077356  -0.086218  0.010401  3.93915  0.008
C  C54  1  0.46849742  0.96718801  0.82058344  1  -0.073302  -0.005324  3.765606  -0.004  -0.08272  -0.002894  4.022178  -0.002  -0.088357  -0.003598  4.043516  -0.002  -0.085244  -0.079141  -0.002846  4.008173  -0.002
C  C55  1  0.53149775  0.03281268  0.17941938  1  -0.07344  -0.005365  3.76584  -0.004  -0.082862  -0.002893  4.022395  -0.002  -0.0885  -0.0036  4.043735  -0.002  -0.08532  -0.079283  -0.002845  4.008394  -0.002
C  C56  1  0.36660937  0.01161426  0.85457146  1  -0.049627  0.006102  3.718653  0.005  -0.078618  0.006859  3.969982  0.006  -0.075222  0.005607  3.988392  0.005  -0.074772  -0.08104  0.009557  3.95799  0.008
C  C57  1  0.63339511  0.98838358  0.14543331  1  -0.049754  0.006118  3.718729  0.005  -0.078667  0.006859  3.969993  0.006  -0.075277  0.00561  3.988408  0.005  -0.074746  -0.081074  0.009557  3.958004  0.008
C  C58  1  0.43037456  0.13431852  0.94515252  1  -0.08714  -0.003934  3.777308  -0.002  -0.060692  -0.002311  4.015477  -0.002  -0.071265  -0.003361  4.039094  -0.002  -0.020118  -0.05404  -0.001702  4.00014  -0.002
C  C59  1  0.56963905  0.86568965  0.05485563  1  -0.087166  -0.003931  3.777219  -0.002  -0.060759  -0.00231  4.015468  -0.002  -0.071333  -0.003365  4.03909  -0.002  -0.02022  -0.054104  -0.001701  4.000127  -0.002
C  C60  1  0.59619770  0.21291048  0.99977721  1  -0.055657  0.006574  3.672794  0.006  -0.09568  0.007383  3.925076  0.006  -0.09096  0.006074  3.941299  0.005  -0.069752  -0.098796  0.009573  3.914634  0.008
C  C61  1  0.40380938  0.78709394  0.00023070  1  -0.055597  0.006583  3.672783  0.006  -0.095609  0.00738  3.925068  0.006  -0.090895  0.006075  3.941298  0.005  -0.069709  -0.098719  0.00957  3.914615  0.008
C  C62  1  0.35159188  0.40392896  0.83148304  1  -0.167559  -0.000781  3.6149  0.0  -0.271193  -0.000556  3.865118  0.0  -0.266851  -0.000753  3.874214  0.0  -0.128434  -0.273808  -0.000349  3.85916  0.0
C  C63  1  0.64839706  0.59606988  0.16850507  1  -0.167598  -0.000774  3.614695  0.0  -0.271083  -0.000558  3.864888  0.0  -0.266726  -0.000753  3.873942  0.0  -0.128418  -0.273723  -0.000349  3.858928  0.0
C  C64  1  0.12780730  0.20347131  0.65895736  1  -0.167103  0.00017  3.656386  0.0  -0.265874  0.000577  3.899652  0.0  -0.262576  0.000352  3.911374  0.0  -0.123745  -0.267743  0.000787  3.891792  0.0
C  C65  1  0.87218826  0.79652375  0.34103170  1  -0.166996  0.000131  3.656277  0.0  -0.26572  0.000576  3.899554  0.0  -0.26242  0.00035  3.911273  0.0  -0.123617  -0.267612  0.000787  3.891676  0.0
C  C66  1  0.09204031  0.31636020  0.83653662  1  0.417193  0.007797  3.755832  0.008  0.336141  0.013933  4.044472  0.013  0.366549  0.009449  4.043447  0.009  0.193815  0.314718  0.019224  4.045323  0.017
C  C67  1  0.90795455  0.68363014  0.16346112  1  0.416985  0.007743  3.75605  0.008  0.335921  0.013937  4.044735  0.013  0.366324  0.009451  4.043718  0.009  0.193745  0.314472  0.01923  4.045573  0.017
C  C68  1  0.67808402  0.38079815  0.74953049  1  0.683764  0.010366  3.875327  0.011  0.633601  0.017419  4.16226  0.017  0.670689  0.01347  4.154838  0.014  0.233232  0.607683  0.021578  4.165907  0.02
C  C69  1  0.32191029  0.61919878  0.25046369  1  0.683655  0.01038  3.87557  0.011  0.633506  0.017417  4.162451  0.017  0.670591  0.013469  4.155037  0.014  0.233146  0.607588  0.021576  4.166097  0.02
C  C70  1  0.31989449  0.17453567  0.98834383  1  0.661013  0.013462  3.899161  0.013  0.608238  0.02229  4.192628  0.02  0.644714  0.017091  4.186694  0.016  0.219998  0.582511  0.028177  4.195744  0.024
C  C71  1  0.68011428  0.82546404  0.01166426  1  0.661205  0.01344  3.898826  0.013  0.608385  0.02229  4.19235  0.02  0.644861  0.01709  4.186412  0.016  0.220043  0.582657  0.028176  4.195473  0.024
N  N72  1  0.18521696  0.30917426  0.77758365  1  -0.070282  0.005711  3.495282  0.007  0.03507  0.010559  3.727627  0.011  0.014944  0.008233  3.752929  0.009  -0.267815  0.048233  0.013071  3.710635  0.014
N  N73  1  0.81477530  0.69081892  0.22240653  1  -0.070161  0.005736  3.495546  0.007  0.035072  0.01056  3.727964  0.011  0.014946  0.008233  3.753275  0.009  -0.267865  0.048311  0.013072  3.710881  0.014
O  O74  1  0.27520688  0.29073331  0.29145636  1  -0.633874  0.038414  2.022516  0.028  -0.572098  0.045565  2.28209  0.031  -0.604186  0.03945  2.265699  0.025  -0.307645  -0.547752  0.051421  2.292375  0.036
O  O75  1  0.72478110  0.70926646  0.70854922  1  -0.633716  0.038407  2.022355  0.028  -0.571979  0.045558  2.281848  0.031  -0.604075  0.03944  2.265455  0.025  -0.307674  -0.547634  0.051414  2.292128  0.036
O  O76  1  0.15104672  0.07836265  0.19618174  1  -0.669917  0.0358  2.118543  0.022  -0.600679  0.043279  2.389402  0.026  -0.633468  0.038472  2.374203  0.021  -0.310326  -0.575774  0.048088  2.398543  0.03
O  O77  1  0.84896473  0.92164742  0.80382376  1  -0.669827  0.035808  2.118346  0.022  -0.600728  0.043288  2.389258  0.026  -0.633528  0.038481  2.374046  0.021  -0.310401  -0.575826  0.0481  2.398405  0.03
O  O78  1  0.97153462  0.19259827  0.02652208  1  -0.693362  0.056472  2.097416  0.031  -0.619412  0.072907  2.386033  0.041  -0.654818  0.064699  2.367456  0.034  -0.296005  -0.592574  0.081247  2.398093  0.049
O  O79  1  0.02847496  0.80739862  0.97347638  1  -0.69335  0.056468  2.097388  0.031  -0.619405  0.072902  2.386  0.041  -0.654809  0.064696  2.367424  0.034  -0.29601  -0.592566  0.081239  2.398045  0.049
O  O80  1  0.93387055  0.36559088  0.08540246  1  -0.655691  0.031949  2.0114  0.014  -0.596472  0.04682  2.269117  0.024  -0.625077  0.040638  2.251908  0.02  -0.30114  -0.574993  0.053232  2.280682  0.03
O  O81  1  0.06614060  0.63441072  0.91459674  1  -0.655661  0.031954  2.011651  0.014  -0.596445  0.04682  2.269362  0.024  -0.625046  0.040639  2.252146  0.02  -0.301089  -0.574968  0.053232  2.280925  0.03
O  O82  1  0.14029585  0.40137648  0.94439992  1  -0.587961  0.03771  2.148816  0.015  -0.521472  0.051891  2.437095  0.024  -0.549622  0.04733  2.422053  0.021  -0.282179  -0.500733  0.056302  2.447198  0.027
O  O83  1  0.85969862  0.59861481  0.05559043  1  -0.587942  0.037716  2.148831  0.015  -0.521427  0.051895  2.437133  0.024  -0.549581  0.047335  2.422093  0.021  -0.282154  -0.500678  0.056304  2.447222  0.027
O  O84  1  0.79406606  0.36807957  0.82566897  1  -0.656388  0.033493  2.039208  0.022  -0.594711  0.040692  2.301371  0.025  -0.627471  0.03641  2.289401  0.022  -0.305998  -0.569823  0.044938  2.308263  0.029
O  O85  1  0.20593846  0.63192393  0.17433133  1  -0.656222  0.03348  2.039326  0.022  -0.59457  0.040685  2.301466  0.025  -0.627328  0.036405  2.2895  0.021  -0.305919  -0.56968  0.04493  2.308351  0.029
O  O86  1  0.66374602  0.48282661  0.76107825  1  -0.648403  0.039583  2.095859  0.024  -0.577857  0.045399  2.372235  0.025  -0.611829  0.039341  2.353854  0.019  -0.308225  -0.551978  0.051429  2.384039  0.03
O  O87  1  0.33625968  0.51717501  0.23891943  1  -0.648437  0.039574  2.09594  0.024  -0.577832  0.045398  2.372231  0.025  -0.611803  0.039339  2.35385  0.019  -0.308202  -0.551953  0.051428  2.38404  0.03
O  O88  1  0.37420251  0.28876876  0.06407894  1  -0.644026  0.038883  2.002648  0.026  -0.576551  0.045723  2.264916  0.028  -0.609216  0.039388  2.250959  0.022  -0.311656  -0.552156  0.052348  2.273776  0.035
O  O89  1  0.62580302  0.71123473  0.93592498  1  -0.644118  0.038894  2.002636  0.026  -0.576623  0.045726  2.264942  0.028  -0.609285  0.039391  2.250978  0.022  -0.311646  -0.552232  0.05235  2.273808  0.035
O  O90  1  0.17632180  0.09168522  0.94745914  1  -0.674462  0.034755  2.088836  0.019  -0.61376  0.046187  2.371897  0.026  -0.645301  0.040602  2.355791  0.021  -0.310213  -0.590139  0.051917  2.382349  0.031
O  O91  1  0.82368872  0.90830978  0.05254747  1  -0.674555  0.034757  2.088765  0.019  -0.613827  0.046183  2.37183  0.026  -0.645368  0.040598  2.355724  0.021  -0.310218  -0.590202  0.051912  2.38228  0.031
