# generated using pymatgen
data_Na2MgH24(C5O6)4
_symmetry_space_group_name_H-M   'P 1'
_cell_length_a   7.26269423
_cell_length_b   10.28973791
_cell_length_c   10.52701083
_cell_angle_alpha   85.62181401
_cell_angle_beta   69.86140578
_cell_angle_gamma   76.88271799
_symmetry_Int_Tables_number   1
_chemical_formula_structural   Na2MgH24(C5O6)4
_chemical_formula_sum   'Na2 Mg1 H24 C20 O24'
_cell_volume   719.32649628
_cell_formula_units_Z   1
loop_
 _symmetry_equiv_pos_site_id
 _symmetry_equiv_pos_as_xyz
  1  'x, y, z'
loop_
 _atom_site_type_symbol
 _atom_site_label
 _atom_site_symmetry_multiplicity
 _atom_site_fract_x
 _atom_site_fract_y
 _atom_site_fract_z
 _atom_site_occupancy
 _atom_site_hle17_bader_spin_density
 _atom_site_hle17_ddec_charge
 _atom_site_hle17_ddec_spin_density
 _atom_site_hle17_ddec_sum_bond_order
 _atom_site_hle17_magmom
 _atom_site_hse06_10hf_bader_spin_density
 _atom_site_hse06_10hf_ddec_charge
 _atom_site_hse06_10hf_ddec_spin_density
 _atom_site_hse06_10hf_ddec_sum_bond_order
 _atom_site_hse06_10hf_magmom
 _atom_site_hse06_bader_spin_density
 _atom_site_hse06_ddec_charge
 _atom_site_hse06_ddec_spin_density
 _atom_site_hse06_ddec_sum_bond_order
 _atom_site_hse06_magmom
 _atom_site_pbe_bader_spin_density
 _atom_site_pbe_cm5_charge
 _atom_site_pbe_ddec_charge
 _atom_site_pbe_ddec_spin_density
 _atom_site_pbe_ddec_sum_bond_order
 _atom_site_pbe_magmom
Na  Na0  1  0.30210381  0.64011179  0.99957796  1  0  0.90632  0  0.378057  0  0  0.87036  0  0.520199  0  0  0.880093  0  0.498211  0  0  0.687536  0.862997  0  0.536393  0
Na  Na1  1  0.69789631  0.35989497  0.00041959  1  0  0.90633  0  0.378033  0  0  0.870341  0  0.520196  0  0  0.880089  0  0.498201  0  0  0.68752  0.862981  0  0.536391  0
Mg  Mg2  1  0.99999669  0.00000060  0.00000092  1  0  1.55726  0  1.038705  0  0  1.455754  0  1.285205  0  0  1.475277  0  1.252589  0  0  0.801661  1.441846  0  1.308227  0
H  H3  1  0.37285524  0.49902653  0.25472507  1  0  0.111288  0  0.96908  0  0  0.118717  0  1.03186  0  0  0.123481  0  1.028893  0  0  0.119223  0.11501  0  1.034709  0
H  H4  1  0.62714874  0.50097125  0.74527151  1  0  0.111322  0  0.969012  0  0  0.118746  0  1.031807  0  0  0.123513  0  1.028834  0  0  0.119214  0.115035  0  1.034654  0
H  H5  1  0.12601010  0.50027455  0.74824597  1  0  0.11278  0  0.969337  0  0  0.117767  0  1.034629  0  0  0.123513  0  1.029449  0  0  0.115911  0.113573  0  1.038584  0
H  H6  1  0.87399461  0.49972025  0.25175675  1  0  0.112781  0  0.96936  0  0  0.117786  0  1.034635  0  0  0.123531  0  1.029457  0  0  0.115944  0.113593  0  1.038586  0
H  H7  1  0.92570291  0.83358295  0.51818355  1  0  0.393956  0  0.926236  0  0  0.360223  0  0.997757  0  0  0.373414  0  0.979865  0  0  0.298578  0.351066  0  1.010168  0
H  H8  1  0.55592547  0.16571000  0.51915264  1  0  0.394198  0  0.925753  0  0  0.360447  0  0.99731  0  0  0.373592  0  0.979464  0  0  0.298431  0.351214  0  1.00984  0
H  H9  1  0.07431566  0.16641586  0.48182013  1  0  0.394011  0  0.926041  0  0  0.360272  0  0.997654  0  0  0.373466  0  0.979757  0  0  0.298597  0.351118  0  1.010062  0
H  H10  1  0.44405869  0.83428176  0.48084963  1  0  0.394202  0  0.92583  0  0  0.360468  0  0.997295  0  0  0.373608  0  0.979458  0  0  0.298444  0.351233  0  1.009826  0
H  H11  1  0.31489773  0.88448843  0.07858730  1  0  0.445241  0  0.820563  0  0  0.418649  0  0.8807  0  0  0.428642  0  0.865788  0  0  0.324075  0.41142  0  0.891546  0
H  H12  1  0.60810053  0.11806849  0.08137024  1  0  0.444655  0  0.82316  0  0  0.416557  0  0.885851  0  0  0.426833  0  0.870488  0  0  0.321472  0.409162  0  0.89695  0
H  H13  1  0.68508005  0.11550732  0.92141714  1  0  0.445218  0  0.82057  0  0  0.418612  0  0.880748  0  0  0.428605  0  0.865837  0  0  0.324045  0.411383  0  0.891594  0
H  H14  1  0.39189672  0.88194029  0.91864278  1  0  0.44466  0  0.823135  0  0  0.416586  0  0.885815  0  0  0.426854  0  0.870457  0  0  0.321521  0.40919  0  0.896915  0
H  H15  1  0.34396675  0.36767076  0.92131188  1  0  0.433467  0  0.864682  0  0  0.405197  0  0.924004  0  0  0.41476  0  0.909818  0  0  0.298654  0.398229  0  0.93435  0
H  H16  1  0.73537120  0.63208204  0.92036551  1  0  0.432859  0  0.865463  0  0  0.404591  0  0.924824  0  0  0.414149  0  0.910669  0  0  0.297947  0.397734  0  0.935049  0
H  H17  1  0.65603752  0.63233701  0.07868705  1  0  0.433357  0  0.864819  0  0  0.405089  0  0.924139  0  0  0.41465  0  0.909957  0  0  0.298612  0.398122  0  0.934483  0
H  H18  1  0.26462549  0.36792073  0.07963678  1  0  0.432917  0  0.865374  0  0  0.404659  0  0.924721  0  0  0.41422  0  0.910562  0  0  0.29796  0.397802  0  0.934946  0
H  H19  1  0.78925325  0.06604957  0.26569229  1  0  0.439614  0  0.861057  0  0  0.404615  0  0.929036  0  0  0.416278  0  0.911916  0  0  0.296793  0.396314  0  0.941242  0
H  H20  1  0.94784151  0.93316431  0.26524902  1  0  0.44092  0  0.859391  0  0  0.405808  0  0.927535  0  0  0.417521  0  0.910321  0  0  0.297134  0.397468  0  0.939813  0
H  H21  1  0.21073963  0.93395220  0.73431121  1  0  0.43954  0  0.861191  0  0  0.404558  0  0.929121  0  0  0.416217  0  0.912008  0  0  0.296721  0.396261  0  0.941316  0
H  H22  1  0.05216432  0.06684846  0.73474966  1  0  0.440871  0  0.859459  0  0  0.405751  0  0.927613  0  0  0.417463  0  0.910403  0  0  0.297109  0.397414  0  0.939887  0
H  H23  1  0.04141999  0.22564648  0.08040337  1  0  0.441236  0  0.857278  0  0  0.408813  0  0.922568  0  0  0.419343  0  0.906945  0  0  0.305675  0.401397  0  0.933569  0
H  H24  1  0.87891750  0.77429671  0.07978521  1  0  0.440741  0  0.857797  0  0  0.408093  0  0.923433  0  0  0.41863  0  0.907791  0  0  0.305732  0.400626  0  0.934548  0
H  H25  1  0.95857620  0.77435329  0.91959598  1  0  0.44129  0  0.857198  0  0  0.408837  0  0.922546  0  0  0.419367  0  0.90692  0  0  0.305676  0.401421  0  0.933548  0
H  H26  1  0.12108232  0.22570805  0.92021328  1  0  0.440737  0  0.857791  0  0  0.40807  0  0.923459  0  0  0.418611  0  0.907812  0  0  0.305715  0.400602  0  0.934579  0
C  C27  1  0.31804323  0.49929303  0.36460325  1  0  -0.075054  0  3.710425  0  0  -0.108636  0  3.962089  0  0  -0.111102  0  3.983166  0  0  -0.073762  -0.107137  0  3.948642  0
C  C28  1  0.68195741  0.50070074  0.63539065  1  0  -0.075059  0  3.710493  0  0  -0.108644  0  3.962159  0  0  -0.111108  0  3.983235  0  0  -0.073684  -0.10714  0  3.948706  0
C  C29  1  0.18103567  0.50005445  0.63839871  1  0  -0.06215  0  3.715607  0  0  -0.101087  0  3.975695  0  0  -0.101947  0  3.995607  0  0  -0.075089  -0.100455  0  3.962465  0
C  C30  1  0.81895055  0.49993731  0.36160296  1  0  -0.062105  0  3.715589  0  0  -0.101036  0  3.975664  0  0  -0.101891  0  3.995574  0  0  -0.07506  -0.100397  0  3.96244  0
C  C31  1  0.11119302  0.61428781  0.57329643  1  0  -0.087296  0  3.685841  0  0  -0.07493  0  3.93343  0  0  -0.0805  0  3.955687  0  0  -0.00769  -0.071067  0  3.918303  0
C  C32  1  0.31579480  0.38542537  0.57352231  1  0  -0.086926  0  3.683177  0  0  -0.075335  0  3.931423  0  0  -0.080877  0  3.95368  0  0  -0.008019  -0.071559  0  3.916378  0
C  C33  1  0.88882147  0.38570599  0.42669678  1  0  -0.087107  0  3.685626  0  0  -0.074737  0  3.933129  0  0  -0.080301  0  3.955379  0  0  -0.00763  -0.070902  0  3.918046  0
C  C34  1  0.68420266  0.61457339  0.42647609  1  0  -0.086887  0  3.683137  0  0  -0.075381  0  3.931422  0  0  -0.080929  0  3.953684  0  0  -0.008017  -0.071602  0  3.916373  0
C  C35  1  0.18624058  0.61490258  0.42962144  1  0  -0.063765  0  3.671443  0  0  -0.05203  0  3.913917  0  0  -0.055898  0  3.935187  0  0  -0.004189  -0.049373  0  3.899548  0
C  C36  1  0.38480232  0.38408438  0.42978850  1  0  -0.064146  0  3.672201  0  0  -0.052566  0  3.915991  0  0  -0.056486  0  3.937313  0  0  -0.004144  -0.050043  0  3.901723  0
C  C37  1  0.81375942  0.38509818  0.57037670  1  0  -0.063998  0  3.671063  0  0  -0.052281  0  3.913581  0  0  -0.056156  0  3.934857  0  0  -0.004303  -0.049616  0  3.899216  0
C  C38  1  0.61519428  0.61590941  0.57021534  1  0  -0.063973  0  3.672271  0  0  -0.05238  0  3.916054  0  0  -0.056297  0  3.937373  0  0  -0.004146  -0.049858  0  3.901787  0
C  C39  1  0.14110052  0.72684978  0.33445895  1  0  0.669526  0  3.870146  0  0  0.614092  0  4.177624  0  0  0.646819  0  4.170569  0  0  0.223486  0.591937  0  4.181615  0
C  C40  1  0.52515220  0.27163085  0.33492020  1  0  0.669041  0  3.873792  0  0  0.612935  0  4.181816  0  0  0.645665  0  4.174746  0  0  0.224028  0.590819  0  4.185711  0
C  C41  1  0.85890591  0.27314901  0.66554222  1  0  0.669632  0  3.86997  0  0  0.614182  0  4.177451  0  0  0.64691  0  4.170392  0  0  0.223524  0.592034  0  4.181438  0
C  C42  1  0.47485803  0.72835594  0.66507222  1  0  0.668896  0  3.873627  0  0  0.612785  0  4.181676  0  0  0.645514  0  4.174611  0  0  0.223949  0.590663  0  4.185574  0
C  C43  1  0.96226529  0.72148726  0.67122176  1  0  0.674236  0  3.799067  0  0  0.612532  0  4.115293  0  0  0.645997  0  4.106878  0  0  0.240034  0.58986  0  4.120423  0
C  C44  1  0.36583545  0.27852494  0.67176311  1  0  0.674791  0  3.795926  0  0  0.614335  0  4.110392  0  0  0.647812  0  4.101932  0  0  0.241909  0.591593  0  4.115595  0
C  C45  1  0.03774382  0.27851253  0.32877785  1  0  0.674079  0  3.799328  0  0  0.612467  0  4.11541  0  0  0.645935  0  4.106994  0  0  0.240086  0.589803  0  4.120537  0
C  C46  1  0.63417386  0.72147186  0.32823875  1  0  0.674584  0  3.795927  0  0  0.614283  0  4.110206  0  0  0.647758  0  4.101751  0  0  0.241953  0.591543  0  4.115408  0
O  O47  1  0.24302078  0.71571411  0.21112001  1  0  -0.666016  0  1.954781  0  0  -0.621762  0  2.193053  0  0  -0.643837  0  2.182012  0  0  -0.383667  -0.60599  0  2.200295  0
O  O48  1  0.54663134  0.28204209  0.21148257  1  0  -0.66696  0  1.961546  0  0  -0.621139  0  2.199016  0  0  -0.643448  0  2.188032  0  0  -0.382109  -0.605271  0  2.206303  0
O  O49  1  0.75698017  0.28428266  0.78887553  1  0  -0.66605  0  1.954894  0  0  -0.621784  0  2.193164  0  0  -0.643865  0  2.182129  0  0  -0.38367  -0.606008  0  2.200396  0
O  O50  1  0.45337684  0.71796270  0.78852224  1  0  -0.667  0  1.96137  0  0  -0.621196  0  2.198842  0  0  -0.643504  0  2.187855  0  0  -0.38215  -0.605323  0  2.206124  0
O  O51  1  0.87552654  0.83149043  0.62833325  1  0  -0.506509  0  2.074337  0  0  -0.458545  0  2.284835  0  0  -0.47969  0  2.2676  0  0  -0.306628  -0.444336  0  2.296712  0
O  O52  1  0.49539652  0.16822825  0.62909170  1  0  -0.506203  0  2.073036  0  0  -0.459192  0  2.283399  0  0  -0.480293  0  2.266111  0  0  -0.307178  -0.444731  0  2.295333  0
O  O53  1  0.12447824  0.16850835  0.37166368  1  0  -0.506527  0  2.074391  0  0  -0.458587  0  2.284898  0  0  -0.479738  0  2.267676  0  0  -0.306637  -0.444375  0  2.296769  0
O  O54  1  0.50458833  0.83176752  0.37091741  1  0  -0.506093  0  2.072983  0  0  -0.459149  0  2.283264  0  0  -0.480252  0  2.265982  0  0  -0.307187  -0.444687  0  2.295198  0
O  O55  1  0.99728476  0.82809155  0.38346370  1  0  -0.594225  0  2.064241  0  0  -0.52786  0  2.271525  0  0  -0.553734  0  2.258948  0  0  -0.297858  -0.510005  0  2.280051  0
O  O56  1  0.61987657  0.17074047  0.38410267  1  0  -0.593196  0  2.063343  0  0  -0.526608  0  2.270687  0  0  -0.552304  0  2.25805  0  0  -0.297447  -0.508762  0  2.279226  0
O  O57  1  0.00274088  0.17192126  0.61653862  1  0  -0.594271  0  2.064213  0  0  -0.527872  0  2.271501  0  0  -0.553744  0  2.258922  0  0  -0.297874  -0.510041  0  2.280054  0
O  O58  1  0.38010036  0.82925226  0.61589623  1  0  -0.59322  0  2.063035  0  0  -0.526596  0  2.270299  0  0  -0.552288  0  2.257668  0  0  -0.29739  -0.508749  0  2.278835  0
O  O59  1  0.92360736  0.69922814  0.79532812  1  0  -0.612269  0  2.041009  0  0  -0.550419  0  2.264372  0  0  -0.572921  0  2.252003  0  0  -0.289388  -0.534607  0  2.272599  0
O  O60  1  0.27974721  0.30126892  0.79580497  1  0  -0.61292  0  2.041011  0  0  -0.550608  0  2.26287  0  0  -0.573153  0  2.250529  0  0  -0.289435  -0.534785  0  2.271286  0
O  O61  1  0.07639250  0.30076164  0.20466637  1  0  -0.612133  0  2.040889  0  0  -0.550372  0  2.264222  0  0  -0.572884  0  2.251862  0  0  -0.289424  -0.534557  0  2.272441  0
O  O62  1  0.72027073  0.69873387  0.20418773  1  0  -0.61286  0  2.040868  0  0  -0.550641  0  2.262719  0  0  -0.57317  0  2.250369  0  0  -0.289495  -0.534829  0  2.271139  0
O  O63  1  0.30079088  0.93492563  0.99839684  1  0  -0.876553  0  1.817046  0  0  -0.823778  0  1.987376  0  0  -0.839318  0  1.9536  0  0  -0.588138  -0.812959  0  2.011566  0
O  O64  1  0.69919343  0.06507812  0.00161167  1  0  -0.87653  0  1.81708  0  0  -0.8237  0  1.987417  0  0  -0.83926  0  1.953614  0  0  -0.588017  -0.812878  0  2.011604  0
O  O65  1  0.35150363  0.40890818  0.00052279  1  0  -0.925866  0  1.742754  0  0  -0.886489  0  1.913322  0  0  -0.901916  0  1.880173  0  0  -0.701511  -0.875558  0  1.937427  0
O  O66  1  0.64849494  0.59109858  0.99947924  1  0  -0.925687  0  1.742868  0  0  -0.886322  0  1.913485  0  0  -0.901753  0  1.880346  0  0  -0.701469  -0.87539  0  1.937585  0
O  O67  1  0.89976176  0.99991970  0.20368909  1  0  -0.945083  0  1.809492  0  0  -0.882848  0  1.99999  0  0  -0.901712  0  1.9649  0  0  -0.63674  -0.869225  0  2.024777  0
O  O68  1  0.10024682  0.00008408  0.79630828  1  0  -0.944953  0  1.809634  0  0  -0.882727  0  2.000179  0  0  -0.90159  0  1.965091  0  0  -0.636655  -0.869105  0  2.02496  0
O  O69  1  0.01128090  0.20350822  0.00030747  1  0  -0.958455  0  1.851149  0  0  -0.907843  0  2.042417  0  0  -0.925105  0  2.00843  0  0  -0.644512  -0.895542  0  2.066206  0
O  O70  1  0.98871334  0.79649753  0.99969189  1  0  -0.95851  0  1.851077  0  0  -0.907899  0  2.042351  0  0  -0.925157  0  2.008363  0  0  -0.644557  -0.895599  0  2.066137  0
