# generated using pymatgen
data_ZnH34C28N11O4
_symmetry_space_group_name_H-M   'P 1'
_cell_length_a   10.94408938
_cell_length_b   16.35859104
_cell_length_c   17.48421579
_cell_angle_alpha   89.90813556
_cell_angle_beta   90.61479430
_cell_angle_gamma   91.21739851
_symmetry_Int_Tables_number   1
_chemical_formula_structural   ZnH34C28N11O4
_chemical_formula_sum   'Zn2 H68 C56 N22 O8'
_cell_volume   3129.30742400
_cell_formula_units_Z   2
loop_
 _symmetry_equiv_pos_site_id
 _symmetry_equiv_pos_as_xyz
  1  'x, y, z'
loop_
 _atom_site_type_symbol
 _atom_site_label
 _atom_site_symmetry_multiplicity
 _atom_site_fract_x
 _atom_site_fract_y
 _atom_site_fract_z
 _atom_site_occupancy
 _atom_site_pbe_bader_charge
 _atom_site_pbe_bader_spin_density
 _atom_site_pbe_cm5_charge
 _atom_site_pbe_ddec_charge
 _atom_site_pbe_ddec_spin_density
 _atom_site_pbe_ddec_sum_bond_order
 _atom_site_pbe_magmom
Zn  Zn0  1  0.52024624  0.41496692  0.51152815  1  1.266765  0  0.678684  0.824482  0  2.395319  0
Zn  Zn1  1  0.52617600  0.58479707  0.49991193  1  1.268181  0  0.674608  0.803848  0  2.431855  0
H  H2  1  0.41589607  0.28704294  0.61131387  1  0.149022  0  0.121199  0.110769  0  1.023629  0
H  H3  1  0.93941040  0.17051150  0.42691031  1  -0.029745  0  0.080471  0.073583  0  1.033338  0
H  H4  1  0.07239289  0.10829718  0.42307720  1  0.043787  0  0.092156  0.09798  0  0.991985  0
H  H5  1  0.07844909  0.21112574  0.38950091  1  0.049919  0  0.102519  0.110939  0  1.010596  0
H  H6  1  0.21962904  0.78575697  0.53489777  1  0.442297  0  0.283711  0.222848  0  1.019418  0
H  H7  1  0.01755989  0.90124057  0.51172304  1  -0.012197  0  0.088441  0.086938  0  1.027899  0
H  H8  1  0.14898176  0.90798164  0.57158635  1  0.018184  0  0.093803  0.097671  0  0.992305  0
H  H9  1  0.02355084  0.84216842  0.59727337  1  0.003583  0  0.083973  0.078345  0  1.012088  0
H  H10  1  0.95836226  0.18975160  0.64634771  1  0.385217  0  0.286664  0.221109  0  0.98287  0
H  H11  1  0.80629327  0.15627204  0.53844069  1  0.007113  0  0.07588  0.07008  0  1.028817  0
H  H12  1  0.71957437  0.23521113  0.57963047  1  0.076973  0  0.100972  0.114522  0  1.020257  0
H  H13  1  0.41288108  0.70238044  0.39408948  1  0.129734  0  0.120787  0.109409  0  1.029512  0
H  H14  1  0.74977506  0.14589745  0.63394345  1  0.026006  0  0.089747  0.096046  0  0.992747  0
H  H15  1  0.79124617  0.33415825  0.66688643  1  0.430744  0  0.297386  0.235755  0  0.977177  0
H  H16  1  0.73547409  0.45282304  0.72589824  1  0.070442  0  0.100103  0.11708  0  0.991262  0
H  H17  1  0.79954968  0.51491297  0.65372143  1  0.058234  0  0.094793  0.111796  0  1.023677  0
H  H18  1  0.89835468  0.46486481  0.71975598  1  0.047966  0  0.081468  0.077405  0  1.005973  0
H  H19  1  0.31614531  0.63582210  0.55665500  1  0.435695  0  0.280056  0.229342  0  1.049891  0
H  H20  1  0.14702095  0.70392443  0.66896960  1  0.015616  0  0.084684  0.085014  0  1.004033  0
H  H21  1  0.29569870  0.66399407  0.68600338  1  0.040441  0  0.093203  0.10633  0  1.001595  0
H  H22  1  0.17042965  0.59662271  0.66248905  1  0.038286  0  0.082161  0.084431  0  1.004046  0
H  H23  1  0.23595729  0.26811999  0.45030803  1  0.415273  0  0.295147  0.231658  0  0.984816  0
H  H24  1  0.60692900  0.29197220  0.40828231  1  0.122666  0  0.119243  0.106348  0  1.022052  0
H  H25  1  0.30345765  0.34694187  0.34444282  1  0.049176  0  0.098583  0.116193  0  0.996345  0
H  H26  1  0.21916550  0.43095490  0.37536801  1  0.026065  0  0.093838  0.102533  0  1.02575  0
H  H27  1  0.13950303  0.34562678  0.33447494  1  -0.002746  0  0.072727  0.058772  0  1.019786  0
H  H28  1  0.77179766  0.57229351  0.39716190  1  0.455068  0  0.305596  0.247407  0  0.986714  0
H  H29  1  0.70040291  0.72008275  0.34366093  1  0.031708  0  0.088888  0.090872  0  1.013001  0
H  H30  1  0.72567555  0.63262973  0.28749289  1  0.052379  0  0.101299  0.109601  0  0.989663  0
H  H31  1  0.84538912  0.70796682  0.29996315  1  0.069687  0  0.095549  0.100138  0  1.016671  0
H  H32  1  0.64789726  0.36668700  0.11380593  1  0.439344  0  0.297524  0.290439  0  0.979062  0
H  H33  1  0.56459158  0.40771467  0.03897487  1  0.466088  0  0.295236  0.295047  0  0.972473  0
H  H34  1  0.63775866  0.62341239  0.90148475  1  0.42452  0  0.292339  0.281232  0  0.961047  0
H  H35  1  0.62254367  0.71797939  0.59216076  1  0.091474  0  0.119311  0.105058  0  1.015701  0
H  H36  1  0.53113039  0.60428235  0.96786677  1  0.446564  0  0.285424  0.281689  0  0.979605  0
H  H37  1  0.24677725  0.34056589  0.83957519  1  0.406362  0  0.290207  0.275561  0  0.972207  0
H  H38  1  0.24297393  0.39249289  0.92263979  1  0.427558  0  0.287667  0.280945  0  0.974787  0
H  H39  1  0.24295232  0.59176453  0.08882784  1  0.396565  0  0.289775  0.283274  0  0.97324  0
H  H40  1  0.24024349  0.64049477  0.17406783  1  0.405993  0  0.293727  0.281011  0  0.968363  0
H  H41  1  0.72463306  0.41696037  0.22903353  1  0.39812  0  0.286841  0.269952  0  0.965454  0
H  H42  1  0.64802523  0.39358659  0.30721317  1  0.391624  0  0.286833  0.281379  0  0.983525  0
H  H43  1  0.59529618  0.67643851  0.78779239  1  0.412923  0  0.28308  0.263379  0  0.995449  0
H  H44  1  0.59237905  0.63247692  0.70119932  1  0.423662  0  0.285203  0.280272  0  1.000816  0
H  H45  1  0.21198332  0.39291367  0.72301133  1  0.40585  0  0.291098  0.278327  0  0.964176  0
H  H46  1  0.99798919  0.83246791  0.40771230  1  0.386255  0  0.288079  0.22325  0  0.990423  0
H  H47  1  0.31457514  0.40792044  0.65451238  1  0.440326  0  0.286109  0.291157  0  0.993492  0
H  H48  1  0.32291654  0.57751917  0.35706240  1  0.443627  0  0.282899  0.287953  0  1.010941  0
H  H49  1  0.21704966  0.58344747  0.28842206  1  0.395836  0  0.292332  0.2796  0  0.95802  0
H  H50  1  0.36146240  0.06274526  0.60737298  1  0.440414  0  0.302854  0.24459  0  0.969957  0
H  H51  1  0.26400951  0.11521394  0.71250033  1  0.035191  0  0.105273  0.110856  0  0.979913  0
H  H52  1  0.23132766  0.19755931  0.64795161  1  0.050806  0  0.095926  0.102264  0  1.010205  0
H  H53  1  0.35920847  0.20466415  0.71126799  1  0.066104  0  0.103241  0.111453  0  0.993525  0
H  H54  1  0.35283708  0.92381526  0.38641812  1  0.416738  0  0.304783  0.246539  0  0.962674  0
H  H55  1  0.25230502  0.86097585  0.28465450  1  0.050738  0  0.105148  0.112312  0  0.977746  0
H  H56  1  0.22116309  0.78492498  0.35612308  1  0.065235  0  0.097922  0.107874  0  1.012944  0
H  H57  1  0.83128864  0.84789148  0.50380953  1  -0.018045  0  0.073113  0.059155  0  1.053919  0
H  H58  1  0.34573498  0.77359720  0.29240154  1  0.043594  0  0.100839  0.108851  0  1.002276  0
H  H59  1  0.59994856  0.06701111  0.38302539  1  0.449903  0  0.306977  0.249567  0  0.967933  0
H  H60  1  0.69973473  0.12542624  0.28039364  1  0.055975  0  0.110245  0.118349  0  0.972691  0
H  H61  1  0.75711588  0.19999222  0.34662082  1  0.031048  0  0.096156  0.095561  0  1.003688  0
H  H62  1  0.62005607  0.21788622  0.29381657  1  0.074987  0  0.10285  0.113692  0  0.997333  0
H  H63  1  0.61172120  0.94400502  0.60445221  1  0.469464  0  0.305914  0.24901  0  0.970863  0
H  H64  1  0.77110209  0.81573464  0.64363223  1  0.046253  0  0.099531  0.099488  0  1.001479  0
H  H65  1  0.64185218  0.80362413  0.70428017  1  0.04578  0  0.101793  0.108191  0  0.988305  0
H  H66  1  0.72819063  0.89693409  0.70520614  1  0.053423  0  0.110449  0.117435  0  0.974805  0
H  H67  1  0.74292289  0.78344829  0.44252477  1  0.057864  0  0.096227  0.105181  0  1.041212  0
H  H68  1  0.79303555  0.88075798  0.40880884  1  0.035348  0  0.088843  0.093517  0  0.994995  0
H  H69  1  0.04784520  0.15821975  0.54947901  1  0.379424  0  0.286447  0.217374  0  0.989173  0
C  C70  1  0.49268525  0.50695609  0.65277265  1  1.559053  0  0.21887  0.622411  0  4.132548  0
C  C71  1  0.56076845  0.83732905  0.55299334  1  0.453374  0  0.110379  0.175999  0  4.10064  0
C  C72  1  0.45296383  0.25064162  0.56533024  1  0.449581  0  0.020732  -0.06414  0  3.9242  0
C  C73  1  0.45319258  0.74303274  0.43707595  1  0.503307  0  0.023579  -0.054732  0  3.90924  0
C  C74  1  0.56132094  0.25334389  0.45026228  1  0.488351  0  0.017736  -0.068874  0  3.94048  0
C  C75  1  0.57033429  0.75194937  0.55001403  1  0.520818  0  0.014974  -0.074529  0  3.953957  0
C  C76  1  0.49162358  0.12271794  0.50068617  1  0.193105  0  -0.0275  -0.07956  0  4.126077  0
C  C77  1  0.49305857  0.87629218  0.49373231  1  0.141911  0  -0.025949  -0.078359  0  4.116285  0
C  C78  1  0.48527824  0.03690488  0.49731149  1  -0.373498  0  -0.056532  -0.120558  0  4.219814  0
C  C79  1  0.48468144  0.96190314  0.49377786  1  -0.161595  0  -0.054934  -0.115958  0  4.214158  0
C  C80  1  0.75651614  0.50450694  0.51241625  1  1.589926  0  0.210386  0.58633  0  4.196098  0
C  C81  1  0.51154838  0.49307154  0.35733119  1  1.536327  0  0.215322  0.608622  0  4.176111  0
C  C82  1  0.28448601  0.49864078  0.50371232  1  1.447256  0  0.204528  0.578394  0  4.16717  0
C  C83  1  0.90472510  0.37262447  0.58681222  1  0.403942  0  0.087297  0.108774  0  4.053341  0
C  C84  1  0.14185585  0.65580843  0.51927936  1  0.429657  0  0.043938  0.03415  0  4.021546  0
C  C85  1  0.11568941  0.34460049  0.49578885  1  0.430113  0  0.075388  0.082623  0  4.039501  0
C  C86  1  0.91051855  0.64316681  0.44074014  1  0.445183  0  0.103633  0.124478  0  4.031343  0
C  C87  1  0.95275436  0.29395221  0.58088860  1  0.366981  0  0.044372  -0.001312  0  4.074409  0
C  C88  1  0.08066914  0.72514810  0.49362487  1  0.277672  0  0.076682  0.064226  0  4.082377  0
C  C89  1  0.04852944  0.27930103  0.52859473  1  0.314124  0  0.058367  0.029712  0  4.064163  0
C  C90  1  0.97078104  0.71934707  0.44858551  1  0.43003  0  0.045409  -0.000579  0  4.030782  0
C  C91  1  0.07894722  0.42640565  0.51237487  1  -0.040372  0  -0.010986  -0.005663  0  3.96762  0
C  C92  1  0.41380865  0.49302219  0.11982553  1  0.193098  0  -0.041853  -0.089481  0  4.158744  0
C  C93  1  0.95977993  0.57446718  0.48445745  1  -0.028821  0  -0.011517  -0.034097  0  3.962813  0
C  C94  1  0.95596515  0.43591487  0.53929031  1  0.026421  0  -0.016183  -0.030263  0  3.97678  0
C  C95  1  0.08900920  0.57708450  0.50286931  1  -0.007499  0  -0.008032  0.010723  0  3.997091  0
C  C96  1  0.14939771  0.50075380  0.50544708  1  0.073466  0  -0.034173  -0.151896  0  3.929822  0
C  C97  1  0.89384260  0.50629268  0.51273481  1  -0.047501  0  -0.012821  -0.09596  0  3.899758  0
C  C98  1  0.51084504  0.44323780  0.14596470  1  0.443382  0  0.080631  0.168725  0  4.110115  0
C  C99  1  0.48633658  0.56218737  0.86252419  1  0.402851  0  0.067237  0.134914  0  4.082888  0
C  C100  1  0.33661097  0.45052044  0.83864651  1  0.43403  0  0.069344  0.13579  0  4.085501  0
C  C101  1  0.34685267  0.54032760  0.17181141  1  0.395279  0  0.074219  0.147415  0  4.095689  0
C  C102  1  0.54345757  0.44463953  0.22385057  1  0.330674  0  0.051019  0.119468  0  4.091556  0
C  C103  1  0.39955841  0.50390645  0.88991084  1  0.110863  0  -0.038509  -0.074251  0  4.166753  0
C  C104  1  0.51194794  0.56534224  0.78422106  1  0.397474  0  0.065643  0.149687  0  4.108479  0
C  C105  1  0.36543801  0.45181643  0.76041902  1  0.322558  0  0.068073  0.156206  0  4.086587  0
C  C106  1  0.37706402  0.53965360  0.25020902  1  0.364208  0  0.062332  0.143638  0  4.092223  0
C  C107  1  0.47687079  0.49296021  0.27440336  1  0.012037  0  -0.03608  -0.2175  0  4.01606  0
C  C108  1  0.45560757  0.50787431  0.73462658  1  0.022091  0  -0.037057  -0.230049  0  3.990738  0
C  C109  1  0.81923945  0.82777895  0.44363392  1  0.256582  0  -0.153754  -0.221994  0  4.010332  0
C  C110  1  0.04010278  0.17045025  0.43348494  1  0.268795  0  -0.148554  -0.217628  0  3.985969  0
C  C111  1  0.07830477  0.86564478  0.54879249  1  0.330902  0  -0.145577  -0.20683  0  4.003302  0
C  C112  1  0.78872864  0.18934369  0.59227807  1  0.248647  0  -0.152534  -0.219764  0  4.000082  0
C  C113  1  0.81225471  0.45855935  0.68638762  1  0.224078  0  -0.147132  -0.21658  0  3.957278  0
C  C114  1  0.39048939  0.49733216  0.04030152  1  -0.224809  0  -0.064739  -0.114777  0  4.196131  0
C  C115  1  0.21217764  0.65753465  0.65098888  1  0.251734  0  -0.152803  -0.203266  0  3.977742  0
C  C116  1  0.21805331  0.36398234  0.37175258  1  0.336779  0  -0.147201  -0.206653  0  3.981731  0
C  C117  1  0.76983519  0.67537712  0.32794823  1  0.292788  0  -0.139261  -0.199839  0  3.972703  0
C  C118  1  0.30466525  0.16220723  0.67532586  1  0.300056  0  -0.135075  -0.214356  0  3.982916  0
C  C119  1  0.29395939  0.81828732  0.32512527  1  0.289373  0  -0.136416  -0.218227  0  3.973718  0
C  C120  1  0.67321208  0.17048741  0.32309569  1  0.29816  0  -0.130499  -0.212559  0  3.982522  0
C  C121  1  0.69285398  0.84763939  0.66828798  1  0.30442  0  -0.128616  -0.208925  0  3.990746  0
C  C122  1  0.38520461  0.49682531  0.97002350  1  -0.258701  0  -0.065637  -0.124981  0  4.188939  0
C  C123  1  0.43957628  0.16497551  0.56313787  1  0.461749  0  0.108201  0.172035  0  4.098163  0
C  C124  1  0.43782518  0.82824281  0.43449597  1  0.440009  0  0.112194  0.178267  0  4.089041  0
C  C125  1  0.55329409  0.16788725  0.44244363  1  0.455476  0  0.109586  0.173769  0  4.107701  0
N  N126  1  0.51244158  0.29131859  0.51003646  1  -1.245247  0  -0.329788  -0.163947  0  3.67595  0
N  N127  1  0.81316528  0.62788262  0.39262575  1  -1.205805  0  -0.43959  -0.253554  0  3.614539  0
N  N128  1  0.57080073  0.39364618  0.09530926  1  -1.27532  0  -0.608628  -0.620685  0  3.384134  0
N  N129  1  0.54639937  0.61797881  0.91182936  1  -1.238948  0  -0.616015  -0.619853  0  3.303076  0
N  N130  1  0.24440390  0.39677620  0.86450361  1  -1.19643  0  -0.611694  -0.612744  0  3.314756  0
N  N131  1  0.24750618  0.58589571  0.14676602  1  -1.161977  0  -0.608857  -0.611476  0  3.322674  0
N  N132  1  0.64252107  0.39548844  0.24898552  1  -1.141532  0  -0.617728  -0.628836  0  3.282212  0
N  N133  1  0.60052239  0.62270856  0.75864272  1  -1.185919  0  -0.618903  -0.623011  0  3.296803  0
N  N134  1  0.30321579  0.39599562  0.71150540  1  -1.175016  0  -0.610266  -0.6239  0  3.290554  0
N  N135  1  0.30850976  0.58835522  0.29993728  1  -1.172276  0  -0.611347  -0.622989  0  3.297991  0
N  N136  1  0.38041059  0.12238532  0.61947011  1  -1.212506  0  -0.442536  -0.284112  0  3.622405  0
N  N137  1  0.51763078  0.70826979  0.49343215  1  -1.24915  0  -0.332843  -0.169801  0  3.679182  0
N  N138  1  0.37394187  0.86460770  0.37679407  1  -1.18227  0  -0.44103  -0.281192  0  3.616791  0
N  N139  1  0.60265141  0.12897541  0.38172577  1  -1.232989  0  -0.439515  -0.276825  0  3.642833  0
N  N140  1  0.61481225  0.88238921  0.61001105  1  -1.25605  0  -0.440975  -0.279415  0  3.645567  0
N  N141  1  0.92768065  0.79087566  0.41131121  1  -1.099525  0  -0.477443  -0.317612  0  3.506275  0
N  N142  1  0.08212425  0.19788402  0.50975548  1  -1.084509  0  -0.477035  -0.335396  0  3.497112  0
N  N143  1  0.13964138  0.80106728  0.50713829  1  -1.160567  0  -0.467466  -0.31702  0  3.521243  0
N  N144  1  0.89714847  0.23042504  0.62564964  1  -1.126977  0  -0.480092  -0.344312  0  3.561354  0
N  N145  1  0.81048474  0.38631119  0.63705818  1  -1.145395  0  -0.450732  -0.271387  0  3.542514  0
N  N146  1  0.24334362  0.67028500  0.57019384  1  -1.117264  0  -0.489071  -0.361504  0  3.52375  0
N  N147  1  0.21216171  0.32771023  0.44761858  1  -1.167333  0  -0.463605  -0.287137  0  3.601146  0
O  O148  1  0.53197424  0.44017144  0.62669162  1  -1.158631  0  -0.305664  -0.520478  0  2.317893  0
O  O149  1  0.55312386  0.56004571  0.38555135  1  -1.160295  0  -0.311075  -0.533274  0  2.321356  0
O  O150  1  0.49584097  0.42623255  0.39354732  1  -1.164097  0  -0.303485  -0.534497  0  2.336164  0
O  O151  1  0.48280096  0.57380547  0.61510596  1  -1.170938  0  -0.312235  -0.549427  0  2.327936  0
O  O152  1  0.70239219  0.43945696  0.48909946  1  -1.161124  0  -0.317179  -0.553301  0  2.351053  0
O  O153  1  0.34400014  0.55767134  0.47046996  1  -1.184061  0  -0.320116  -0.574992  0  2.398937  0
O  O154  1  0.33818077  0.43857420  0.53476318  1  -1.160824  0  -0.302807  -0.539127  0  2.420139  0
O  O155  1  0.70323340  0.56934387  0.53318696  1  -1.167398  0  -0.318981  -0.550438  0  2.358134  0
