# generated using pymatgen
data_ZnPH8C7N2O3
_symmetry_space_group_name_H-M   'P 1'
_cell_length_a   8.83166661
_cell_length_b   9.97056940
_cell_length_c   11.25344785
_cell_angle_alpha   110.08741268
_cell_angle_beta   90.00000324
_cell_angle_gamma   90.00001870
_symmetry_Int_Tables_number   1
_chemical_formula_structural   ZnPH8C7N2O3
_chemical_formula_sum   'Zn4 P4 H32 C28 N8 O12'
_cell_volume   930.66271507
_cell_formula_units_Z   4
loop_
 _symmetry_equiv_pos_site_id
 _symmetry_equiv_pos_as_xyz
  1  'x, y, z'
loop_
 _atom_site_type_symbol
 _atom_site_label
 _atom_site_symmetry_multiplicity
 _atom_site_fract_x
 _atom_site_fract_y
 _atom_site_fract_z
 _atom_site_occupancy
 _atom_site_pbe_bader_spin_density
 _atom_site_pbe_cm5_charge
 _atom_site_pbe_ddec_charge
 _atom_site_pbe_ddec_spin_density
 _atom_site_pbe_ddec_sum_bond_order
 _atom_site_pbe_magmom
Zn  Zn0  1  0.70116101  0.06475391  0.45756698  1  0  0.711517  0.931859  0  2.38745  0
Zn  Zn1  1  0.20116145  0.43524575  0.54243223  1  0  0.711506  0.931872  0  2.387435  0
Zn  Zn2  1  0.29883846  0.93524630  0.54243326  1  0  0.711524  0.931874  0  2.387422  0
Zn  Zn3  1  0.79883802  0.56475339  0.45756681  1  0  0.71151  0.931856  0  2.387464  0
P  P4  1  0.56118302  0.75896035  0.36842346  1  0  0.26881  1.202115  0  5.511191  0
P  P5  1  0.06118340  0.74103819  0.63157714  1  0  0.268871  1.202222  0  5.511079  0
P  P6  1  0.43881645  0.24103880  0.63157646  1  0  0.268818  1.202012  0  5.511328  0
P  P7  1  0.93881720  0.25896095  0.36842368  1  0  0.268854  1.202103  0  5.511142  0
H  H8  1  0.44927548  0.70871427  0.27395996  1  0  0.07375  -0.135359  0  1.007704  0
H  H9  1  0.94927514  0.79128547  0.72604013  1  0  0.073738  -0.135389  0  1.007703  0
H  H10  1  0.55072399  0.29128487  0.72603997  1  0  0.073734  -0.135364  0  1.007705  0
H  H11  1  0.05072320  0.20871474  0.27396011  1  0  0.073732  -0.135381  0  1.007718  0
H  H12  1  0.00296778  0.17811482  0.61872205  1  0  0.139379  0.123338  0  1.016525  0
H  H13  1  0.50296856  0.32188584  0.38127746  1  0  0.139357  0.12327  0  1.016514  0
H  H14  1  0.99703055  0.82188646  0.38127852  1  0  0.139375  0.123319  0  1.016547  0
H  H15  1  0.49703091  0.67811437  0.61872190  1  0  0.139372  0.123316  0  1.016562  0
H  H16  1  0.62037688  0.96572323  0.69388359  1  0  0.117062  0.11658  0  1.038034  0
H  H17  1  0.12037943  0.53427533  0.30611435  1  0  0.117045  0.116556  0  1.038111  0
H  H18  1  0.37962146  0.03427485  0.30611690  1  0  0.117051  0.116583  0  1.038138  0
H  H19  1  0.87962118  0.46572488  0.69388323  1  0  0.117058  0.11658  0  1.038134  0
H  H20  1  0.80577661  0.05011229  0.90714350  1  0  0.1192  0.118058  0  1.023043  0
H  H21  1  0.30577816  0.44988741  0.09285573  1  0  0.11919  0.118052  0  1.023098  0
H  H22  1  0.19422399  0.94988685  0.09285731  1  0  0.119197  0.118084  0  1.02306  0
H  H23  1  0.69422358  0.55011280  0.90714274  1  0  0.119191  0.118069  0  1.023077  0
H  H24  1  0.16999742  0.18295098  0.81161133  1  0  0.118538  0.12254  0  1.006003  0
H  H25  1  0.66999705  0.31704867  0.18838966  1  0  0.118535  0.12255  0  1.005973  0
H  H26  1  0.83000318  0.81704817  0.18838948  1  0  0.118542  0.122554  0  1.005994  0
H  H27  1  0.33000355  0.68295154  0.81161148  1  0  0.118544  0.122549  0  1.005997  0
H  H28  1  0.08337164  0.14053398  0.93706652  1  0  0.113927  0.101456  0  0.966825  0
H  H29  1  0.58337354  0.35946457  0.06293324  1  0  0.113922  0.101452  0  0.96683  0
H  H30  1  0.91662783  0.85946622  0.06293373  1  0  0.113929  0.101455  0  0.966833  0
H  H31  1  0.41662820  0.64053457  0.93706669  1  0  0.113928  0.101444  0  0.966836  0
H  H32  1  0.16161966  0.42615666  0.80703643  1  0  0.102629  0.118938  0  1.037699  0
H  H33  1  0.66162033  0.07384406  0.19296399  1  0  0.102628  0.118907  0  1.03772  0
H  H34  1  0.83837981  0.57384355  0.19296382  1  0  0.102624  0.118931  0  1.037722  0
H  H35  1  0.33837914  0.92615615  0.80703714  1  0  0.102642  0.118934  0  1.03771  0
H  H36  1  0.90542713  0.32049970  0.08980065  1  0  0.099983  0.102424  0  1.024955  0
H  H37  1  0.40542638  0.17950110  0.91019981  1  0  0.100001  0.102442  0  1.024933  0
H  H38  1  0.09457347  0.67950051  0.91019871  1  0  0.099991  0.102432  0  1.024927  0
H  H39  1  0.59457310  0.82049911  0.08980133  1  0  0.099996  0.102435  0  1.024924  0
C  C40  1  0.92496250  0.12963390  0.66691775  1  0  0.149897  0.110121  0  3.869161  0
C  C41  1  0.42496291  0.37036691  0.33308182  1  0  0.149979  0.110305  0  3.869185  0
C  C42  1  0.07503810  0.87036525  0.33308217  1  0  0.149926  0.110185  0  3.869205  0
C  C43  1  0.57503770  0.62963437  0.66691787  1  0  0.14992  0.110175  0  3.869242  0
C  C44  1  0.72750032  0.02196818  0.71066099  1  0  -0.000375  -0.02587  0  3.998994  0
C  C45  1  0.22749963  0.47803149  0.28933734  1  0  -0.00033  -0.025797  0  3.998953  0
C  C46  1  0.27250029  0.97803203  0.28934015  1  0  -0.000386  -0.025935  0  3.999078  0
C  C47  1  0.77249984  0.52196765  0.71065992  1  0  -0.00036  -0.025872  0  3.999022  0
C  C48  1  0.81846617  0.06290012  0.81589705  1  0  -0.001338  -0.111242  0  3.933296  0
C  C49  1  0.31846886  0.43709744  0.18410064  1  0  -0.001353  -0.111274  0  3.933329  0
C  C50  1  0.18153217  0.93709902  0.18410287  1  0  -0.001342  -0.111259  0  3.933274  0
C  C51  1  0.68153288  0.56290170  0.81589840  1  0  -0.001342  -0.111268  0  3.933279  0
C  C52  1  0.06800422  0.19838423  0.87067380  1  0  -0.047418  -0.121097  0  3.882969  0
C  C53  1  0.56800497  0.30161432  0.12932507  1  0  -0.047397  -0.121068  0  3.882937  0
C  C54  1  0.93199638  0.80161491  0.12932523  1  0  -0.047418  -0.12112  0  3.883016  0
C  C55  1  0.43199677  0.69838482  0.87067486  1  0  -0.047428  -0.121089  0  3.882988  0
C  C56  1  0.03580535  0.35482775  0.93961777  1  0  -0.017282  0.073451  0  3.999603  0
C  C57  1  0.53580603  0.14517185  0.06038409  1  0  -0.017401  0.073306  0  3.999748  0
C  C58  1  0.96419413  0.64517246  0.06038248  1  0  -0.017291  0.073449  0  3.999619  0
C  C59  1  0.46419344  0.85482835  0.93961705  1  0  -0.017327  0.073397  0  3.999614  0
C  C60  1  0.09049379  0.45797574  0.89159332  1  0  -0.094182  -0.134922  0  3.959413  0
C  C61  1  0.59049332  0.04202495  0.10840709  1  0  -0.094111  -0.13475  0  3.959319  0
C  C62  1  0.90950568  0.54202447  0.10840693  1  0  -0.094166  -0.134907  0  3.959459  0
C  C63  1  0.40950502  0.95797526  0.89159494  1  0  -0.094131  -0.134799  0  3.959352  0
C  C64  1  0.94568229  0.39826768  0.04854431  1  0  -0.093039  -0.132627  0  3.996297  0
C  C65  1  0.44568037  0.10173313  0.95145615  1  0  -0.092998  -0.132645  0  3.996173  0
C  C66  1  0.05431832  0.60173253  0.95145505  1  0  -0.093025  -0.132612  0  3.996227  0
C  C67  1  0.55431797  0.89826707  0.04854587  1  0  -0.093073  -0.132702  0  3.996118  0
N  N68  1  0.79523499  0.06462985  0.61865584  1  0  -0.362209  -0.324144  0  3.632077  0
N  N69  1  0.29523656  0.43536984  0.38134250  1  0  -0.362267  -0.32425  0  3.632282  0
N  N70  1  0.20476448  0.93536929  0.38134409  1  0  -0.362228  -0.324125  0  3.632137  0
N  N71  1  0.70476405  0.56463037  0.61865597  1  0  -0.362212  -0.324113  0  3.632129  0
N  N72  1  0.94247222  0.12995794  0.78627409  1  0  -0.236464  0.05749  0  3.769547  0
N  N73  1  0.44247375  0.37004180  0.21372516  1  0  -0.236471  0.057441  0  3.76956  0
N  N74  1  0.05752725  0.87004120  0.21372584  1  0  -0.236464  0.057448  0  3.769582  0
N  N75  1  0.55752685  0.62995841  0.78627420  1  0  -0.236458  0.057456  0  3.769563  0
O  O76  1  0.64428627  0.87823881  0.33664962  1  0  -0.388087  -0.730552  0  2.372861  0
O  O77  1  0.14428434  0.62175976  0.66335099  1  0  -0.388115  -0.730582  0  2.372866  0
O  O78  1  0.35571320  0.12176140  0.66335063  1  0  -0.38813  -0.730531  0  2.372873  0
O  O79  1  0.85571286  0.37823832  0.33664949  1  0  -0.388129  -0.730548  0  2.372825  0
O  O80  1  0.66260327  0.62934040  0.35263577  1  0  -0.388797  -0.720545  0  2.390535  0
O  O81  1  0.16260369  0.87065925  0.64736428  1  0  -0.388815  -0.720576  0  2.390479  0
O  O82  1  0.33739621  0.37065981  0.64736359  1  0  -0.388775  -0.720506  0  2.390568  0
O  O83  1  0.83739578  0.12933990  0.35263653  1  0  -0.388801  -0.720521  0  2.390471  0
O  O84  1  0.48104641  0.81255638  0.49810883  1  0  -0.385499  -0.742034  0  2.364011  0
O  O85  1  0.98104601  0.68744444  0.50189248  1  0  -0.385511  -0.742051  0  2.363999  0
O  O86  1  0.51895307  0.18744382  0.50189142  1  0  -0.385486  -0.741967  0  2.363996  0
O  O87  1  0.01895346  0.31255577  0.49810866  1  0  -0.385487  -0.741993  0  2.36398  0
