# generated using pymatgen
data_NdH11C11O9
_symmetry_space_group_name_H-M   'P 1'
_cell_length_a   7.79781099
_cell_length_b   12.33134647
_cell_length_c   12.97629064
_cell_angle_alpha   91.16734784
_cell_angle_beta   90.00007140
_cell_angle_gamma   90.00005107
_symmetry_Int_Tables_number   1
_chemical_formula_structural   NdH11C11O9
_chemical_formula_sum   'Nd4 H44 C44 O36'
_cell_volume   1247.50881670
_cell_formula_units_Z   4
loop_
 _symmetry_equiv_pos_site_id
 _symmetry_equiv_pos_as_xyz
  1  'x, y, z'
loop_
 _atom_site_type_symbol
 _atom_site_label
 _atom_site_symmetry_multiplicity
 _atom_site_fract_x
 _atom_site_fract_y
 _atom_site_fract_z
 _atom_site_occupancy
 _atom_site_hle17_bader_spin_density
 _atom_site_hle17_ddec_charge
 _atom_site_hle17_ddec_spin_density
 _atom_site_hle17_ddec_sum_bond_order
 _atom_site_hle17_magmom
 _atom_site_hse06_10hf_bader_spin_density
 _atom_site_hse06_10hf_ddec_charge
 _atom_site_hse06_10hf_ddec_spin_density
 _atom_site_hse06_10hf_ddec_sum_bond_order
 _atom_site_hse06_10hf_magmom
 _atom_site_hse06_bader_spin_density
 _atom_site_hse06_ddec_charge
 _atom_site_hse06_ddec_spin_density
 _atom_site_hse06_ddec_sum_bond_order
 _atom_site_hse06_magmom
 _atom_site_pbe_bader_spin_density
 _atom_site_pbe_cm5_charge
 _atom_site_pbe_ddec_charge
 _atom_site_pbe_ddec_spin_density
 _atom_site_pbe_ddec_sum_bond_order
 _atom_site_pbe_magmom
Nd  Nd0  1  0.92312130  0.52492508  0.30982291  1  0  2.346574  0  1.560143  0  0  2.240066  0  1.914302  0  0  2.282892  0  1.870933  0  0  1.483237  2.15223  0  2.048233  0
Nd  Nd1  1  0.42312184  0.47507616  0.19017748  1  0  2.346581  0  1.560125  0  0  2.240072  0  1.914274  0  0  2.282894  0  1.87091  0  0  1.483251  2.15221  0  2.048269  0
Nd  Nd2  1  0.07687775  0.47507644  0.69017756  1  0  2.34658  0  1.560157  0  0  2.240072  0  1.914311  0  0  2.282894  0  1.870943  0  0  1.483234  2.152225  0  2.048264  0
Nd  Nd3  1  0.57687977  0.52492536  0.80982299  1  0  2.346571  0  1.560154  0  0  2.240056  0  1.914301  0  0  2.282883  0  1.870932  0  0  1.483237  2.152216  0  2.048257  0
H  H4  1  0.43033563  0.92432467  0.09877052  1  0  0.081757  0  0.955518  0  0  0.095459  0  1.012416  0  0  0.097401  0  1.011791  0  0  0.098219  0.094026  0  1.012956  0
H  H5  1  0.93033592  0.07567496  0.40122985  1  0  0.081725  0  0.955519  0  0  0.095437  0  1.01241  0  0  0.097376  0  1.01179  0  0  0.098196  0.094004  0  1.01296  0
H  H6  1  0.56966342  0.07567442  0.90122990  1  0  0.081705  0  0.955551  0  0  0.095401  0  1.012455  0  0  0.097341  0  1.011834  0  0  0.098188  0.093963  0  1.013008  0
H  H7  1  0.06966441  0.92432413  0.59876904  1  0  0.081744  0  0.955516  0  0  0.095427  0  1.012432  0  0  0.097359  0  1.011828  0  0  0.098207  0.094003  0  1.012983  0
H  H8  1  0.62286776  0.76377798  0.10152054  1  0  0.136445  0  0.952728  0  0  0.14622  0  1.011026  0  0  0.150696  0  1.008654  0  0  0.112401  0.142867  0  1.013266  0
H  H9  1  0.12286840  0.23622228  0.39848038  1  0  0.136435  0  0.952714  0  0  0.146209  0  1.011018  0  0  0.150685  0  1.008646  0  0  0.112403  0.142853  0  1.013266  0
H  H10  1  0.37713130  0.23622192  0.89848067  1  0  0.136467  0  0.952697  0  0  0.146242  0  1.010995  0  0  0.150718  0  1.008624  0  0  0.112419  0.14289  0  1.013245  0
H  H11  1  0.87713194  0.76377681  0.60151928  1  0  0.136433  0  0.952717  0  0  0.146205  0  1.011026  0  0  0.150682  0  1.008654  0  0  0.112401  0.142858  0  1.013267  0
H  H12  1  0.05850700  0.97711444  0.13855310  1  0  0.115807  0  0.990756  0  0  0.124815  0  1.05779  0  0  0.127948  0  1.05695  0  0  0.103377  0.122613  0  1.058464  0
H  H13  1  0.55850585  0.02288497  0.36144698  1  0  0.115824  0  0.99075  0  0  0.124832  0  1.057784  0  0  0.127965  0  1.056946  0  0  0.103358  0.122604  0  1.058463  0
H  H14  1  0.94149206  0.02288465  0.86144655  1  0  0.115836  0  0.990736  0  0  0.124829  0  1.057787  0  0  0.127962  0  1.05695  0  0  0.103364  0.122599  0  1.058471  0
H  H15  1  0.44149448  0.97711412  0.63855422  1  0  0.115825  0  0.990733  0  0  0.124834  0  1.057764  0  0  0.127967  0  1.056926  0  0  0.103373  0.12261  0  1.058444  0
H  H16  1  0.55007637  0.11208704  0.11784526  1  0  0.128938  0  0.941966  0  0  0.140151  0  1.000042  0  0  0.144485  0  0.997542  0  0  0.108031  0.13695  0  1.002178  0
H  H17  1  0.05007661  0.88791399  0.38215407  1  0  0.128869  0  0.942009  0  0  0.140084  0  1.000091  0  0  0.14442  0  0.997588  0  0  0.107987  0.136875  0  1.002239  0
H  H18  1  0.44992396  0.88791286  0.88215364  1  0  0.128932  0  0.942002  0  0  0.140164  0  1.000054  0  0  0.144497  0  0.997554  0  0  0.108042  0.136953  0  1.002205  0
H  H19  1  0.94992372  0.11208591  0.61784560  1  0  0.128904  0  0.941994  0  0  0.140124  0  1.000065  0  0  0.144458  0  0.997564  0  0  0.10801  0.136914  0  1.002211  0
H  H20  1  0.10901283  0.15838042  0.06997590  1  0  0.087538  0  0.949244  0  0  0.09732  0  1.013236  0  0  0.098326  0  1.013115  0  0  0.106831  0.096577  0  1.013709  0
H  H21  1  0.60901042  0.84162065  0.43002579  1  0  0.08755  0  0.949198  0  0  0.097313  0  1.013229  0  0  0.098317  0  1.013103  0  0  0.10682  0.096563  0  1.013706  0
H  H22  1  0.89098879  0.84162029  0.93002532  1  0  0.087474  0  0.949217  0  0  0.097273  0  1.013221  0  0  0.098278  0  1.013093  0  0  0.106797  0.096517  0  1.013699  0
H  H23  1  0.39098607  0.15837925  0.56997465  1  0  0.087509  0  0.949284  0  0  0.097296  0  1.013257  0  0  0.098302  0  1.013135  0  0  0.106817  0.09655  0  1.013732  0
H  H24  1  0.10500542  0.13229603  0.20481632  1  0  0.086178  0  0.964031  0  0  0.100135  0  1.023331  0  0  0.100643  0  1.024111  0  0  0.108361  0.099775  0  1.023125  0
H  H25  1  0.60500404  0.86770503  0.29518460  1  0  0.086164  0  0.964043  0  0  0.100148  0  1.023324  0  0  0.100651  0  1.024108  0  0  0.108348  0.099774  0  1.023115  0
H  H26  1  0.89499364  0.86770468  0.79518413  1  0  0.08617  0  0.964007  0  0  0.100144  0  1.023306  0  0  0.100647  0  1.024088  0  0  0.108341  0.09977  0  1.023093  0
H  H27  1  0.39499501  0.13229568  0.70481586  1  0  0.086197  0  0.964025  0  0  0.100148  0  1.023316  0  0  0.100656  0  1.024096  0  0  0.108355  0.09978  0  1.023103  0
H  H28  1  0.16947014  0.82835853  0.19675439  1  0  0.101662  0  0.925794  0  0  0.11145  0  0.99049  0  0  0.113065  0  0.989254  0  0  0.118591  0.11022  0  0.991686  0
H  H29  1  0.66947037  0.17164176  0.30324580  1  0  0.101644  0  0.925798  0  0  0.111425  0  0.990488  0  0  0.113041  0  0.989251  0  0  0.118588  0.110198  0  0.991692  0
H  H30  1  0.83053019  0.17164137  0.80324606  1  0  0.101661  0  0.925796  0  0  0.111447  0  0.990489  0  0  0.113063  0  0.989253  0  0  0.118606  0.110232  0  0.991688  0
H  H31  1  0.33052997  0.82835896  0.69675466  1  0  0.101609  0  0.925833  0  0  0.111471  0  0.990449  0  0  0.113088  0  0.989211  0  0  0.118609  0.110251  0  0.991649  0
H  H32  1  0.17884827  0.81888482  0.05869874  1  0  0.09263  0  0.934702  0  0  0.100292  0  1.001448  0  0  0.10212  0  0.999952  0  0  0.111504  0.098843  0  1.002961  0
H  H33  1  0.67884751  0.18111629  0.44130146  1  0  0.092681  0  0.934671  0  0  0.100331  0  1.001414  0  0  0.102158  0  0.999919  0  0  0.111515  0.09888  0  1.002922  0
H  H34  1  0.82115078  0.18111590  0.94130171  1  0  0.092645  0  0.934679  0  0  0.100307  0  1.001424  0  0  0.102135  0  0.999928  0  0  0.111502  0.098848  0  1.002933  0
H  H35  1  0.32115282  0.81888442  0.55869899  1  0  0.092653  0  0.93469  0  0  0.100321  0  1.001447  0  0  0.10215  0  0.99995  0  0  0.111505  0.098866  0  1.002951  0
H  H36  1  0.91211283  0.56474265  0.04366969  1  0  0.015053  0  0.917554  0  0  0.023434  0  0.988742  0  0  0.023791  0  0.983877  0  0  0.123219  0.022616  0  0.992909  0
H  H37  1  0.41211259  0.43525859  0.45633069  1  0  0.015122  0  0.91759  0  0  0.023501  0  0.988775  0  0  0.023859  0  0.98391  0  0  0.123263  0.022693  0  0.992944  0
H  H38  1  0.08788622  0.43525888  0.95633078  1  0  0.014999  0  0.917522  0  0  0.023379  0  0.988711  0  0  0.023735  0  0.983846  0  0  0.123195  0.022561  0  0.992878  0
H  H39  1  0.58788646  0.56474212  0.54366977  1  0  0.015082  0  0.917524  0  0  0.023458  0  0.988722  0  0  0.023816  0  0.983856  0  0  0.123212  0.02263  0  0.992897  0
H  H40  1  0.10043684  0.67275895  0.46729570  1  0  0.440372  0  0.851162  0  0  0.413375  0  0.908185  0  0  0.42309  0  0.894096  0  0  0.308204  0.406346  0  0.918241  0
H  H41  1  0.60043544  0.32724130  0.03270520  1  0  0.440389  0  0.851135  0  0  0.413401  0  0.908142  0  0  0.423115  0  0.894056  0  0  0.308222  0.406369  0  0.918204  0
H  H42  1  0.89956478  0.32724095  0.53270474  1  0  0.440369  0  0.851168  0  0  0.413377  0  0.908181  0  0  0.423091  0  0.894095  0  0  0.30821  0.406346  0  0.918241  0
H  H43  1  0.39956489  0.67275860  0.96729524  1  0  0.440395  0  0.851131  0  0  0.413405  0  0.908138  0  0  0.423118  0  0.894054  0  0  0.308221  0.406371  0  0.918204  0
H  H44  1  0.22173745  0.67720686  0.36966344  1  0  0.436912  0  0.848942  0  0  0.402729  0  0.925225  0  0  0.413274  0  0.909702  0  0  0.305101  0.394988  0  0.936455  0
H  H45  1  0.72173625  0.32279265  0.13033677  1  0  0.436901  0  0.848992  0  0  0.402713  0  0.92526  0  0  0.413259  0  0.909734  0  0  0.305109  0.394971  0  0.93649  0
H  H46  1  0.77826417  0.32279223  0.63033621  1  0  0.436911  0  0.848969  0  0  0.402724  0  0.925238  0  0  0.413268  0  0.909716  0  0  0.305117  0.394985  0  0.936465  0
H  H47  1  0.27826409  0.67720725  0.86966291  1  0  0.436904  0  0.848992  0  0  0.402711  0  0.925267  0  0  0.413257  0  0.909741  0  0  0.305105  0.394974  0  0.936492  0
C  C48  1  0.56795119  0.93585764  0.10838142  1  0  -0.019604  0  3.824494  0  0  -0.03097  0  4.079404  0  0  -0.027964  0  4.098691  0  0  -0.092179  -0.032749  0  4.066154  0
C  C49  1  0.06795157  0.06414340  0.39161793  1  0  -0.01969  0  3.824579  0  0  -0.031066  0  4.079503  0  0  -0.02806  0  4.098791  0  0  -0.092189  -0.032861  0  4.06629  0
C  C50  1  0.43204786  0.06414389  0.89161828  1  0  -0.019578  0  3.824469  0  0  -0.030935  0  4.079395  0  0  -0.027928  0  4.098681  0  0  -0.092177  -0.032732  0  4.066185  0
C  C51  1  0.93204748  0.93585568  0.60838019  1  0  -0.019671  0  3.824599  0  0  -0.031018  0  4.07952  0  0  -0.028013  0  4.098805  0  0  -0.092164  -0.032809  0  4.066299  0
C  C52  1  0.67473494  0.84536464  0.10904814  1  0  -0.212161  0  3.729918  0  0  -0.240434  0  3.99065  0  0  -0.245925  0  4.006005  0  0  -0.115495  -0.237053  0  3.981047  0
C  C53  1  0.17473417  0.15463484  0.39095203  1  0  -0.212028  0  3.729906  0  0  -0.240296  0  3.99063  0  0  -0.245788  0  4.005988  0  0  -0.115454  -0.236923  0  3.981053  0
C  C54  1  0.32526539  0.15463364  0.89095227  1  0  -0.212155  0  3.730009  0  0  -0.240422  0  3.990728  0  0  -0.245915  0  4.006085  0  0  -0.115497  -0.237051  0  3.981151  0
C  C55  1  0.82526617  0.84536506  0.60904764  1  0  -0.212082  0  3.730003  0  0  -0.240343  0  3.990709  0  0  -0.245835  0  4.006066  0  0  -0.115457  -0.236962  0  3.981118  0
C  C56  1  0.85137043  0.86078500  0.12189681  1  0  0.295064  0  3.825164  0  0  0.286905  0  4.086132  0  0  0.300227  0  4.100018  0  0  0.082634  0.277725  0  4.076925  0
C  C57  1  0.35136833  0.13921458  0.37810196  1  0  0.295044  0  3.825107  0  0  0.286878  0  4.086092  0  0  0.300199  0  4.099979  0  0  0.082614  0.277698  0  4.076883  0
C  C58  1  0.14863118  0.13921490  0.87810286  1  0  0.295114  0  3.825062  0  0  0.286957  0  4.086027  0  0  0.300279  0  4.099914  0  0  0.082673  0.277779  0  4.076809  0
C  C59  1  0.64863072  0.86078451  0.62189693  1  0  0.295084  0  3.825117  0  0  0.286927  0  4.086087  0  0  0.300249  0  4.099972  0  0  0.082634  0.277754  0  4.07687  0
C  C60  1  0.92128757  0.96521748  0.13053773  1  0  -0.347712  0  3.773622  0  0  -0.375062  0  4.030621  0  0  -0.384977  0  4.050695  0  0  -0.133488  -0.368427  0  4.017216  0
C  C61  1  0.42128787  0.03478214  0.36946186  1  0  -0.347799  0  3.773628  0  0  -0.375165  0  4.030646  0  0  -0.38508  0  4.05072  0  0  -0.133552  -0.368547  0  4.017243  0
C  C62  1  0.07871148  0.03478079  0.86946191  1  0  -0.347767  0  3.773558  0  0  -0.375123  0  4.030551  0  0  -0.385038  0  4.050624  0  0  -0.133563  -0.36851  0  4.017154  0
C  C63  1  0.57871118  0.96521614  0.63053701  1  0  -0.347778  0  3.773629  0  0  -0.375137  0  4.030646  0  0  -0.385052  0  4.050719  0  0  -0.133537  -0.368518  0  4.017242  0
C  C64  1  0.81017370  0.05464994  0.12922126  1  0  0.284373  0  3.84128  0  0  0.275541  0  4.105788  0  0  0.288065  0  4.121788  0  0  0.075132  0.267042  0  4.094931  0
C  C65  1  0.31017400  0.94534880  0.37077823  1  0  0.284399  0  3.841286  0  0  0.275589  0  4.105769  0  0  0.288108  0  4.12177  0  0  0.075177  0.267086  0  4.09491  0
C  C66  1  0.18982664  0.94534996  0.87077841  1  0  0.284364  0  3.841338  0  0  0.275582  0  4.10578  0  0  0.288105  0  4.121781  0  0  0.07514  0.267076  0  4.094929  0
C  C67  1  0.68982505  0.05465028  0.62922066  1  0  0.284439  0  3.841195  0  0  0.275615  0  4.105713  0  0  0.288133  0  4.121712  0  0  0.075168  0.267105  0  4.094848  0
C  C68  1  0.63276748  0.04084136  0.11906430  1  0  -0.232973  0  3.7751  0  0  -0.261583  0  4.040259  0  0  -0.268678  0  4.058776  0  0  -0.123587  -0.256876  0  4.027877  0
C  C69  1  0.13276525  0.95915890  0.38093432  1  0  -0.232853  0  3.775069  0  0  -0.261458  0  4.040208  0  0  -0.268554  0  4.058727  0  0  -0.123581  -0.256764  0  4.027851  0
C  C70  1  0.36723286  0.95915773  0.88093459  1  0  -0.233005  0  3.775052  0  0  -0.261659  0  4.040231  0  0  -0.268755  0  4.058746  0  0  -0.123657  -0.256972  0  4.027882  0
C  C71  1  0.86723380  0.04084100  0.61906381  1  0  -0.232937  0  3.775032  0  0  -0.261546  0  4.040182  0  0  -0.268641  0  4.058698  0  0  -0.123611  -0.256852  0  4.027815  0
C  C72  1  0.04553485  0.17969406  0.14346135  1  0  -0.070257  0  3.61711  0  0  -0.124379  0  3.864572  0  0  -0.120951  0  3.865624  0  0  -0.069717  -0.127424  0  3.865506  0
C  C73  1  0.54553482  0.82030697  0.35653952  1  0  -0.07022  0  3.61702  0  0  -0.124351  0  3.864527  0  0  -0.120917  0  3.86557  0  0  -0.069727  -0.12742  0  3.865482  0
C  C74  1  0.95446420  0.82030665  0.85653833  1  0  -0.070115  0  3.616895  0  0  -0.124273  0  3.864465  0  0  -0.12083  0  3.865498  0  0  -0.069669  -0.127332  0  3.865402  0
C  C75  1  0.45446552  0.17969375  0.64346093  1  0  -0.070314  0  3.617183  0  0  -0.124381  0  3.864602  0  0  -0.120956  0  3.865646  0  0  -0.06973  -0.127444  0  3.865542  0
C  C76  1  0.08068585  0.29830585  0.16951491  1  0  0.730128  0  3.836449  0  0  0.683257  0  4.143047  0  0  0.717158  0  4.131537  0  0  0.230184  0.660182  0  4.146215  0
C  C77  1  0.58068175  0.70169520  0.33048677  1  0  0.730219  0  3.836325  0  0  0.683319  0  4.142977  0  0  0.717219  0  4.131465  0  0  0.230196  0.660247  0  4.146144  0
C  C78  1  0.91931320  0.70169568  0.83048633  1  0  0.730187  0  3.83631  0  0  0.683221  0  4.143084  0  0  0.71712  0  4.131574  0  0  0.230153  0.660149  0  4.146243  0
C  C79  1  0.41931730  0.29830632  0.66951370  1  0  0.73024  0  3.836359  0  0  0.683318  0  4.143027  0  0  0.717218  0  4.131517  0  0  0.230178  0.660242  0  4.146194  0
C  C80  1  0.12940110  0.77988144  0.12827757  1  0  -0.06632  0  3.616016  0  0  -0.118223  0  3.866765  0  0  -0.114861  0  3.867066  0  0  -0.057192  -0.120944  0  3.867349  0
C  C81  1  0.62940154  0.22011801  0.37172257  1  0  -0.066353  0  3.616016  0  0  -0.11822  0  3.866729  0  0  -0.114857  0  3.867028  0  0  -0.057205  -0.120947  0  3.867329  0
C  C82  1  0.87059795  0.22011846  0.87172210  1  0  -0.066315  0  3.615935  0  0  -0.118214  0  3.866686  0  0  -0.114853  0  3.866986  0  0  -0.057175  -0.120925  0  3.867279  0
C  C83  1  0.37059751  0.77988189  0.62827787  1  0  -0.066326  0  3.615969  0  0  -0.118311  0  3.866788  0  0  -0.114947  0  3.867083  0  0  -0.057233  -0.121019  0  3.867371  0
C  C84  1  0.21364134  0.67000017  0.13828994  1  0  0.714628  0  3.8278  0  0  0.66552  0  4.130761  0  0  0.699174  0  4.120237  0  0  0.223718  0.64288  0  4.131737  0
C  C85  1  0.71364063  0.33000014  0.36170950  1  0  0.714637  0  3.827764  0  0  0.665526  0  4.130714  0  0  0.69918  0  4.120189  0  0  0.223721  0.642888  0  4.131692  0
C  C86  1  0.78636027  0.33000054  0.86171051  1  0  0.714672  0  3.827731  0  0  0.665565  0  4.13071  0  0  0.69922  0  4.120184  0  0  0.223757  0.642928  0  4.131687  0
C  C87  1  0.28635842  0.67000057  0.63828941  1  0  0.714589  0  3.827796  0  0  0.665474  0  4.130806  0  0  0.699127  0  4.120282  0  0  0.223713  0.642829  0  4.131779  0
C  C88  1  0.77457168  0.55275893  0.06034372  1  0  0.662789  0  3.848993  0  0  0.587662  0  4.173848  0  0  0.62284  0  4.159388  0  0  0.175668  0.563806  0  4.17634  0
C  C89  1  0.27457270  0.44724142  0.43965578  1  0  0.66267  0  3.848947  0  0  0.587533  0  4.173833  0  0  0.622711  0  4.159373  0  0  0.175622  0.563676  0  4.17633  0
C  C90  1  0.22543122  0.44724260  0.93965829  1  0  0.662856  0  3.848981  0  0  0.58774  0  4.173823  0  0  0.622919  0  4.159362  0  0  0.175697  0.56389  0  4.176309  0
C  C91  1  0.72542763  0.55275929  0.56034468  1  0  0.662642  0  3.849008  0  0  0.587511  0  4.173889  0  0  0.622687  0  4.159434  0  0  0.175622  0.563653  0  4.176385  0
O  O92  1  0.86552521  0.16011226  0.13777193  1  0  -0.275722  0  2.381359  0  0  -0.200646  0  2.613501  0  0  -0.218469  0  2.616102  0  0  -0.180807  -0.188448  0  2.612108  0
O  O93  1  0.36552406  0.83988814  0.36222840  1  0  -0.275732  0  2.38138  0  0  -0.200684  0  2.613548  0  0  -0.218496  0  2.616141  0  0  -0.180842  -0.188498  0  2.612164  0
O  O94  1  0.13447512  0.83988764  0.86222697  1  0  -0.275738  0  2.381313  0  0  -0.200662  0  2.613468  0  0  -0.218487  0  2.616066  0  0  -0.180823  -0.188483  0  2.612087  0
O  O95  1  0.63447499  0.16011176  0.63777050  1  0  -0.27571  0  2.381353  0  0  -0.200682  0  2.613516  0  0  -0.218489  0  2.616106  0  0  -0.180842  -0.188482  0  2.612119  0
O  O96  1  0.23848144  0.31976083  0.17624014  1  0  -0.707864  0  2.044885  0  0  -0.669339  0  2.304114  0  0  -0.693657  0  2.292552  0  0  -0.395516  -0.644723  0  2.311798  0
O  O97  1  0.73848242  0.68024031  0.32376165  1  0  -0.707933  0  2.044806  0  0  -0.669386  0  2.304033  0  0  -0.693707  0  2.29247  0  0  -0.395525  -0.644769  0  2.311711  0
O  O98  1  0.76151505  0.68023988  0.82376108  1  0  -0.707945  0  2.044837  0  0  -0.669376  0  2.304101  0  0  -0.693696  0  2.292538  0  0  -0.395534  -0.644744  0  2.311776  0
O  O99  1  0.26151663  0.31976121  0.67623882  1  0  -0.707942  0  2.044797  0  0  -0.669404  0  2.304039  0  0  -0.693724  0  2.292474  0  0  -0.395534  -0.64478  0  2.311719  0
O  O100  1  0.95686770  0.36455826  0.18280199  1  0  -0.733626  0  2.016317  0  0  -0.685531  0  2.26303  0  0  -0.709913  0  2.251825  0  0  -0.36039  -0.662014  0  2.270385  0
O  O101  1  0.45686874  0.63544301  0.31720074  1  0  -0.733687  0  2.016366  0  0  -0.68556  0  2.263076  0  0  -0.709942  0  2.251871  0  0  -0.360357  -0.662019  0  2.270429  0
O  O102  1  0.04312878  0.63544164  0.81719768  1  0  -0.733626  0  2.01626  0  0  -0.685504  0  2.263053  0  0  -0.709887  0  2.251852  0  0  -0.360335  -0.661985  0  2.27041  0
O  O103  1  0.54313160  0.36455770  0.68280049  1  0  -0.733648  0  2.016364  0  0  -0.685518  0  2.263073  0  0  -0.7099  0  2.25187  0  0  -0.360335  -0.661995  0  2.270432  0
O  O104  1  0.94840401  0.76800271  0.12402398  1  0  -0.256411  0  2.352314  0  0  -0.187157  0  2.586062  0  0  -0.204059  0  2.587926  0  0  -0.165484  -0.174706  0  2.583311  0
O  O105  1  0.44840460  0.23199692  0.37597640  1  0  -0.256398  0  2.352272  0  0  -0.18715  0  2.586006  0  0  -0.204051  0  2.587869  0  0  -0.165498  -0.174731  0  2.583276  0
O  O106  1  0.05159632  0.23199719  0.87597723  1  0  -0.256418  0  2.352233  0  0  -0.187172  0  2.585992  0  0  -0.204072  0  2.587854  0  0  -0.165538  -0.174776  0  2.583268  0
O  O107  1  0.55159702  0.76800217  0.62402480  1  0  -0.256401  0  2.352294  0  0  -0.18714  0  2.58607  0  0  -0.204041  0  2.587933  0  0  -0.165492  -0.174737  0  2.583345  0
O  O108  1  0.13657612  0.59198574  0.18229521  1  0  -0.784825  0  2.087937  0  0  -0.743039  0  2.35571  0  0  -0.766195  0  2.341697  0  0  -0.404929  -0.714397  0  2.364839  0
O  O109  1  0.63657542  0.40801454  0.31770649  1  0  -0.784843  0  2.087954  0  0  -0.743037  0  2.355681  0  0  -0.766192  0  2.341666  0  0  -0.40489  -0.714344  0  2.364794  0
O  O110  1  0.86342422  0.40801579  0.81770526  1  0  -0.7849  0  2.087957  0  0  -0.743087  0  2.355674  0  0  -0.766243  0  2.341658  0  0  -0.404904  -0.714374  0  2.364777  0
O  O111  1  0.36342235  0.59198618  0.68229628  1  0  -0.784851  0  2.087944  0  0  -0.743051  0  2.355698  0  0  -0.766209  0  2.341685  0  0  -0.404859  -0.714323  0  2.364795  0
O  O112  1  0.36597251  0.65995636  0.10539747  1  0  -0.677266  0  2.02343  0  0  -0.625669  0  2.253149  0  0  -0.650873  0  2.245402  0  0  -0.337241  -0.603484  0  2.258847  0
O  O113  1  0.86597317  0.34004404  0.39460287  1  0  -0.677271  0  2.0234  0  0  -0.625684  0  2.253124  0  0  -0.650889  0  2.245377  0  0  -0.337281  -0.603538  0  2.258835  0
O  O114  1  0.63402782  0.34004517  0.89460454  1  0  -0.677257  0  2.023402  0  0  -0.625681  0  2.253141  0  0  -0.650886  0  2.245394  0  0  -0.337286  -0.603534  0  2.258855  0
O  O115  1  0.13402717  0.65995585  0.60539449  1  0  -0.677209  0  2.023448  0  0  -0.625609  0  2.253172  0  0  -0.650812  0  2.245425  0  0  -0.337288  -0.603489  0  2.258891  0
O  O116  1  0.73220860  0.54390576  0.15521720  1  0  -0.791441  0  2.180049  0  0  -0.741688  0  2.458319  0  0  -0.766794  0  2.444855  0  0  -0.423665  -0.711432  0  2.466167  0
O  O117  1  0.23220815  0.45609619  0.34478383  1  0  -0.791439  0  2.180085  0  0  -0.741657  0  2.458305  0  0  -0.766763  0  2.44484  0  0  -0.42364  -0.711394  0  2.466153  0
O  O118  1  0.26779174  0.45609576  0.84478327  1  0  -0.791471  0  2.180021  0  0  -0.741695  0  2.458204  0  0  -0.766799  0  2.444735  0  0  -0.423653  -0.711444  0  2.466053  0
O  O119  1  0.76779090  0.54390534  0.65521664  1  0  -0.791374  0  2.180101  0  0  -0.741604  0  2.458324  0  0  -0.766708  0  2.444858  0  0  -0.423666  -0.711362  0  2.466179  0
O  O120  1  0.10057398  0.67211196  0.39107542  1  0  -0.886005  0  1.861896  0  0  -0.84538  0  2.053923  0  0  -0.862577  0  2.022438  0  0  -0.632908  -0.826941  0  2.079673  0
O  O121  1  0.60057402  0.32788991  0.10892474  1  0  -0.886014  0  1.861918  0  0  -0.845382  0  2.053901  0  0  -0.86258  0  2.022418  0  0  -0.63292  -0.826929  0  2.079657  0
O  O122  1  0.89942507  0.32788956  0.60892351  1  0  -0.885999  0  1.861926  0  0  -0.84537  0  2.053925  0  0  -0.862567  0  2.022442  0  0  -0.632924  -0.826928  0  2.079679  0
O  O123  1  0.39942631  0.67211080  0.89107572  1  0  -0.886019  0  1.861915  0  0  -0.845388  0  2.053909  0  0  -0.862587  0  2.022425  0  0  -0.632914  -0.826942  0  2.079665  0
O  O124  1  0.66890837  0.54793892  0.98774062  1  0  -0.69464  0  2.142897  0  0  -0.64524  0  2.410891  0  0  -0.669307  0  2.399829  0  0  -0.381741  -0.619971  0  2.417686  0
O  O125  1  0.16890594  0.45206132  0.51226152  1  0  -0.694615  0  2.142774  0  0  -0.645216  0  2.41078  0  0  -0.669283  0  2.399717  0  0  -0.381723  -0.619919  0  2.417559  0
O  O126  1  0.33108940  0.45206261  0.01225985  1  0  -0.694627  0  2.142956  0  0  -0.645239  0  2.410978  0  0  -0.669304  0  2.399915  0  0  -0.381754  -0.619969  0  2.417768  0
O  O127  1  0.83109182  0.54793939  0.48773894  1  0  -0.694583  0  2.142831  0  0  -0.645176  0  2.410845  0  0  -0.669245  0  2.399787  0  0  -0.381736  -0.619928  0  2.417636  0
