# generated using pymatgen
data_CdH18C26(NO4)2
_symmetry_space_group_name_H-M   'P 1'
_cell_length_a   8.29386948
_cell_length_b   8.29508728
_cell_length_c   17.86670000
_cell_angle_alpha   103.41920700
_cell_angle_beta   103.42121421
_cell_angle_gamma   89.99989758
_symmetry_Int_Tables_number   1
_chemical_formula_structural   CdH18C26(NO4)2
_chemical_formula_sum   'Cd2 H36 C52 N4 O16'
_cell_volume   1161.10123868
_cell_formula_units_Z   2
loop_
 _symmetry_equiv_pos_site_id
 _symmetry_equiv_pos_as_xyz
  1  'x, y, z'
loop_
 _atom_site_type_symbol
 _atom_site_label
 _atom_site_symmetry_multiplicity
 _atom_site_fract_x
 _atom_site_fract_y
 _atom_site_fract_z
 _atom_site_occupancy
 _atom_site_hle17_bader_spin_density
 _atom_site_hle17_ddec_charge
 _atom_site_hle17_ddec_spin_density
 _atom_site_hle17_ddec_sum_bond_order
 _atom_site_hle17_magmom
 _atom_site_hse06_10hf_bader_spin_density
 _atom_site_hse06_10hf_ddec_charge
 _atom_site_hse06_10hf_ddec_spin_density
 _atom_site_hse06_10hf_ddec_sum_bond_order
 _atom_site_hse06_10hf_magmom
 _atom_site_hse06_bader_spin_density
 _atom_site_hse06_ddec_charge
 _atom_site_hse06_ddec_spin_density
 _atom_site_hse06_ddec_sum_bond_order
 _atom_site_hse06_magmom
 _atom_site_pbe_bader_charge
 _atom_site_pbe_bader_spin_density
 _atom_site_pbe_cm5_charge
 _atom_site_pbe_ddec_charge
 _atom_site_pbe_ddec_spin_density
 _atom_site_pbe_ddec_sum_bond_order
 _atom_site_pbe_magmom
Cd  Cd0  1  0.50006737  0.49992989  0.99999881  1  0  1.16531  0  1.701188  0  0  0.969467  0  2.16902  0  0  1.024936  0  2.11369  0  1.316037  0  0.794587  0.930125  0  2.207012  0
Cd  Cd1  1  0.74994220  0.25006053  0.50000052  1  0  1.165374  0  1.701039  0  0  0.969409  0  2.169132  0  0  1.024944  0  2.11377  0  1.29689  0  0.794763  0.930018  0  2.207143  0
H  H2  1  0.84809415  0.52002044  0.95577369  1  0  0.07593  0  0.956402  0  0  0.084711  0  1.021747  0  0  0.086803  0  1.019862  0  0.088241  0  0.117436  0.083197  0  1.023098  0
H  H3  1  0.68571035  0.59769628  0.45594277  1  0  0.075502  0  0.955856  0  0  0.084422  0  1.02104  0  0  0.086521  0  1.019128  0  0.094334  0  0.116753  0.082904  0  1.022401  0
H  H4  1  0.10881137  0.43565603  0.95607135  1  0  0.074439  0  0.955592  0  0  0.083561  0  1.020661  0  0  0.085656  0  1.018747  0  0.090468  0  0.116624  0.082044  0  1.022028  0
H  H5  1  0.77009851  0.85832222  0.45608089  1  0  0.076295  0  0.956557  0  0  0.084803  0  1.022217  0  0  0.086878  0  1.020349  0  0.091541  0  0.117795  0.083282  0  1.023591  0
H  H6  1  0.40227625  0.31432943  0.54405173  1  0  0.075487  0  0.955801  0  0  0.084548  0  1.020829  0  0  0.086662  0  1.018893  0  0.095062  0  0.116789  0.083016  0  1.022221  0
H  H7  1  0.56430424  0.89115681  0.04392698  1  0  0.07445  0  0.955746  0  0  0.083571  0  1.020836  0  0  0.085631  0  1.018961  0  0.090377  0  0.11665  0.082055  0  1.0222  0
H  H8  1  0.14170790  0.22984212  0.54392201  1  0  0.076234  0  0.956446  0  0  0.08469  0  1.022203  0  0  0.086761  0  1.020345  0  0.091962  0  0.117733  0.083172  0  1.023574  0
H  H9  1  0.48003172  0.15193166  0.04422788  1  0  0.076086  0  0.956313  0  0  0.084929  0  1.021543  0  0  0.08702  0  1.019657  0  0.087826  0  0.117521  0.083414  0  1.022894  0
H  H10  1  0.07287304  0.72524097  0.95707985  1  0  0.119254  0  0.967513  0  0  0.126463  0  1.032788  0  0  0.12964  0  1.031933  0  0.152061  0  0.109691  0.124178  0  1.033537  0
H  H11  1  0.48183642  0.82260887  0.45711932  1  0  0.119235  0  0.967599  0  0  0.126803  0  1.032448  0  0  0.129978  0  1.031623  0  0.128543  0  0.109811  0.124524  0  1.033176  0
H  H12  1  0.88485102  0.23190158  0.95707945  1  0  0.118534  0  0.967776  0  0  0.126308  0  1.032391  0  0  0.129479  0  1.03152  0  0.111952  0  0.109783  0.124028  0  1.033158  0
H  H13  1  0.97510029  0.63462619  0.45726981  1  0  0.118334  0  0.967351  0  0  0.125763  0  1.032455  0  0  0.128945  0  1.031592  0  0.138837  0  0.109428  0.123475  0  1.03322  0
H  H14  1  0.17736014  0.51820181  0.54288135  1  0  0.119274  0  0.967699  0  0  0.126789  0  1.03259  0  0  0.129969  0  1.031757  0  0.127515  0  0.109767  0.124511  0  1.033318  0
H  H15  1  0.76806551  0.11510479  0.04291493  1  0  0.118763  0  0.967661  0  0  0.126488  0  1.032267  0  0  0.12966  0  1.031395  0  0.112039  0  0.109887  0.124212  0  1.03304  0
H  H16  1  0.36542028  0.02485746  0.54273277  1  0  0.118579  0  0.967429  0  0  0.12597  0  1.032536  0  0  0.129155  0  1.031685  0  0.138828  0  0.109511  0.123684  0  1.0333  0
H  H17  1  0.27480181  0.92716065  0.04291653  1  0  0.119242  0  0.967656  0  0  0.126501  0  1.032855  0  0  0.129679  0  1.032  0  0.152079  0  0.109724  0.124217  0  1.033604  0
H  H18  1  0.98071498  0.41097733  0.11356158  1  0  0.088985  0  0.984263  0  0  0.096827  0  1.050967  0  0  0.099789  0  1.049824  0  0.102756  0  0.098066  0.094679  0  1.051903  0
H  H19  1  0.95232198  0.73080236  0.61360570  1  0  0.090433  0  0.98376  0  0  0.098214  0  1.050527  0  0  0.101233  0  1.049368  0  0.099743  0  0.098651  0.09599  0  1.051525  0
H  H20  1  0.13269922  0.70279551  0.11357493  1  0  0.090275  0  0.983644  0  0  0.097817  0  1.050768  0  0  0.100879  0  1.049542  0  0.097152  0  0.098317  0.095599  0  1.051772  0
H  H21  1  0.66055811  0.88237278  0.61358651  1  0  0.090354  0  0.983822  0  0  0.098035  0  1.050783  0  0  0.100994  0  1.049642  0  0.103547  0  0.098943  0.095881  0  1.051699  0
H  H22  1  0.26918100  0.04767781  0.38638790  1  0  0.090283  0  0.983664  0  0  0.098003  0  1.050558  0  0  0.101017  0  1.049369  0  0.100099  0  0.098565  0.095774  0  1.051568  0
H  H23  1  0.29720114  0.86728005  0.88642852  1  0  0.090326  0  0.983622  0  0  0.097869  0  1.050728  0  0  0.100929  0  1.049503  0  0.097003  0  0.098366  0.095657  0  1.051718  0
H  H24  1  0.11767100  0.33944261  0.38641593  1  0  0.090476  0  0.983703  0  0  0.098087  0  1.050708  0  0  0.101032  0  1.049606  0  0.103512  0  0.098966  0.095936  0  1.051624  0
H  H25  1  0.58901290  0.01929110  0.88643567  1  0  0.089009  0  0.984242  0  0  0.096807  0  1.051003  0  0  0.09977  0  1.049857  0  0.102755  0  0.098072  0.094661  0  1.051937  0
H  H26  1  0.27653455  0.39502059  0.18063735  1  0  0.104992  0  0.95013  0  0  0.113415  0  1.010656  0  0  0.116645  0  1.00908  0  0.100518  0  0.103484  0.111086  0  1.011858  0
H  H27  1  0.03569536  0.02646629  0.68074103  1  0  0.104352  0  0.950579  0  0  0.113278  0  1.010549  0  0  0.116472  0  1.009053  0  0.100761  0  0.103584  0.110948  0  1.011761  0
H  H28  1  0.90422207  0.78585895  0.18074580  1  0  0.104957  0  0.950896  0  0  0.113166  0  1.011656  0  0  0.116362  0  1.010166  0  0.104582  0  0.103658  0.110842  0  1.012844  0
H  H29  1  0.64471840  0.65404267  0.68082809  1  0  0.10531  0  0.95017  0  0  0.113772  0  1.01048  0  0  0.116881  0  1.009087  0  0.101324  0  0.103787  0.111504  0  1.011611  0
H  H30  1  0.97347458  0.96429415  0.31924856  1  0  0.104375  0  0.950786  0  0  0.113317  0  1.010711  0  0  0.116513  0  1.009212  0  0.101926  0  0.10364  0.110987  0  1.011925  0
H  H31  1  0.21413478  0.09572803  0.81925251  1  0  0.104913  0  0.950806  0  0  0.113211  0  1.011456  0  0  0.116404  0  1.00997  0  0.105018  0  0.103612  0.110881  0  1.012658  0
H  H32  1  0.34602723  0.35527522  0.31917305  1  0  0.10496  0  0.950543  0  0  0.113431  0  1.010864  0  0  0.116539  0  1.009474  0  0.101091  0  0.103608  0.111161  0  1.011998  0
H  H33  1  0.60496729  0.72351668  0.81936283  1  0  0.104958  0  0.95012  0  0  0.113476  0  1.010499  0  0  0.116675  0  1.009006  0  0.099978  0  0.103513  0.111153  0  1.011689  0
H  H34  1  0.60991868  0.37510383  0.25005296  1  0  0.386835  0  0.942466  0  0  0.35689  0  1.007419  0  0  0.370555  0  0.988962  0  0.639855  0  0.291598  0.34743  0  1.020142  0
H  H35  1  0.12515980  0.35967716  0.74985627  1  0  0.386019  0  0.944617  0  0  0.355735  0  1.009364  0  0  0.36938  0  0.990948  0  0.64181  0  0.291497  0.346288  0  1.022058  0
H  H36  1  0.64036300  0.87483759  0.25014598  1  0  0.38593  0  0.944682  0  0  0.355669  0  1.009449  0  0  0.36931  0  0.991038  0  0.641799  0  0.291421  0.346226  0  1.02214  0
H  H37  1  0.62489060  0.39004636  0.74994368  1  0  0.386572  0  0.9429  0  0  0.356629  0  1.007795  0  0  0.370297  0  0.989337  0  0.639898  0  0.291472  0.347169  0  1.020516  0
C  C38  1  0.83806625  0.65312280  0.97591101  1  0  0.138725  0  3.711581  0  0  0.107  0  3.964692  0  0  0.11428  0  3.982466  0  0.491248  0  0.053024  0.102239  0  3.952584  0
C  C39  1  0.57264291  0.58782107  0.47602294  1  0  0.138153  0  3.712868  0  0  0.106684  0  3.965843  0  0  0.113973  0  3.983616  0  0.499235  0  0.053967  0.101921  0  3.953748  0
C  C40  1  0.13869574  0.32255856  0.97611527  1  0  0.139687  0  3.708223  0  0  0.107998  0  3.961049  0  0  0.115283  0  3.978829  0  0.510293  0  0.052989  0.103241  0  3.94893  0
C  C41  1  0.90324173  0.88837487  0.47613127  1  0  0.137366  0  3.711393  0  0  0.105556  0  3.964486  0  0  0.112874  0  3.982245  0  0.513922  0  0.050875  0.100779  0  3.952395  0
C  C42  1  0.41216785  0.42737724  0.52397177  1  0  0.138032  0  3.712805  0  0  0.106469  0  3.965744  0  0  0.11375  0  3.983519  0  0.498461  0  0.053842  0.101706  0  3.953644  0
C  C43  1  0.67741672  0.86128789  0.02388299  1  0  0.139628  0  3.708749  0  0  0.107858  0  3.961635  0  0  0.115167  0  3.979423  0  0.509584  0  0.052853  0.103104  0  3.949514  0
C  C44  1  0.11164482  0.09672114  0.52387514  1  0  0.13742  0  3.711794  0  0  0.105587  0  3.964928  0  0  0.112902  0  3.982691  0  0.514626  0  0.050936  0.10081  0  3.952833  0
C  C45  1  0.34691135  0.16194466  0.02408869  1  0  0.138756  0  3.711406  0  0  0.107025  0  3.964503  0  0  0.114306  0  3.982283  0  0.490645  0  0.053081  0.102265  0  3.952393  0
C  C46  1  0.96083918  0.76718234  0.97601959  1  0  -0.15642  0  3.682063  0  0  -0.172162  0  3.925742  0  0  -0.179679  0  3.946353  0  -0.053114  0  -0.076223  -0.16729  0  3.911918  0
C  C47  1  0.45872852  0.71062616  0.47605402  1  0  -0.158663  0  3.684194  0  0  -0.175078  0  3.928329  0  0  -0.182562  0  3.948907  0  -0.042483  0  -0.078781  -0.170235  0  3.914541  0
C  C48  1  0.01576459  0.20870261  0.97608377  1  0  -0.15709  0  3.679261  0  0  -0.173458  0  3.923415  0  0  -0.180947  0  3.943976  0  0.025368  0  -0.078322  -0.168617  0  3.909635  0
C  C49  1  0.01718002  0.76556730  0.47617951  1  0  -0.15452  0  3.680064  0  0  -0.170177  0  3.92384  0  0  -0.177685  0  3.944427  0  -0.023375  0  -0.075529  -0.165324  0  3.910039  0
C  C50  1  0.28936317  0.54129775  0.52394699  1  0  -0.158659  0  3.684386  0  0  -0.175034  0  3.928539  0  0  -0.18252  0  3.949121  0  -0.041019  0  -0.078717  -0.170187  0  3.914742  0
C  C51  1  0.79127096  0.98420718  0.02391022  1  0  -0.157393  0  3.679636  0  0  -0.173673  0  3.923806  0  0  -0.181159  0  3.944349  0  0.02569  0  -0.078409  -0.168839  0  3.91003  0
C  C52  1  0.23445710  0.98279200  0.52382671  1  0  -0.154726  0  3.680713  0  0  -0.170312  0  3.924399  0  0  -0.177833  0  3.945004  0  -0.02392  0  -0.075576  -0.165457  0  3.910593  0
C  C53  1  0.23284771  0.03917930  0.02397601  1  0  -0.156678  0  3.682298  0  0  -0.172506  0  3.926059  0  0  -0.180029  0  3.946679  0  -0.052432  0  -0.076408  -0.167631  0  3.912228  0
C  C54  1  0.93732588  0.93707186  0.99997730  1  0  0.105641  0  3.747556  0  0  0.117784  0  3.97353  0  0  0.121498  0  3.995236  0  -0.076009  0  0.021762  0.115514  0  3.958615  0
C  C55  1  0.31272043  0.68728815  0.50000171  1  0  0.108506  0  3.747332  0  0  0.120931  0  3.972964  0  0  0.124572  0  3.994757  0  -0.044521  0  0.023165  0.118703  0  3.957997  0
C  C56  1  0.06293259  0.06267496  0.00001477  1  0  0.105721  0  3.747787  0  0  0.117844  0  3.973835  0  0  0.121555  0  3.995545  0  -0.025577  0  0.021766  0.115576  0  3.958916  0
C  C57  1  0.18714409  0.81285532  0.50000296  1  0  0.10293  0  3.749172  0  0  0.114603  0  3.975525  0  0  0.118345  0  3.99725  0  -0.022905  0  0.020152  0.112315  0  3.960602  0
C  C58  1  0.71237733  0.39348003  0.15802399  1  0  0.655291  0  3.852744  0  0  0.601671  0  4.155489  0  0  0.636909  0  4.145878  0  1.574475  0  0.223027  0.577813  0  4.161317  0
C  C59  1  0.01417770  0.46240163  0.65803984  1  0  0.655572  0  3.850684  0  0  0.602305  0  4.152715  0  0  0.637523  0  4.143088  0  1.5725  0  0.222579  0.57846  0  4.158562  0
C  C60  1  0.44575654  0.76444137  0.15806447  1  0  0.651786  0  3.85274  0  0  0.59799  0  4.155137  0  0  0.633204  0  4.14558  0  1.563153  0  0.219945  0.574145  0  4.160931  0
C  C61  1  0.64303639  0.19535773  0.65789490  1  0  0.65462  0  3.852572  0  0  0.601169  0  4.154744  0  0  0.636408  0  4.145116  0  1.564674  0  0.222864  0.577307  0  4.16059  0
C  C62  1  0.53761875  0.98582967  0.34196247  1  0  0.655807  0  3.850504  0  0  0.602436  0  4.152725  0  0  0.637671  0  4.143094  0  1.572764  0  0.222455  0.57859  0  4.158571  0
C  C63  1  0.23555970  0.55426772  0.84194598  1  0  0.6517  0  3.852971  0  0  0.597847  0  4.155438  0  0  0.633061  0  4.145874  0  1.563094  0  0.219767  0.574002  0  4.161235  0
C  C64  1  0.80463695  0.35695481  0.34210459  1  0  0.654459  0  3.852778  0  0  0.601025  0  4.154967  0  0  0.636266  0  4.145333  0  1.564575  0  0.222811  0.577171  0  4.160819  0
C  C65  1  0.60650943  0.28760369  0.84197663  1  0  0.654959  0  3.853027  0  0  0.601304  0  4.155759  0  0  0.636539  0  4.146157  0  1.574694  0  0.222908  0.577445  0  4.161586  0
C  C66  1  0.88223649  0.38428386  0.21032678  1  0  -0.094463  0  3.701829  0  0  -0.078677  0  3.933705  0  0  -0.085585  0  3.957199  0  -0.108569  0  -0.016303  -0.074147  0  3.91792  0
C  C67  1  0.07605585  0.63214715  0.71031042  1  0  -0.093583  0  3.701117  0  0  -0.077807  0  3.932932  0  0  -0.084663  0  3.956324  0  -0.113912  0  -0.016038  -0.073325  0  3.917207  0
C  C68  1  0.32812200  0.82635288  0.21024977  1  0  -0.093883  0  3.704875  0  0  -0.076838  0  3.935607  0  0  -0.083656  0  3.959004  0  -0.0385  0  -0.015675  -0.072351  0  3.919865  0
C  C69  1  0.63358569  0.07786204  0.71018428  1  0  -0.094625  0  3.705127  0  0  -0.0776  0  3.935801  0  0  -0.084481  0  3.959282  0  -0.031762  0  -0.01652  -0.073082  0  3.919993  0
C  C70  1  0.36785358  0.92394423  0.28968956  1  0  -0.093799  0  3.700951  0  0  -0.078138  0  3.933005  0  0  -0.08503  0  3.956434  0  -0.113719  0  -0.01611  -0.073652  0  3.917277  0
C  C71  1  0.17364196  0.67188259  0.78975341  1  0  -0.093963  0  3.705012  0  0  -0.076874  0  3.935609  0  0  -0.083702  0  3.958997  0  -0.039  0  -0.015621  -0.072387  0  3.91987  0
C  C72  1  0.92215125  0.36640422  0.28981595  1  0  -0.094668  0  3.70454  0  0  -0.077584  0  3.935219  0  0  -0.084463  0  3.958692  0  -0.031552  0  -0.016536  -0.073095  0  3.919452  0
C  C73  1  0.61570110  0.11776259  0.78967251  1  0  -0.094589  0  3.701667  0  0  -0.078685  0  3.933434  0  0  -0.085591  0  3.956927  0  -0.108477  0  -0.016293  -0.074164  0  3.917642  0
C  C74  1  0.01346290  0.39457493  0.17374406  1  0  -0.064187  0  3.7423  0  0  -0.088834  0  3.993106  0  0  -0.090009  0  4.014857  0  -0.091466  0  -0.084133  -0.087907  0  3.978316  0
C  C75  1  0.02906165  0.76341971  0.67376154  1  0  -0.067761  0  3.743327  0  0  -0.092788  0  3.994892  0  0  -0.094055  0  4.016587  0  0.046115  0  -0.084275  -0.091764  0  3.980149  0
C  C76  1  0.16026592  0.77951300  0.17371781  1  0  -0.066922  0  3.744414  0  0  -0.09205  0  3.995292  0  0  -0.093366  0  4.017012  0  0.055495  0  -0.085286  -0.091027  0  3.980514  0
C  C77  1  0.64398768  0.91002087  0.67372830  1  0  -0.066764  0  3.745401  0  0  -0.092064  0  3.996485  0  0  -0.093247  0  4.018194  0  -0.066923  0  -0.086175  -0.091106  0  3.981703  0
C  C78  1  0.23655738  0.97093555  0.32623222  1  0  -0.06729  0  3.743155  0  0  -0.09221  0  3.994631  0  0  -0.093449  0  4.016362  0  0.045933  0  -0.084004  -0.091186  0  3.979878  0
C  C79  1  0.22048072  0.83971637  0.82628509  1  0  -0.066877  0  3.7446  0  0  -0.092014  0  3.995482  0  0  -0.093329  0  4.017207  0  0.056198  0  -0.085313  -0.09099  0  3.980701  0
C  C80  1  0.09002852  0.35600515  0.32627390  1  0  -0.067123  0  3.745441  0  0  -0.092366  0  3.996577  0  0  -0.093552  0  4.018284  0  -0.06659  0  -0.086264  -0.091405  0  3.981807  0
C  C81  1  0.60541277  0.98654595  0.82625601  1  0  -0.063999  0  3.742504  0  0  -0.088675  0  3.99339  0  0  -0.089843  0  4.015132  0  -0.091188  0  -0.084101  -0.087752  0  3.978604  0
C  C82  1  0.17890149  0.38550414  0.21131393  1  0  -0.047791  0  3.722219  0  0  -0.062128  0  3.971915  0  0  -0.063214  0  3.991041  0  -0.015885  0  -0.082939  -0.061291  0  3.958811  0
C  C83  1  0.07589437  0.92877445  0.71138105  1  0  -0.044779  0  3.724107  0  0  -0.059251  0  3.973685  0  0  -0.060319  0  3.992824  0  -0.13201  0  -0.082768  -0.058424  0  3.960537  0
C  C84  1  0.03252315  0.82619274  0.21135641  1  0  -0.04562  0  3.72306  0  0  -0.059373  0  3.97259  0  0  -0.060465  0  3.991761  0  -0.075847  0  -0.080879  -0.058533  0  3.959433  0
C  C85  1  0.63501995  0.78235081  0.71140578  1  0  -0.044621  0  3.720539  0  0  -0.058245  0  3.969616  0  0  -0.059252  0  3.988777  0  0.045545  0  -0.07971  -0.057467  0  3.956475  0
C  C86  1  0.07118392  0.92409195  0.28861344  1  0  -0.044932  0  3.724386  0  0  -0.059435  0  3.973963  0  0  -0.060504  0  3.99309  0  -0.133579  0  -0.082945  -0.058609  0  3.960821  0
C  C87  1  0.17380017  0.96744106  0.78863997  1  0  -0.045593  0  3.723173  0  0  -0.059399  0  3.972637  0  0  -0.060492  0  3.991815  0  -0.076849  0  -0.080813  -0.058557  0  3.959476  0
C  C88  1  0.21769600  0.36497415  0.28860020  1  0  -0.043986  0  3.721329  0  0  -0.057622  0  3.970311  0  0  -0.058636  0  3.989482  0  0.045579  0  -0.079524  -0.056842  0  3.957165  0
C  C89  1  0.61447475  0.82115396  0.78869134  1  0  -0.04783  0  3.722545  0  0  -0.062252  0  3.972352  0  0  -0.063345  0  3.991462  0  -0.015568  0  -0.083085  -0.061418  0  3.959254  0
N  N90  1  0.69935125  0.69874240  0.99986364  1  0  -0.326536  0  3.251841  0  0  -0.251404  0  3.520808  0  0  -0.270594  0  3.537977  0  -1.246385  0  -0.327595  -0.238232  0  3.508817  0
N  N91  1  0.55080150  0.44920821  0.49999791  1  0  -0.324356  0  3.252069  0  0  -0.249316  0  3.520851  0  0  -0.268466  0  3.538019  0  -1.225827  0  -0.327591  -0.236162  0  3.508851  0
N  N92  1  0.30126836  0.30064194  0.00013723  1  0  -0.326619  0  3.251897  0  0  -0.251499  0  3.520835  0  0  -0.270698  0  3.538025  0  -1.246103  0  -0.327658  -0.238326  0  3.508842  0
N  N93  1  0.94900876  0.05098237  0.50000375  1  0  -0.325774  0  3.251735  0  0  -0.249707  0  3.519563  0  0  -0.268903  0  3.53671  0  -1.248928  0  -0.326119  -0.236527  0  3.507578  0
O  O94  1  0.70579030  0.39850887  0.08735288  1  0  -0.621122  0  2.05124  0  0  -0.560374  0  2.315249  0  0  -0.586462  0  2.302442  0  -1.168219  0  -0.31574  -0.542194  0  2.3235  0
O  O95  1  0.93807856  0.45596754  0.58743931  1  0  -0.620476  0  2.051902  0  0  -0.559366  0  2.315324  0  0  -0.585575  0  2.302741  0  -1.173335  0  -0.314845  -0.541106  0  2.323419  0
O  O96  1  0.38163870  0.68883119  0.08736385  1  0  -0.619429  0  2.04973  0  0  -0.558262  0  2.313258  0  0  -0.584308  0  2.300345  0  -1.173982  0  -0.314473  -0.540115  0  2.32159  0
O  O97  1  0.64804695  0.13116332  0.58722749  1  0  -0.621102  0  2.050585  0  0  -0.560656  0  2.314826  0  0  -0.586722  0  2.302001  0  -1.17385  0  -0.316865  -0.542488  0  2.323074  0
O  O98  1  0.54404727  0.06192889  0.41255682  1  0  -0.620654  0  2.051882  0  0  -0.559463  0  2.315395  0  0  -0.585637  0  2.302715  0  -1.173703  0  -0.314837  -0.5412  0  2.323486  0
O  O99  1  0.31115212  0.61838269  0.91264438  1  0  -0.619314  0  2.049985  0  0  -0.558194  0  2.313629  0  0  -0.584237  0  2.300711  0  -1.174402  0  -0.314393  -0.540049  0  2.321965  0
O  O100  1  0.86884163  0.35195328  0.41277351  1  0  -0.620953  0  2.05054  0  0  -0.560541  0  2.314794  0  0  -0.58659  0  2.301952  0  -1.173942  0  -0.316873  -0.542375  0  2.323042  0
O  O101  1  0.60148034  0.29419668  0.91264613  1  0  -0.621078  0  2.051499  0  0  -0.560264  0  2.315439  0  0  -0.58635  0  2.302635  0  -1.16836  0  -0.315715  -0.542083  0  2.323689  0
O  O102  1  0.57951535  0.39283575  0.18388554  1  0  -0.573335  0  2.075071  0  0  -0.522545  0  2.292414  0  0  -0.546728  0  2.278206  0  -1.17239  0  -0.320427  -0.505848  0  2.301643  0
O  O103  1  0.04083211  0.32947803  0.68382882  1  0  -0.573552  0  2.07444  0  0  -0.522788  0  2.291489  0  0  -0.546926  0  2.277229  0  -1.171593  0  -0.320768  -0.50611  0  2.300751  0
O  O104  1  0.60449535  0.79055138  0.18406579  1  0  -0.571843  0  2.074861  0  0  -0.520757  0  2.291833  0  0  -0.544913  0  2.277608  0  -1.180575  0  -0.319255  -0.50408  0  2.301091  0
O  O105  1  0.64262480  0.35410087  0.68380119  1  0  -0.573532  0  2.074626  0  0  -0.522895  0  2.291988  0  0  -0.547039  0  2.277677  0  -1.180541  0  -0.319714  -0.50621  0  2.301261  0
O  O106  1  0.67056750  0.95917469  0.31617502  1  0  -0.573565  0  2.074232  0  0  -0.522751  0  2.29127  0  0  -0.546909  0  2.277039  0  -1.171735  0  -0.320594  -0.506074  0  2.300528  0
O  O107  1  0.20945104  0.39554942  0.81594814  1  0  -0.571886  0  2.074774  0  0  -0.52079  0  2.291828  0  0  -0.544952  0  2.277602  0  -1.179861  0  -0.319223  -0.504107  0  2.301087  0
O  O108  1  0.64586835  0.35735950  0.31619313  1  0  -0.573584  0  2.074764  0  0  -0.522934  0  2.292083  0  0  -0.547099  0  2.277816  0  -1.180569  0  -0.31967  -0.506245  0  2.301349  0
O  O109  1  0.60717169  0.42044784  0.81611174  1  0  -0.57289  0  2.075033  0  0  -0.522118  0  2.292359  0  0  -0.546307  0  2.27817  0  -1.172533  0  -0.320213  -0.505423  0  2.301587  0
