# generated using pymatgen
data_SbH16C10S4IN2
_symmetry_space_group_name_H-M   'P 1'
_cell_length_a   5.72050073
_cell_length_b   8.59114360
_cell_length_c   17.13986914
_cell_angle_alpha   93.89723341
_cell_angle_beta   99.81194771
_cell_angle_gamma   100.15345647
_symmetry_Int_Tables_number   1
_chemical_formula_structural   SbH16C10S4IN2
_chemical_formula_sum   'Sb2 H32 C20 S8 I2 N4'
_cell_volume   812.84759427
_cell_formula_units_Z   2
loop_
 _symmetry_equiv_pos_site_id
 _symmetry_equiv_pos_as_xyz
  1  'x, y, z'
loop_
 _atom_site_type_symbol
 _atom_site_label
 _atom_site_symmetry_multiplicity
 _atom_site_fract_x
 _atom_site_fract_y
 _atom_site_fract_z
 _atom_site_occupancy
 _atom_site_hle17_bader_spin_density
 _atom_site_hle17_ddec_charge
 _atom_site_hle17_ddec_spin_density
 _atom_site_hle17_ddec_sum_bond_order
 _atom_site_hle17_magmom
 _atom_site_hse06_10hf_bader_spin_density
 _atom_site_hse06_10hf_ddec_charge
 _atom_site_hse06_10hf_ddec_spin_density
 _atom_site_hse06_10hf_ddec_sum_bond_order
 _atom_site_hse06_10hf_magmom
 _atom_site_hse06_bader_spin_density
 _atom_site_hse06_ddec_charge
 _atom_site_hse06_ddec_spin_density
 _atom_site_hse06_ddec_sum_bond_order
 _atom_site_hse06_magmom
 _atom_site_pbe_bader_spin_density
 _atom_site_pbe_cm5_charge
 _atom_site_pbe_ddec_charge
 _atom_site_pbe_ddec_spin_density
 _atom_site_pbe_ddec_sum_bond_order
 _atom_site_pbe_magmom
Sb  Sb0  1  0.99191898  0.13462118  0.24471565  1  0  0.618488  0  2.817946  0  0  0.553844  0  3.294382  0  0  0.575505  0  3.288736  0  0  0.359601  0.534309  0  3.298977  0
Sb  Sb1  1  0.00806485  0.86537609  0.75528194  1  0  0.618434  0  2.81805  0  0  0.553794  0  3.294488  0  0  0.575452  0  3.288846  0  0  0.359621  0.53425  0  3.299098  0
H  H2  1  0.84544441  0.08190503  0.90946821  1  0  0.065918  0  0.950176  0  0  0.076898  0  1.025272  0  0  0.077231  0  1.025438  0  0  0.090331  0.07658  0  1.025211  0
H  H3  1  0.15454480  0.91811127  0.09053500  1  0  0.065956  0  0.949949  0  0  0.076871  0  1.025169  0  0  0.077199  0  1.025333  0  0  0.090293  0.076557  0  1.025111  0
H  H4  1  0.68031147  0.22012289  0.94364543  1  0  0.068417  0  0.957354  0  0  0.08473  0  1.02361  0  0  0.085186  0  1.023355  0  0  0.098084  0.084267  0  1.02395  0
H  H5  1  0.31969963  0.77990178  0.05635404  1  0  0.068479  0  0.957197  0  0  0.084806  0  1.023451  0  0  0.085262  0  1.023195  0  0  0.098115  0.084344  0  1.0238  0
H  H6  1  0.21557160  0.57311196  0.51210135  1  0  0.068351  0  0.932076  0  0  0.082762  0  0.998022  0  0  0.082724  0  0.998841  0  0  0.098892  0.082667  0  0.99756  0
H  H7  1  0.78443810  0.42688897  0.48790251  1  0  0.068261  0  0.932031  0  0  0.082642  0  0.998037  0  0  0.082603  0  0.998857  0  0  0.098846  0.082549  0  0.997576  0
H  H8  1  0.43434968  0.62208005  0.45139572  1  0  0.068512  0  0.951285  0  0  0.081373  0  1.022477  0  0  0.081972  0  1.022191  0  0  0.098368  0.080807  0  1.022815  0
H  H9  1  0.56565138  0.37792796  0.54860379  1  0  0.068513  0  0.951156  0  0  0.081355  0  1.022412  0  0  0.081951  0  1.02213  0  0  0.098389  0.080795  0  1.022757  0
H  H10  1  0.87906871  0.26952740  0.81021808  1  0  0.077028  0  0.980925  0  0  0.091556  0  1.048412  0  0  0.093845  0  1.047331  0  0  0.07584  0.089923  0  1.049195  0
H  H11  1  0.12094031  0.73047114  0.18978099  1  0  0.077029  0  0.980888  0  0  0.091543  0  1.048392  0  0  0.093833  0  1.047313  0  0  0.075803  0.08991  0  1.049178  0
H  H12  1  0.89065966  0.43373136  0.87939478  1  0  0.067225  0  0.971375  0  0  0.079996  0  1.041458  0  0  0.080724  0  1.042286  0  0  0.078137  0.079329  0  1.041036  0
H  H13  1  0.10936026  0.56627432  0.12059815  1  0  0.067367  0  0.971288  0  0  0.080097  0  1.041388  0  0  0.080824  0  1.04222  0  0  0.078201  0.079435  0  1.040964  0
H  H14  1  0.29528334  0.85893954  0.54099247  1  0  0.076624  0  0.965146  0  0  0.089109  0  1.0359  0  0  0.090905  0  1.035391  0  0  0.080169  0.087729  0  1.0364  0
H  H15  1  0.70470971  0.14105897  0.45901153  1  0  0.07665  0  0.965104  0  0  0.089105  0  1.035891  0  0  0.090896  0  1.035383  0  0  0.080169  0.087716  0  1.036395  0
H  H16  1  0.36429170  0.88814992  0.44491962  1  0  0.072956  0  0.967803  0  0  0.089769  0  1.030439  0  0  0.091374  0  1.030564  0  0  0.078467  0.088558  0  1.030451  0
H  H17  1  0.63570835  0.11185453  0.55507972  1  0  0.072923  0  0.967865  0  0  0.089738  0  1.030467  0  0  0.09134  0  1.030591  0  0  0.078478  0.088524  0  1.030486  0
H  H18  1  0.28938653  0.23938084  0.87071461  1  0  0.070644  0  0.952236  0  0  0.085601  0  1.019239  0  0  0.087262  0  1.018686  0  0  0.081859  0.084455  0  1.019593  0
H  H19  1  0.71061991  0.76060228  0.12928789  1  0  0.070535  0  0.952328  0  0  0.085495  0  1.019361  0  0  0.087151  0  1.01881  0  0  0.081857  0.084347  0  1.019718  0
H  H20  1  0.31979740  0.44926963  0.87511261  1  0  0.080448  0  0.959167  0  0  0.094361  0  1.026735  0  0  0.095221  0  1.027338  0  0  0.084319  0.09361  0  1.026468  0
H  H21  1  0.68023092  0.55072183  0.12488032  1  0  0.080392  0  0.959323  0  0  0.094349  0  1.026847  0  0  0.095206  0  1.027455  0  0  0.08434  0.093606  0  1.026572  0
H  H22  1  0.86274054  0.79015509  0.48664086  1  0  0.066256  0  0.962744  0  0  0.081003  0  1.03012  0  0  0.08191  0  1.03064  0  0  0.07993  0.080266  0  1.029854  0
H  H23  1  0.13725717  0.20984105  0.51336216  1  0  0.066256  0  0.962857  0  0  0.081  0  1.030171  0  0  0.081908  0  1.030691  0  0  0.079949  0.08026  0  1.029911  0
H  H24  1  0.95495501  0.93936801  0.42549040  1  0  0.077892  0  0.955685  0  0  0.095433  0  1.018809  0  0  0.096538  0  1.019151  0  0  0.087101  0.094649  0  1.018606  0
H  H25  1  0.04504192  0.06063168  0.57450803  1  0  0.07791  0  0.955718  0  0  0.095413  0  1.018836  0  0  0.096515  0  1.019183  0  0  0.087082  0.094632  0  1.018627  0
H  H26  1  0.28570176  0.47058504  0.01447013  1  0  0.06689  0  0.930232  0  0  0.087602  0  0.98842  0  0  0.087412  0  0.989438  0  0  0.102213  0.08762  0  0.987807  0
H  H27  1  0.71430342  0.52943128  0.98552523  1  0  0.06679  0  0.930261  0  0  0.087561  0  0.988422  0  0  0.087373  0  0.989437  0  0  0.102193  0.087579  0  0.987811  0
H  H28  1  0.42349333  0.30032830  0.01340501  1  0  0.064489  0  0.970825  0  0  0.073807  0  1.048994  0  0  0.074822  0  1.048207  0  0  0.092837  0.072919  0  1.049771  0
H  H29  1  0.57651374  0.69968212  0.98659785  1  0  0.064376  0  0.970965  0  0  0.073687  0  1.049176  0  0  0.074698  0  1.048396  0  0  0.092807  0.072801  0  1.049947  0
H  H30  1  0.95290592  0.74893998  0.31619062  1  0  0.065667  0  0.936209  0  0  0.079252  0  1.007815  0  0  0.080445  0  1.006945  0  0  0.093154  0.078369  0  1.008458  0
H  H31  1  0.04709687  0.25104905  0.68381070  1  0  0.0657  0  0.936323  0  0  0.079273  0  1.007927  0  0  0.080471  0  1.007048  0  0  0.093145  0.078388  0  1.008572  0
H  H32  1  0.72218197  0.63716318  0.35829718  1  0  0.070735  0  0.94366  0  0  0.082412  0  1.015408  0  0  0.083478  0  1.014374  0  0  0.095848  0.081458  0  1.016333  0
H  H33  1  0.27782284  0.36283298  0.64170274  1  0  0.070689  0  0.943587  0  0  0.082334  0  1.015372  0  0  0.083396  0  1.014344  0  0  0.09579  0.081387  0  1.016291  0
C  C34  1  0.01716589  0.21537376  0.07534317  1  0  0.205476  0  3.80475  0  0  0.175487  0  4.113328  0  0  0.198611  0  4.121993  0  0  0.126119  0.159997  0  4.10667  0
C  C35  1  0.98283330  0.78464016  0.92464885  1  0  0.205446  0  3.804469  0  0  0.17548  0  4.113033  0  0  0.198607  0  4.121698  0  0  0.126103  0.159985  0  4.106372  0
C  C36  1  0.05501392  0.44596896  0.34751439  1  0  0.208194  0  3.798824  0  0  0.177351  0  4.105597  0  0  0.200353  0  4.113942  0  0  0.129876  0.161915  0  4.099153  0
C  C37  1  0.94498892  0.55403911  0.65249573  1  0  0.20817  0  3.798239  0  0  0.17734  0  4.105061  0  0  0.200346  0  4.11341  0  0  0.12988  0.1619  0  4.098616  0
C  C38  1  0.85742005  0.20771698  0.93038921  1  0  0.005115  0  3.606231  0  0  -0.054529  0  3.859348  0  0  -0.049465  0  3.869887  0  0  -0.065901  -0.057745  0  3.85204  0
C  C39  1  0.14258202  0.79229459  0.06960873  1  0  0.005117  0  3.605938  0  0  -0.054496  0  3.859111  0  0  -0.049436  0  3.869669  0  0  -0.065875  -0.057725  0  3.851826  0
C  C40  1  0.25759133  0.64119698  0.46240343  1  0  0.007084  0  3.611003  0  0  -0.052427  0  3.86776  0  0  -0.047564  0  3.878565  0  0  -0.063575  -0.055527  0  3.860333  0
C  C41  1  0.74241448  0.35880275  0.53759901  1  0  0.007195  0  3.610968  0  0  -0.052335  0  3.867857  0  0  -0.04747  0  3.878652  0  0  -0.063548  -0.055448  0  3.860442  0
C  C42  1  0.94961827  0.31941418  0.87202241  1  0  -0.133643  0  3.67117  0  0  -0.170529  0  3.922027  0  0  -0.172551  0  3.93426  0  0  -0.172468  -0.168938  0  3.913477  0
C  C43  1  0.05037155  0.68058548  0.12797503  1  0  -0.133973  0  3.671346  0  0  -0.170777  0  3.922209  0  0  -0.172779  0  3.934394  0  0  -0.172525  -0.169187  0  3.913672  0
C  C44  1  0.24273555  0.81606242  0.47751687  1  0  -0.13073  0  3.651496  0  0  -0.166428  0  3.898358  0  0  -0.168723  0  3.910634  0  0  -0.169135  -0.164669  0  3.889834  0
C  C45  1  0.75725328  0.18393369  0.52248390  1  0  -0.130707  0  3.651512  0  0  -0.166336  0  3.898219  0  0  -0.168618  0  3.910482  0  0  -0.169151  -0.164573  0  3.889703  0
C  C46  1  0.22506082  0.34187639  0.89567602  1  0  -0.132625  0  3.660845  0  0  -0.17033  0  3.913505  0  0  -0.171911  0  3.925891  0  0  -0.168441  -0.169056  0  3.904835  0
C  C47  1  0.77494321  0.65812331  0.10432106  1  0  -0.132373  0  3.661173  0  0  -0.170165  0  3.913967  0  0  -0.171739  0  3.926361  0  0  -0.168471  -0.168897  0  3.905302  0
C  C48  1  0.97885248  0.82200283  0.44294892  1  0  -0.128358  0  3.659549  0  0  -0.165966  0  3.911673  0  0  -0.167381  0  3.924388  0  0  -0.168071  -0.164818  0  3.902758  0
C  C49  1  0.02112866  0.17798491  0.55704413  1  0  -0.128351  0  3.659688  0  0  -0.165833  0  3.91157  0  0  -0.167257  0  3.92429  0  0  -0.16805  -0.164646  0  3.902583  0
C  C50  1  0.26652769  0.34866081  0.98637839  1  0  0.000312  0  3.614126  0  0  -0.059484  0  3.869543  0  0  -0.055057  0  3.880557  0  0  -0.065114  -0.062336  0  3.862059  0
C  C51  1  0.73346339  0.65134955  0.01362064  1  0  0.000571  0  3.614087  0  0  -0.05927  0  3.86962  0  0  -0.054847  0  3.880648  0  0  -0.065092  -0.062123  0  3.862132  0
C  C52  1  0.91255531  0.69765502  0.37072429  1  0  0.001878  0  3.617514  0  0  -0.060859  0  3.877126  0  0  -0.056162  0  3.886779  0  0  -0.066758  -0.063846  0  3.870473  0
C  C53  1  0.08744268  0.30232331  0.62927640  1  0  0.001779  0  3.617584  0  0  -0.060929  0  3.877211  0  0  -0.056229  0  3.886864  0  0  -0.066734  -0.06393  0  3.870563  0
S  S54  1  0.25673879  0.27967650  0.15378734  1  0  -0.237179  0  2.235772  0  0  -0.222575  0  2.588323  0  0  -0.230296  0  2.585452  0  0  -0.0864  -0.216178  0  2.589846  0
S  S55  1  0.74325219  0.72033980  0.84621479  1  0  -0.237091  0  2.23587  0  0  -0.222504  0  2.588475  0  0  -0.23022  0  2.585606  0  0  -0.086415  -0.216106  0  2.589991  0
S  S56  1  0.26020963  0.32428069  0.37018045  1  0  -0.267898  0  2.105501  0  0  -0.252809  0  2.441356  0  0  -0.262552  0  2.438599  0  0  -0.106638  -0.245223  0  2.442818  0
S  S57  1  0.73979196  0.67571665  0.62982108  1  0  -0.267774  0  2.105711  0  0  -0.252677  0  2.441586  0  0  -0.262411  0  2.438827  0  0  -0.106589  -0.245092  0  2.443051  0
S  S58  1  0.82471595  0.38891451  0.26587589  1  0  -0.199107  0  2.214541  0  0  -0.183382  0  2.560042  0  0  -0.190744  0  2.558527  0  0  -0.072271  -0.177165  0  2.560534  0
S  S59  1  0.17527863  0.61107690  0.73413263  1  0  -0.198986  0  2.214582  0  0  -0.183248  0  2.560082  0  0  -0.190615  0  2.558586  0  0  -0.072234  -0.177031  0  2.560576  0
S  S60  1  0.75030133  0.10875091  0.09201278  1  0  -0.271943  0  2.088226  0  0  -0.262736  0  2.431075  0  0  -0.274182  0  2.429838  0  0  -0.11565  -0.254083  0  2.431532  0
S  S61  1  0.24970227  0.89125354  0.90798443  1  0  -0.271933  0  2.088316  0  0  -0.262749  0  2.431202  0  0  -0.274189  0  2.429964  0  0  -0.115667  -0.254093  0  2.431651  0
I  I62  1  0.48767990  0.96667830  0.28961371  1  0  -0.44285  0  1.023575  0  0  -0.407639  0  1.322743  0  0  -0.430713  0  1.310184  0  0  -0.190766  -0.390552  0  1.331043  0
I  I63  1  0.51230262  0.03328925  0.71037525  1  0  -0.442813  0  1.02366  0  0  -0.407622  0  1.322867  0  0  -0.430695  0  1.31031  0  0  -0.190732  -0.390536  0  1.331168  0
N  N64  1  0.04413565  0.25221136  0.00282352  1  0  -0.11363  0  3.419143  0  0  -0.015187  0  3.641402  0  0  -0.033358  0  3.664615  0  0  -0.260727  -0.003242  0  3.625607  0
N  N65  1  0.95585865  0.74779784  0.99718149  1  0  -0.113686  0  3.418664  0  0  -0.015245  0  3.640969  0  0  -0.033424  0  3.664187  0  0  -0.260689  -0.003289  0  3.625173  0
N  N66  1  0.07112188  0.58276676  0.39097398  1  0  -0.116665  0  3.422689  0  0  -0.01747  0  3.644502  0  0  -0.034867  0  3.666491  0  0  -0.259204  -0.006057  0  3.629538  0
N  N67  1  0.92887442  0.41720562  0.60902409  1  0  -0.11682  0  3.422188  0  0  -0.017693  0  3.644144  0  0  -0.035096  0  3.666138  0  0  -0.259314  -0.00628  0  3.629183  0
