# generated using pymatgen
data_Al4H9C28N2ClO24
_symmetry_space_group_name_H-M   'P 1'
_cell_length_a   6.67983070
_cell_length_b   16.55969629
_cell_length_c   18.98911323
_cell_angle_alpha   75.35703403
_cell_angle_beta   89.64204963
_cell_angle_gamma   90.03768378
_symmetry_Int_Tables_number   1
_chemical_formula_structural   Al4H9C28N2ClO24
_chemical_formula_sum   'Al4 H9 C28 N2 Cl1 O24'
_cell_volume   2032.22956222
_cell_formula_units_Z   1
loop_
 _symmetry_equiv_pos_site_id
 _symmetry_equiv_pos_as_xyz
  1  'x, y, z'
loop_
 _atom_site_type_symbol
 _atom_site_label
 _atom_site_symmetry_multiplicity
 _atom_site_fract_x
 _atom_site_fract_y
 _atom_site_fract_z
 _atom_site_occupancy
 _atom_site_pbe_bader_charge
 _atom_site_pbe_bader_spin_density
 _atom_site_pbe_cm5_charge
 _atom_site_pbe_ddec_charge
 _atom_site_pbe_ddec_spin_density
 _atom_site_pbe_ddec_sum_bond_order
 _atom_site_pbe_magmom
Al  Al0  1  0.10842397  0.49652927  0.50034610  1  2.502907  0  0.40599  1.647986  0  2.577579  0
Al  Al1  1  0.60689699  0.49946907  0.49808284  1  2.502241  0  0.406669  1.645786  0  2.581663  0
Al  Al2  1  0.61819887  0.99827586  0.99702145  1  2.502655  0  0.402295  1.649596  0  2.575564  0
Al  Al3  1  0.11702511  0.99815245  0.99764067  1  2.50181  0  0.407205  1.641987  0  2.570044  0
H  H4  1  0.99144666  0.82551363  0.21340877  1  0.132875  0  0.117901  0.1533  0  1.003876  0
H  H5  1  0.57124764  0.68834539  0.30040445  1  0.193407  0  0.123577  0.147775  0  0.987028  0
H  H6  1  0.07541598  0.19175917  0.80533109  1  0.152906  0  0.122194  0.131939  0  0.989997  0
H  H7  1  0.06685404  0.29417562  0.68979563  1  0.092915  0  0.118764  0.118543  0  0.973086  0
H  H8  1  0.52540279  0.31455200  0.69878010  1  0.116691  0  0.114406  0.129066  0  1.017026  0
H  H9  1  0.35466155  0.60720000  0.49039079  1  0.651054  0  0.363362  0.446098  0  0.828976  0
H  H10  1  0.85554033  0.39798475  0.48662682  1  0.646647  0  0.361182  0.442739  0  0.835492  0
H  H11  1  0.36775830  0.89254412  0.03881400  1  0.627407  0  0.345871  0.425839  0  0.871623  0
H  H12  1  0.86826287  0.09990032  0.00806830  1  0.6285  0  0.359799  0.442728  0  0.835546  0
C  C13  1  0.36051553  0.41211690  0.41272682  1  1.685695  0  0.27876  0.707725  0  4.171917  0
C  C14  1  0.35668957  0.38745641  0.60939537  1  1.558401  0  0.266127  0.684154  0  4.099913  0
C  C15  1  0.85658761  0.58545162  0.58330573  1  1.689929  0  0.279936  0.708303  0  4.171755  0
C  C16  1  0.86275145  0.60848133  0.38729632  1  1.66013  0  0.270171  0.633996  0  4.143897  0
C  C17  1  0.71804847  0.76586194  0.20438783  1  -0.021813  0  0.033927  0.200633  0  4.024212  0
C  C18  1  0.86202177  0.82374361  0.17914353  1  0.10344  0  -0.091841  -0.306305  0  3.816715  0
C  C19  1  0.71823115  0.70646397  0.27569823  1  0.046937  0  -0.056142  -0.123202  0  3.914065  0
C  C20  1  0.87572879  0.66906867  0.31423922  1  0.179713  0  0.082105  -0.058946  0  3.841193  0
C  C21  1  0.87031626  0.86325410  0.85951608  1  0.115124  0  0.009117  -0.12406  0  3.809854  0
C  C22  1  0.86943021  0.81981256  0.81593023  1  -0.208821  0  -0.001527  0.031988  0  4.241558  0
C  C23  1  0.86645228  0.77214453  0.76842633  1  0.096426  0  0.008252  0.008151  0  4.179744  0
C  C24  1  0.86239590  0.72787142  0.72507039  1  -0.070161  0  0.003995  -0.00311  0  4.181326  0
C  C25  1  0.85860672  0.67987986  0.67788187  1  -0.230325  0  -0.00196  0.039639  0  4.251399  0
C  C26  1  0.85632880  0.63595302  0.63468008  1  0.121699  0  -0.000504  -0.145091  0  3.833237  0
C  C27  1  0.36113126  0.36284791  0.36030719  1  0.132123  0  0.001802  -0.137697  0  3.823427  0
C  C28  1  0.36203522  0.31988880  0.31632624  1  -0.223751  0  -0.001878  0.036681  0  4.247983  0
C  C29  1  0.36256414  0.27283410  0.26835071  1  -0.120708  0  0.005227  0.00078  0  4.181483  0
C  C30  1  0.36323994  0.22928242  0.22438226  1  0.127057  0  0.005864  0.004479  0  4.177173  0
C  C31  1  0.36434743  0.18201823  0.17654936  1  -0.265173  0  -0.003916  0.032025  0  4.251863  0
C  C32  1  0.36587549  0.13870310  0.13283117  1  0.171917  0  0.00061  -0.136487  0  3.825336  0
C  C33  1  0.22013457  0.21351325  0.78047102  1  0.061584  0  -0.049613  -0.061735  0  3.921964  0
C  C34  1  0.37902343  0.17351954  0.81700344  1  0.154918  0  0.082201  -0.075503  0  3.835693  0
C  C35  1  0.21487995  0.27906470  0.71363098  1  0.009713  0  -0.060295  -0.006592  0  3.952906  0
C  C36  1  0.37264914  0.32316753  0.67887623  1  -0.030019  0  -0.075893  -0.214593  0  3.839106  0
C  C37  1  0.36813292  0.10744223  0.88641194  1  1.642341  0  0.273866  0.634563  0  4.143944  0
C  C38  1  0.36802304  0.08872479  0.08081080  1  1.689171  0  0.275371  0.703369  0  4.1744  0
C  C39  1  0.86523686  0.88697818  0.10866385  1  1.58403  0  0.265169  0.710451  0  4.086991  0
C  C40  1  0.86776241  0.91264120  0.91201106  1  1.698874  0  0.280374  0.699761  0  4.180596  0
N  N41  1  0.08415387  0.68118343  0.28704012  1  0.396642  0  0.060757  0.537545  0  4.232856  0
N  N42  1  0.58811158  0.19175648  0.79163638  1  0.397471  0  0.061134  0.538221  0  4.232287  0
Cl  Cl43  1  0.50878507  0.75364033  0.15502020  1  -0.147769  0  0.034861  -0.028205  0  1.527618  0
O  O44  1  0.52509642  0.41381762  0.58020423  1  -1.251755  0  -0.234948  -0.593697  0  2.309341  0
O  O45  1  0.18995993  0.42876431  0.43583598  1  -1.228994  0  -0.223491  -0.578036  0  2.281912  0
O  O46  1  0.03042899  0.58312637  0.41540544  1  -1.244858  0  -0.230719  -0.581481  0  2.365769  0
O  O47  1  0.18461529  0.41080384  0.58334500  1  -1.252277  0  -0.235013  -0.596444  0  2.31132  0
O  O48  1  0.02732209  0.56477465  0.56337912  1  -1.227531  0  -0.2228  -0.57605  0  2.284506  0
O  O49  1  0.53107414  0.43361209  0.43164993  1  -1.231439  0  -0.224671  -0.580115  0  2.282434  0
O  O50  1  0.35681786  0.54843717  0.49145402  1  -1.448292  0  -0.445949  -0.998396  0  2.20002  0
O  O51  1  0.68655914  0.56674165  0.56184345  1  -1.225875  0  -0.223517  -0.577015  0  2.284738  0
O  O52  1  0.68949807  0.58862814  0.41365925  1  -1.241366  0  -0.226931  -0.563876  0  2.315532  0
O  O53  1  0.85640819  0.44906215  0.50281181  1  -1.445396  0  -0.44597  -0.995474  0  2.185649  0
O  O54  1  0.19779770  0.07141750  0.05829391  1  -1.22064  0  -0.227792  -0.584712  0  2.281036  0
O  O55  1  0.53632952  0.08319965  0.91489417  1  -1.245993  0  -0.22685  -0.578187  0  2.367827  0
O  O56  1  0.69641919  0.93410312  0.93033141  1  -1.222716  0  -0.218158  -0.559668  0  2.284126  0
O  O57  1  0.53974284  0.06758537  0.06209815  1  -1.224838  0  -0.226939  -0.578986  0  2.271905  0
O  O58  1  0.69881053  0.91093916  0.07826652  1  -1.2632  0  -0.237227  -0.616694  0  2.389329  0
O  O59  1  0.19651453  0.08216452  0.91122965  1  -1.249553  0  -0.22196  -0.556714  0  2.323482  0
O  O60  1  0.36721110  0.94842073  0.00668680  1  -1.42854  0  -0.446251  -0.989777  0  2.18883  0
O  O61  1  0.03848883  0.91343538  0.08441806  1  -1.24711  0  -0.238919  -0.599946  0  2.27915  0
O  O62  1  0.03679336  0.92907183  0.93570388  1  -1.226049  0  -0.220873  -0.567714  0  2.284561  0
O  O63  1  0.86818839  0.04876547  0.99198441  1  -1.426716  0  -0.44689  -0.994581  0  2.182501  0
O  O64  1  0.18500093  0.73470511  0.30619589  1  -0.438933  0  -0.119486  -0.321703  0  1.884826  0
O  O65  1  0.14352314  0.63520985  0.24941754  1  -0.411221  0  -0.109972  -0.302943  0  1.874382  0
O  O66  1  0.67971402  0.24467320  0.81481029  1  -0.435555  0  -0.11621  -0.315069  0  1.862044  0
O  O67  1  0.65668202  0.15224405  0.74987094  1  -0.417963  0  -0.113736  -0.307045  0  1.841622  0
