# generated using pymatgen
data_CuH9C13N2O
_symmetry_space_group_name_H-M   'P 1'
_cell_length_a   8.90129070
_cell_length_b   9.02983857
_cell_length_c   13.77848222
_cell_angle_alpha   100.71486905
_cell_angle_beta   89.99967127
_cell_angle_gamma   90.00050833
_symmetry_Int_Tables_number   1
_chemical_formula_structural   CuH9C13N2O
_chemical_formula_sum   'Cu4 H36 C52 N8 O4'
_cell_volume   1088.16676016
_cell_formula_units_Z   4
loop_
 _symmetry_equiv_pos_site_id
 _symmetry_equiv_pos_as_xyz
  1  'x, y, z'
loop_
 _atom_site_type_symbol
 _atom_site_label
 _atom_site_symmetry_multiplicity
 _atom_site_fract_x
 _atom_site_fract_y
 _atom_site_fract_z
 _atom_site_occupancy
 _atom_site_pbe_bader_spin_density
 _atom_site_pbe_cm5_charge
 _atom_site_pbe_ddec_charge
 _atom_site_pbe_ddec_spin_density
 _atom_site_pbe_ddec_sum_bond_order
 _atom_site_pbe_magmom
Cu  Cu0  1  0.36651397  0.87725078  0.19968544  1  0  0.51569  0.354814  0  2.756271  0
Cu  Cu1  1  0.86649722  0.62276169  0.80031949  1  0  0.515689  0.354831  0  2.756355  0
Cu  Cu2  1  0.63349617  0.12275538  0.80032661  1  0  0.515636  0.354753  0  2.756413  0
Cu  Cu3  1  0.13349832  0.37724721  0.19968060  1  0  0.515669  0.354847  0  2.756235  0
H  H4  1  0.50623967  0.67641739  0.01734210  1  0  0.114141  0.083161  0  0.999541  0
H  H5  1  0.00622995  0.82358338  0.98265824  1  0  0.114162  0.083126  0  0.999525  0
H  H6  1  0.49375924  0.32358657  0.98266819  1  0  0.114077  0.083072  0  0.999616  0
H  H7  1  0.99377121  0.17640417  0.01733744  1  0  0.114118  0.083113  0  0.999504  0
H  H8  1  0.75122855  0.54628762  0.97684691  1  0  0.098588  0.10187  0  1.065642  0
H  H9  1  0.25122732  0.95370481  0.02315496  1  0  0.09861  0.101897  0  1.06559  0
H  H10  1  0.24876587  0.45371657  0.02315761  1  0  0.098642  0.101874  0  1.065794  0
H  H11  1  0.74876935  0.04629410  0.97684011  1  0  0.098565  0.101832  0  1.065759  0
H  H12  1  0.96504210  0.60264481  0.10015313  1  0  0.103819  0.100577  0  1.024872  0
H  H13  1  0.46503827  0.89734045  0.89984329  1  0  0.103809  0.100507  0  1.024896  0
H  H14  1  0.03495906  0.39735629  0.89984369  1  0  0.103835  0.100545  0  1.024895  0
H  H15  1  0.53495503  0.10265868  0.10014601  1  0  0.103763  0.100434  0  1.024996  0
H  H16  1  0.92114749  0.78640605  0.25533020  1  0  0.115034  0.127343  0  0.999473  0
H  H17  1  0.42113662  0.71358579  0.74466295  1  0  0.115079  0.127484  0  0.999394  0
H  H18  1  0.07886153  0.21359513  0.74466446  1  0  0.115081  0.127438  0  0.999411  0
H  H19  1  0.57885442  0.28640988  0.25532804  1  0  0.115068  0.127421  0  0.999367  0
H  H20  1  0.92499522  0.04407293  0.26657811  1  0  0.098582  0.098706  0  1.024362  0
H  H21  1  0.42496529  0.45592761  0.73342406  1  0  0.09856  0.098774  0  1.024275  0
H  H22  1  0.07501605  0.95593909  0.73342894  1  0  0.098557  0.098673  0  1.024341  0
H  H23  1  0.57501340  0.54406438  0.26657369  1  0  0.098562  0.098722  0  1.02435  0
H  H24  1  0.09694357  0.19692125  0.38389121  1  0  0.100052  0.101645  0  1.036913  0
H  H25  1  0.59691546  0.30308004  0.61611305  1  0  0.100064  0.101628  0  1.037181  0
H  H26  1  0.90306433  0.80308274  0.61611836  1  0  0.10008  0.101678  0  1.036926  0
H  H27  1  0.40306323  0.69691993  0.38388362  1  0  0.100096  0.101672  0  1.036888  0
H  H28  1  0.03411959  0.25882186  0.56282833  1  0  0.097979  0.092366  0  1.034006  0
H  H29  1  0.53410710  0.24117561  0.43717420  1  0  0.097978  0.092394  0  1.033915  0
H  H30  1  0.96589617  0.74117647  0.43718118  1  0  0.09797  0.092344  0  1.033928  0
H  H31  1  0.46589743  0.75882110  0.56281912  1  0  0.097967  0.092378  0  1.033935  0
H  H32  1  0.80195355  0.15398223  0.62525523  1  0  0.098448  0.095901  0  1.034  0
H  H33  1  0.30194938  0.34601872  0.37474094  1  0  0.098422  0.095873  0  1.033996  0
H  H34  1  0.19805547  0.84601720  0.37475516  1  0  0.098476  0.095975  0  1.034179  0
H  H35  1  0.69805065  0.65397714  0.62524500  1  0  0.098486  0.095993  0  1.034105  0
H  H36  1  0.62720120  0.99957648  0.50769335  1  0  0.104544  0.106624  0  1.038929  0
H  H37  1  0.12718951  0.50042106  0.49229809  1  0  0.104544  0.106632  0  1.038881  0
H  H38  1  0.37281456  0.00042327  0.49230910  1  0  0.104513  0.106568  0  1.038902  0
H  H39  1  0.87281052  0.49957016  0.50769083  1  0  0.104548  0.10661  0  1.038887  0
C  C40  1  0.27931173  0.06419541  0.19646797  1  0  -0.057718  -0.137006  0  3.886967  0
C  C41  1  0.77929440  0.43581518  0.80353760  1  0  -0.057786  -0.137018  0  3.886888  0
C  C42  1  0.72069392  0.93581311  0.80354150  1  0  -0.057742  -0.136919  0  3.886928  0
C  C43  1  0.22070001  0.56419259  0.19646232  1  0  -0.057694  -0.137034  0  3.886865  0
C  C44  1  0.60115051  0.69922577  0.06808007  1  0  0.046691  0.097439  0  3.924684  0
C  C45  1  0.10114327  0.80077344  0.93192115  1  0  0.0466  0.09743  0  3.924593  0
C  C46  1  0.39884616  0.30077709  0.93192935  1  0  0.046734  0.097504  0  3.924554  0
C  C47  1  0.89885339  0.19921975  0.06807531  1  0  0.04667  0.097439  0  3.924543  0
C  C48  1  0.73834498  0.62632274  0.04599103  1  0  -0.080547  -0.118441  0  3.958515  0
C  C49  1  0.23834158  0.87367076  0.95400959  1  0  -0.080578  -0.118513  0  3.958513  0
C  C50  1  0.26165280  0.37368252  0.95401508  1  0  -0.080655  -0.118513  0  3.958605  0
C  C51  1  0.76165508  0.12632256  0.04598326  1  0  -0.080459  -0.118387  0  3.958511  0
C  C52  1  0.85647826  0.65872900  0.11322195  1  0  -0.071227  -0.034403  0  3.962267  0
C  C53  1  0.35647067  0.84126435  0.88677747  1  0  -0.07125  -0.034216  0  3.962237  0
C  C54  1  0.14352514  0.34127534  0.88677896  1  0  -0.071209  -0.034313  0  3.962005  0
C  C55  1  0.64352375  0.15873016  0.11321409  1  0  -0.071155  -0.034113  0  3.962232  0
C  C56  1  0.83258968  0.76259632  0.20008252  1  0  -0.071247  -0.130964  0  3.921659  0
C  C57  1  0.33257967  0.73739927  0.79991294  1  0  -0.07123  -0.131201  0  3.9216  0
C  C58  1  0.16741597  0.23740689  0.79991822  1  0  -0.071258  -0.131048  0  3.921424  0
C  C59  1  0.66741587  0.26259189  0.20007744  1  0  -0.071341  -0.131209  0  3.9216  0
C  C60  1  0.69166092  0.83155935  0.21720120  1  0  0.101929  0.110658  0  3.972269  0
C  C61  1  0.19164144  0.66844072  0.78279615  1  0  0.102014  0.110715  0  3.972242  0
C  C62  1  0.30834698  0.16844045  0.78279981  1  0  0.101927  0.110662  0  3.972104  0
C  C63  1  0.80835073  0.33155700  0.21720021  1  0  0.101997  0.110745  0  3.972213  0
C  C64  1  0.64967716  0.93331135  0.31096700  1  0  0.152069  0.302546  0  3.980823  0
C  C65  1  0.14966209  0.56668408  0.68902479  1  0  0.151961  0.302352  0  3.980577  0
C  C66  1  0.35033298  0.06669042  0.68904153  1  0  0.151976  0.302436  0  3.980969  0
C  C67  1  0.85032783  0.43330945  0.31096301  1  0  0.151998  0.302405  0  3.981055  0
C  C68  1  0.76298437  0.01237499  0.37909280  1  0  -0.023814  -0.025013  0  4.02837  0
C  C69  1  0.26296358  0.48762568  0.62090275  1  0  -0.023837  -0.024831  0  4.028742  0
C  C70  1  0.23702690  0.98762681  0.62091501  1  0  -0.023752  -0.024913  0  4.028266  0
C  C71  1  0.73702073  0.51237134  0.37908262  1  0  -0.023708  -0.024741  0  4.028294  0
C  C72  1  0.89751357  0.06644995  0.34502199  1  0  -0.088823  -0.117655  0  3.976761  0
C  C73  1  0.39748750  0.43355043  0.65497881  1  0  -0.088824  -0.117869  0  3.976834  0
C  C74  1  0.10249882  0.93355745  0.65498732  1  0  -0.088914  -0.117782  0  3.976862  0
C  C75  1  0.60249793  0.56644298  0.34501187  1  0  -0.088995  -0.118  0  3.977054  0
C  C76  1  0.99409517  0.15450631  0.41130121  1  0  -0.08807  -0.070184  0  3.983712  0
C  C77  1  0.49407563  0.34549250  0.58870118  1  0  -0.088069  -0.070103  0  3.984001  0
C  C78  1  0.00591497  0.84550236  0.58870465  1  0  -0.088053  -0.070201  0  3.983697  0
C  C79  1  0.50591429  0.65449387  0.41129579  1  0  -0.088062  -0.07012  0  3.983733  0
C  C80  1  0.95848881  0.18853036  0.51163316  1  0  -0.075879  -0.051386  0  3.945851  0
C  C81  1  0.45847996  0.31146814  0.48837004  1  0  -0.075802  -0.051309  0  3.945719  0
C  C82  1  0.04152246  0.81147155  0.48837176  1  0  -0.07577  -0.051137  0  3.945801  0
C  C83  1  0.54151783  0.68852490  0.51163003  1  0  -0.07577  -0.051232  0  3.945909  0
C  C84  1  0.82728833  0.13141277  0.54643626  1  0  -0.083724  -0.068997  0  3.96825  0
C  C85  1  0.32727805  0.36858815  0.45356561  1  0  -0.083683  -0.069008  0  3.96794  0
C  C86  1  0.17271845  0.86858128  0.45356685  1  0  -0.083815  -0.069272  0  3.968659  0
C  C87  1  0.67271412  0.63141743  0.54643256  1  0  -0.08378  -0.069158  0  3.968631  0
C  C88  1  0.72936422  0.04445591  0.48068438  1  0  -0.077121  -0.087243  0  3.92558  0
C  C89  1  0.22934853  0.45554545  0.51931575  1  0  -0.077072  -0.087209  0  3.925529  0
C  C90  1  0.27064367  0.95553924  0.51931961  1  0  -0.077076  -0.087106  0  3.925369  0
C  C91  1  0.77063690  0.54445921  0.48067721  1  0  -0.077106  -0.087232  0  3.925497  0
N  N92  1  0.23006211  0.18587871  0.19801673  1  0  -0.438272  -0.334791  0  3.639404  0
N  N93  1  0.73004370  0.31413236  0.80199564  1  0  -0.438195  -0.334786  0  3.639378  0
N  N94  1  0.76994354  0.81413308  0.80199610  1  0  -0.438244  -0.334832  0  3.639421  0
N  N95  1  0.26995408  0.68587530  0.19800718  1  0  -0.438284  -0.334758  0  3.639249  0
N  N96  1  0.57658449  0.79959037  0.15162575  1  0  -0.341217  -0.229824  0  3.587303  0
N  N97  1  0.07657372  0.70041327  0.84837326  1  0  -0.341219  -0.229796  0  3.587363  0
N  N98  1  0.42342004  0.20041149  0.84838062  1  0  -0.341187  -0.229802  0  3.587022  0
N  N99  1  0.92342519  0.29958442  0.15162382  1  0  -0.341255  -0.229883  0  3.587228  0
O  O100  1  0.51286890  0.94953498  0.33105441  1  0  -0.249889  -0.367732  0  2.329422  0
O  O101  1  0.01284824  0.55046150  0.66894096  1  0  -0.249911  -0.367756  0  2.329017  0
O  O102  1  0.48714125  0.05045783  0.66895144  1  0  -0.249874  -0.367725  0  2.329389  0
O  O103  1  0.98713494  0.44953985  0.33104937  1  0  -0.249905  -0.367745  0  2.329458  0
