# generated using pymatgen
data_CuH14C18(NO)4
_symmetry_space_group_name_H-M   'P 1'
_cell_length_a   9.60892378
_cell_length_b   9.93961585
_cell_length_c   10.22248999
_cell_angle_alpha   96.91446543
_cell_angle_beta   90.88842597
_cell_angle_gamma   116.93555822
_symmetry_Int_Tables_number   1
_chemical_formula_structural   CuH14C18(NO)4
_chemical_formula_sum   'Cu2 H28 C36 N8 O8'
_cell_volume   861.38254739
_cell_formula_units_Z   2
loop_
 _symmetry_equiv_pos_site_id
 _symmetry_equiv_pos_as_xyz
  1  'x, y, z'
loop_
 _atom_site_type_symbol
 _atom_site_label
 _atom_site_symmetry_multiplicity
 _atom_site_fract_x
 _atom_site_fract_y
 _atom_site_fract_z
 _atom_site_occupancy
 _atom_site_hle17_bader_charge
 _atom_site_hle17_bader_spin_density
 _atom_site_hle17_ddec_charge
 _atom_site_hle17_ddec_spin_density
 _atom_site_hle17_ddec_sum_bond_order
 _atom_site_hle17_magmom
 _atom_site_hse06_10hf_ddec_charge
 _atom_site_hse06_10hf_ddec_spin_density
 _atom_site_hse06_10hf_ddec_sum_bond_order
 _atom_site_hse06_10hf_magmom
 _atom_site_hse06_ddec_charge
 _atom_site_hse06_ddec_spin_density
 _atom_site_hse06_ddec_sum_bond_order
 _atom_site_hse06_magmom
 _atom_site_pbe_cm5_charge
 _atom_site_pbe_ddec_charge
 _atom_site_pbe_ddec_spin_density
 _atom_site_pbe_ddec_sum_bond_order
 _atom_site_pbe_magmom
Cu  Cu0  1  0.32328183  0.00675270  0.37338662  1  1.139214  -0.514686  0.873808  -0.73735  1.772044  -0.513  0.850554  -0.810637  2.155918  -0.625  0.941732  -0.887617  2.085406  -0.712  0.749442  0.793342  -0.756495  2.203685  -0.571
Cu  Cu1  1  0.67671825  0.99324586  0.62661309  1  1.13927  0.514709  0.873906  0.737375  1.772028  0.513  0.850561  0.810637  2.156032  0.625  0.941788  0.887631  2.085456  0.712  0.749442  0.793295  0.756494  2.203761  0.571
H  H2  1  0.24908145  0.32892592  0.13352531  1  0.048224  0.000738  0.138046  0.000425  0.921265  0.001  0.1506  0.00011  0.981484  0.0  0.152748  8.5e-05  0.980695  0.0  0.118998  0.149384  0.000124  0.981723  0.0
H  H3  1  0.75092178  0.67107492  0.86647570  1  0.048249  -0.000738  0.138069  -0.000425  0.921253  -0.001  0.150628  -0.000111  0.981462  0.0  0.152785  -8.5e-05  0.980677  0.0  0.119016  0.149411  -0.000124  0.981703  0.0
H  H4  1  0.22422042  0.17686060  0.00890730  1  0.029921  0.000739  0.149307  0.000438  0.903186  0.001  0.1636  0.000131  0.956896  0.0  0.166148  0.000103  0.9557  0.0  0.124774  0.161676  0.000137  0.958163  0.0
H  H5  1  0.77578495  0.82314253  0.99108814  1  0.03  -0.00074  0.149361  -0.000439  0.903135  -0.001  0.163626  -0.000131  0.956881  0.0  0.166185  -0.000103  0.955686  0.0  0.124812  0.161705  -0.000137  0.958148  0.0
H  H6  1  0.18587487  0.59990464  0.64058234  1  0.046982  0.000279  0.145582  0.0002  0.919998  0.0  0.157594  -2e-05  0.977877  0.0  0.159642  1.9e-05  0.977576  0.0  0.120156  0.156091  -5.6e-05  0.978392  0.0
H  H7  1  0.81411532  0.40009282  0.35941415  1  0.046875  -0.000279  0.145602  -0.0002  0.920013  0.0  0.157631  2.1e-05  0.977895  0.0  0.15967  -1.9e-05  0.977594  0.0  0.120171  0.156124  5.6e-05  0.978415  0.0
H  H8  1  0.17273168  0.73578386  0.76388644  1  0.094754  -0.000452  0.150142  -0.000234  0.939376  0.0  0.160591  -0.000351  0.998412  0.0  0.16315  -0.00022  0.997412  0.0  0.118207  0.158777  -0.000485  0.999311  0.0
H  H9  1  0.82726889  0.26421355  0.23611608  1  0.094771  0.000452  0.150118  0.000234  0.939422  0.0  0.160614  0.000351  0.998433  0.0  0.163163  0.00022  0.997433  0.0  0.118239  0.158801  0.000485  0.999333  0.0
H  H10  1  0.10342117  0.68675628  0.28831543  1  0.0565  -0.001726  0.089809  -0.000832  0.948006  -0.002  0.099  -0.000616  1.009349  -0.001  0.101161  -0.000429  1.007345  -0.001  0.119853  0.097044  -0.00076  1.011102  -0.002
H  H11  1  0.89657998  0.31324456  0.71168555  1  0.05651  0.001728  0.089812  0.000833  0.947966  0.002  0.099004  0.000616  1.009304  0.001  0.101164  0.000429  1.007303  0.001  0.119841  0.097044  0.00076  1.011056  0.002
H  H12  1  0.07139177  0.48140214  0.10531056  1  0.010553  -0.000734  0.099249  -0.00039  0.968588  0.0  0.109419  -0.000339  1.031689  0.0  0.111266  -0.000245  1.033326  0.0  0.103006  0.107677  -0.000414  1.031484  0.0
H  H13  1  0.92860780  0.51859756  0.89469123  1  0.010526  0.000733  0.099283  0.000389  0.968581  0.0  0.109449  0.000339  1.031689  0.0  0.111298  0.000245  1.033323  0.0  0.103007  0.107706  0.000414  1.031484  0.0
H  H14  1  0.50226729  0.80581573  0.96592879  1  0.044794  -0.000935  0.11568  -0.000436  0.963171  -0.001  0.125766  -0.000339  1.023196  0.0  0.129359  -0.000257  1.022168  0.0  0.109543  0.122938  -0.000371  1.024523  -0.001
H  H15  1  0.49773071  0.19418284  0.03407089  1  0.044783  0.000933  0.115676  0.000434  0.963158  0.001  0.125745  0.000339  1.023202  0.0  0.12934  0.000256  1.022169  0.0  0.109542  0.122919  0.000371  1.024528  0.001
H  H16  1  0.51532385  0.99431296  0.15548452  1  0.099511  -0.001935  0.094223  -0.000979  0.948349  -0.002  0.102338  -0.00082  1.010698  -0.001  0.104494  -0.000608  1.008382  -0.001  0.120967  0.100416  -0.001009  1.012745  -0.002
H  H17  1  0.48467520  0.00568561  0.84451322  1  0.099493  0.001936  0.094211  0.000979  0.948347  0.002  0.102313  0.00082  1.01071  0.001  0.104473  0.000608  1.008381  0.001  0.12095  0.100392  0.001009  1.012757  0.002
H  H18  1  0.16040206  0.39566006  0.91342477  1  -0.002829  -8.4e-05  0.085049  -8.3e-05  0.971456  0.0  0.096606  -3.4e-05  1.036177  0.0  0.098848  -2.8e-05  1.036067  0.0  0.100065  0.094884  -6.7e-05  1.036546  0.0
H  H19  1  0.83959697  0.60433851  0.08657590  1  -0.002799  8.2e-05  0.085063  8.2e-05  0.97144  0.0  0.096627  3.4e-05  1.036146  0.0  0.098868  2.7e-05  1.036033  0.0  0.100068  0.094906  6.7e-05  1.036516  0.0
H  H20  1  0.47549309  0.62235625  0.82215196  1  0.057517  1e-05  0.104697  0.000219  0.976054  0.0  0.115667  0.000245  1.037978  0.0  0.119789  0.000143  1.035296  0.0  0.103589  0.112753  0.000331  1.039569  0.0
H  H21  1  0.52450595  0.37764231  0.17784969  1  0.057501  -9e-06  0.104694  -0.000218  0.976054  0.0  0.115688  -0.000245  1.03794  0.0  0.11981  -0.000143  1.035258  0.0  0.103586  0.112768  -0.000331  1.039543  0.0
H  H22  1  0.11771439  0.21858761  0.75036197  1  0.057823  -0.000867  0.119366  -0.000468  0.966227  0.0  0.12892  -0.000393  1.02738  0.0  0.131974  -0.000276  1.026456  0.0  0.108647  0.126638  -0.000477  1.028241  -0.001
H  H23  1  0.88228569  0.78141096  0.24963774  1  0.0578  0.000863  0.119329  0.000466  0.966332  0.0  0.128873  0.000394  1.027497  0.0  0.131925  0.000276  1.026581  0.0  0.108633  0.126596  0.000477  1.028358  0.001
H  H24  1  0.11506628  0.02892522  0.57430682  1  0.10305  -0.001881  0.098145  -0.000893  0.941524  -0.002  0.10512  -0.000665  1.005299  -0.001  0.107234  -0.000479  1.003183  -0.001  0.122818  0.103295  -0.000835  1.007175  -0.001
H  H25  1  0.88493383  0.97107563  0.42569218  1  0.103024  0.001885  0.098119  0.000895  0.941527  0.002  0.105085  0.000665  1.00531  0.001  0.107203  0.000479  1.003196  0.001  0.122805  0.10326  0.000835  1.007187  0.001
H  H26  1  0.56105265  0.31732682  0.47828220  1  0.053329  -0.002354  0.085428  -0.001214  0.950756  -0.002  0.094043  -0.001003  1.014399  -0.002  0.095193  -0.000733  1.01332  -0.001  0.118601  0.092892  -0.00117  1.015401  -0.002
H  H27  1  0.43894697  0.68267518  0.52171497  1  0.053307  0.002358  0.085435  0.001216  0.950845  0.002  0.094036  0.001003  1.014496  0.002  0.095185  0.000733  1.01342  0.001  0.118607  0.092886  0.00117  1.015499  0.002
H  H28  1  0.58709450  0.52227668  0.65418987  1  0.064742  -0.001025  0.113436  -0.000597  0.967171  -0.001  0.118814  -0.000494  1.036071  -0.001  0.122258  -0.000357  1.0347  0.0  0.105149  0.116364  -0.000615  1.037081  -0.001
H  H29  1  0.41290558  0.47772188  0.34581081  1  0.064739  0.001022  0.113406  0.000595  0.967192  0.001  0.118813  0.000495  1.036076  0.001  0.122258  0.000356  1.034705  0.0  0.10515  0.116363  0.000615  1.037085  0.001
C  C30  1  0.19883901  0.11664997  0.20704465  1  1.613308  0.00618  0.682955  0.004661  3.901602  0.008  0.641328  0.00088  4.21283  0.003  0.675562  0.00117  4.20938  0.003  0.199937  0.618178  0.000524  4.213788  0.003
C  C31  1  0.80116207  0.88334632  0.79295187  1  1.613313  -0.00618  0.682978  -0.004661  3.901575  -0.008  0.641381  -0.000886  4.212741  -0.003  0.675629  -0.001168  4.209296  -0.003  0.199982  0.618225  -0.000524  4.213703  -0.003
C  C32  1  0.17877173  0.20592724  0.10047441  1  0.261439  -0.011276  -0.325464  -0.008905  3.744647  -0.009  -0.359017  -0.00518  3.977023  -0.005  -0.364477  -0.003494  3.980115  -0.004  -0.135643  -0.355183  -0.006246  3.974822  -0.006
C  C33  1  0.82123151  0.79407361  0.89952367  1  0.26155  0.011274  -0.325528  0.008903  3.74488  0.009  -0.359058  0.005178  3.977258  0.005  -0.364572  0.003493  3.980411  0.004  -0.135681  -0.355226  0.006245  3.975071  0.006
C  C34  1  0.01696513  0.17188588  0.07358643  1  0.754432  0.00022  0.358349  0.000347  3.711054  0.0  0.344514  -0.000623  3.997492  -0.001  0.356058  -0.000366  4.012872  0.0  0.191455  0.336475  -0.000794  3.987407  -0.001
C  C35  1  0.98302818  0.82811157  0.92640913  1  0.753728  -0.000212  0.358348  -0.00034  3.710629  0.0  0.344511  0.000619  3.997064  0.001  0.356077  0.000366  4.012456  0.0  0.191408  0.33647  0.000794  3.986983  0.001
C  C36  1  0.26347748  0.82241189  0.58363171  1  1.618817  0.006505  0.711853  0.004842  3.859831  0.008  0.676758  0.000788  4.160435  0.004  0.714653  0.001133  4.152098  0.003  0.219895  0.651131  0.000446  4.16474  0.004
C  C37  1  0.73652213  0.17759009  0.41637231  1  1.618977  -0.006508  0.711732  -0.004844  3.860069  -0.008  0.676611  -0.000788  4.160737  -0.004  0.71449  -0.001131  4.152413  -0.003  0.219818  0.650986  -0.000446  4.165033  -0.004
C  C38  1  0.15235187  0.69251655  0.65749166  1  0.228814  -0.014408  -0.333002  -0.011133  3.731794  -0.012  -0.362773  -0.006619  3.952946  -0.007  -0.369689  -0.004548  3.956333  -0.005  -0.137758  -0.357943  -0.008236  3.950987  -0.009
C  C39  1  0.84764409  0.30748431  0.34250923  1  0.228786  0.01441  -0.332946  0.011134  3.731573  0.012  -0.362832  0.006614  3.952839  0.007  -0.369706  0.004541  3.956177  0.005  -0.137801  -0.358002  0.008237  3.950888  0.009
C  C40  1  0.98790357  0.63246374  0.61613732  1  0.783557  -9.3e-05  0.368432  -0.000138  3.702603  0.0  0.356107  -0.000496  3.982868  0.0  0.369123  -0.000335  3.997405  0.0  0.188885  0.346956  -0.000608  3.973824  0.0
C  C41  1  0.01210292  0.36754621  0.38386971  1  0.783765  8.6e-05  0.36837  0.000133  3.70285  0.0  0.356071  0.000495  3.983156  0.0  0.369076  0.000338  3.99768  0.0  0.18886  0.346925  0.000608  3.974109  0.0
C  C42  1  0.18761941  0.70684752  0.21369257  1  0.517033  0.010088  0.13241  0.00707  3.704577  0.007  0.101444  0.001073  3.962051  0.002  0.111569  0.002073  3.980381  0.003  0.046228  0.095666  0.000333  3.949337  0.001
C  C43  1  0.81238120  0.29315217  0.78630924  1  0.5168  -0.010115  0.132404  -0.007092  3.704588  -0.007  0.101447  -0.001073  3.962061  -0.002  0.111568  -0.002077  3.980402  -0.003  0.04623  0.095665  -0.000333  3.949338  -0.001
C  C44  1  0.17193054  0.59376607  0.11223503  1  0.059736  -0.011823  -0.175964  -0.008841  3.718597  -0.009  -0.192789  -0.003435  3.966936  -0.004  -0.20215  -0.003151  3.988504  -0.004  -0.088404  -0.187201  -0.00349  3.952727  -0.004
C  C45  1  0.82807007  0.40623363  0.88776580  1  0.059833  0.011852  -0.176016  0.008862  3.718532  0.009  -0.192837  0.003433  3.966871  0.004  -0.202197  0.003155  3.988439  0.004  -0.088413  -0.187249  0.003489  3.952663  0.004
C  C46  1  0.28508276  0.62402641  0.01934651  1  -0.042587  0.009602  0.135556  0.006977  3.810894  0.007  0.149748  0.002379  4.040927  0.002  0.156751  0.002503  4.062073  0.003  0.005033  0.145384  0.002137  4.026332  0.002
C  C47  1  0.71491677  0.37597101  0.98065501  1  -0.04308  -0.00963  0.135624  -0.006998  3.810907  -0.007  0.1498  -0.002376  4.040949  -0.002  0.156803  -0.002508  4.062096  -0.003  0.005054  0.145433  -0.002136  4.026356  -0.002
C  C48  1  0.41130440  0.77220803  0.03520836  1  0.096988  -0.012376  -0.155872  -0.009314  3.663873  -0.01  -0.170786  -0.00371  3.903343  -0.004  -0.17982  -0.00347  3.923043  -0.004  -0.077901  -0.16521  -0.003836  3.890806  -0.004
C  C49  1  0.58869414  0.22779168  0.96479146  1  0.097378  0.012409  -0.155883  0.009338  3.663891  0.01  -0.170781  0.003706  3.903335  0.004  -0.179811  0.003478  3.923036  0.004  -0.077915  -0.165208  0.003836  3.8908  0.004
C  C50  1  0.41905425  0.87918479  0.13914755  1  0.492164  0.008776  0.145821  0.005842  3.670312  0.006  0.115097  0.000202  3.924923  0.001  0.125472  0.001296  3.942628  0.002  0.051753  0.10863  -0.000698  3.913549  0.0
C  C51  1  0.58094583  0.12081377  0.86085118  1  0.492167  -0.008801  0.145819  -0.005861  3.670322  -0.006  0.115124  -0.0002  3.924888  -0.001  0.125499  -0.0013  3.942601  -0.002  0.051786  0.108651  0.000697  3.913512  0.0
C  C52  1  0.26696264  0.50315165  0.91441130  1  -0.03108  0.002382  -0.116746  0.001743  3.733248  0.001  -0.135128  0.000657  3.982285  0.0  -0.139321  0.000655  4.003192  0.0  -0.086712  -0.132803  0.000582  3.968305  0.0
C  C53  1  0.73303482  0.49684578  0.08558725  1  -0.031057  -0.002374  -0.116741  -0.001738  3.733201  -0.001  -0.135125  -0.000662  3.982248  0.0  -0.139316  -0.000654  4.003152  0.0  -0.086686  -0.132794  -0.000582  3.96827  0.0
C  C54  1  0.37041111  0.51390680  0.82298316  1  0.05266  0.002366  -0.091748  0.001705  3.696718  0.001  -0.110147  0.00095  3.940761  0.001  -0.111445  0.000818  3.958519  0.001  -0.078073  -0.108669  0.000882  3.927865  0.001
C  C55  1  0.62958895  0.48609175  0.17701949  1  0.052647  -0.002378  -0.091788  -0.001713  3.696715  -0.001  -0.110187  -0.000944  3.940758  -0.001  -0.111487  -0.000819  3.958516  -0.001  -0.078111  -0.108711  -0.000882  3.927865  -0.001
C  C56  1  0.35481296  0.39142687  0.72068271  1  -0.022984  0.010282  0.127412  0.007479  3.811539  0.007  0.142259  0.002404  4.041692  0.002  0.14763  0.002565  4.06365  0.003  0.004834  0.138926  0.002228  4.026192  0.002
C  C57  1  0.64518865  0.60857054  0.27931787  1  -0.023036  -0.010325  0.127358  -0.00751  3.811607  -0.007  0.142192  -0.002394  4.041794  -0.002  0.147562  -0.002582  4.063752  -0.003  0.00488  0.138862  -0.002228  4.026297  -0.002
C  C58  1  0.22105168  0.24891081  0.69506220  1  0.062043  -0.013398  -0.149884  -0.010042  3.667511  -0.01  -0.16633  -0.00366  3.906919  -0.004  -0.17421  -0.003413  3.926718  -0.004  -0.078574  -0.161111  -0.003803  3.893296  -0.004
C  C59  1  0.77895102  0.75108889  0.30493671  1  0.062066  0.013458  -0.149758  0.010086  3.667562  0.01  -0.166187  0.00365  3.90695  0.004  -0.17406  0.003433  3.926742  0.004  -0.078543  -0.160966  0.003802  3.893328  0.004
C  C60  1  0.21717938  0.14001888  0.59479041  1  0.489529  0.010536  0.144251  0.007422  3.661801  0.008  0.115321  0.001078  3.914293  0.002  0.125032  0.002074  3.932251  0.003  0.051534  0.109173  0.000243  3.902435  0.001
C  C61  1  0.78282228  0.85998083  0.40520652  1  0.489545  -0.010593  0.144253  -0.007466  3.661707  -0.008  0.115319  -0.001076  3.914187  -0.002  0.125024  -0.002089  3.932155  -0.003  0.051536  0.109171  -0.000243  3.902324  -0.001
C  C62  1  0.46685771  0.30079502  0.54210195  1  0.543567  0.010122  0.139313  0.006774  3.687118  0.007  0.109507  0.000379  3.943505  0.001  0.119172  0.001533  3.963123  0.002  0.04914  0.103711  -0.000536  3.93032  0.0
C  C63  1  0.53314033  0.69920583  0.45789800  1  0.543563  -0.010174  0.139334  -0.006815  3.687189  -0.007  0.109543  -0.000378  3.943567  -0.001  0.119209  -0.001548  3.96319  -0.002  0.049142  0.103745  0.000536  3.930383  0.0
C  C64  1  0.47962540  0.41502214  0.64111659  1  0.048198  -0.013358  -0.156926  -0.010001  3.688564  -0.01  -0.173718  -0.003921  3.934  -0.005  -0.182351  -0.003561  3.954806  -0.004  -0.079355  -0.168428  -0.004114  3.920083  -0.005
C  C65  1  0.52037472  0.58497870  0.35888437  1  0.048224  0.01341  -0.156927  0.01004  3.688581  0.01  -0.173773  0.003913  3.934052  0.005  -0.182407  0.003581  3.95486  0.004  -0.079392  -0.168482  0.004114  3.920138  0.005
N  N66  1  0.30965248  0.84732771  0.22777157  1  -1.208981  -0.103698  -0.289279  -0.078387  3.31338  -0.095  -0.239823  -0.052604  3.604134  -0.068  -0.270922  -0.043788  3.626113  -0.06  -0.345057  -0.221455  -0.056569  3.590855  -0.071
N  N67  1  0.69034656  0.15267086  0.77222812  1  -1.208756  0.103708  -0.289283  0.078395  3.313464  0.095  -0.23983  0.052601  3.604229  0.068  -0.27094  0.043786  3.626214  0.06  -0.345055  -0.221443  0.056569  3.590913  0.071
N  N68  1  0.33807498  0.16497724  0.51909749  1  -1.227648  -0.110955  -0.295499  -0.083814  3.331534  -0.101  -0.247723  -0.054752  3.625214  -0.071  -0.279385  -0.045281  3.648125  -0.062  -0.346778  -0.228739  -0.059149  3.611497  -0.074
N  N69  1  0.66192409  0.83502361  0.48090150  1  -1.227599  0.110993  -0.295557  0.083844  3.331462  0.102  -0.247748  0.054756  3.625129  0.071  -0.279419  0.04529  3.648046  0.062  -0.346785  -0.228744  0.059148  3.611383  0.074
N  N70  1  0.85515023  0.58362094  0.58366147  1  -1.180923  -0.000183  -0.439641  -7.7e-05  2.580265  0.0  -0.416383  2.5e-05  2.801267  0.0  -0.427661  3.8e-05  2.814274  0.0  -0.31517  -0.408878  1e-05  2.793008  0.0
N  N71  1  0.14484056  0.41638221  0.41634353  1  -1.18105  0.000189  -0.439565  8.2e-05  2.580814  0.0  -0.416297  -2.4e-05  2.801809  0.0  -0.427574  -4.1e-05  2.814818  0.0  -0.315145  -0.408792  -1.1e-05  2.793549  0.0
N  N72  1  0.88643606  0.14452735  0.05348690  1  -1.145802  -0.003367  -0.42755  -0.002425  2.595313  -0.003  -0.406204  -0.001043  2.819152  -0.001  -0.417578  -0.000635  2.832745  -0.001  -0.311653  -0.398345  -0.001876  2.810233  -0.002
N  N73  1  0.11357657  0.85547573  0.94651550  1  -1.145312  0.00336  -0.427597  0.002419  2.594648  0.003  -0.406249  0.001047  2.818481  0.001  -0.417631  0.000632  2.832076  0.001  -0.311615  -0.398389  0.001877  2.809561  0.002
O  O74  1  0.34281282  0.15047042  0.23642055  1  -1.133611  -0.122819  -0.606556  -0.089136  2.000748  -0.114  -0.581069  -0.056053  2.273216  -0.079  -0.62256  -0.042203  2.269023  -0.063  -0.323894  -0.552272  -0.06368  2.275075  -0.087
O  O75  1  0.65718618  0.84952586  0.76357887  1  -1.133587  0.12281  -0.606592  0.089128  2.000784  0.114  -0.581106  0.056057  2.273266  0.079  -0.622611  0.042198  2.269059  0.063  -0.323913  -0.5523  0.063677  2.275115  0.087
O  O76  1  0.08232599  0.02271606  0.25493405  1  -1.189982  0.000263  -0.613742  0.000308  1.944396  -0.001  -0.581967  0.000558  2.181834  -0.001  -0.607513  0.001201  2.175055  0.001  -0.316051  -0.563633  8.8e-05  2.185751  -0.001
O  O77  1  0.91767407  0.97728024  0.74505854  1  -1.190047  -0.000263  -0.613735  -0.000308  1.944357  0.001  -0.581987  -0.000553  2.181831  0.001  -0.607519  -0.001202  2.174998  -0.001  -0.316065  -0.563646  -8.9e-05  2.185742  0.001
O  O78  1  0.20134423  0.84190243  0.48055338  1  -1.138375  -0.129808  -0.604232  -0.094421  2.094191  -0.122  -0.580146  -0.061651  2.378602  -0.089  -0.62189  -0.046694  2.369784  -0.071  -0.315067  -0.551663  -0.07124  2.38428  -0.098
O  O79  1  0.79866054  0.15809726  0.51944653  1  -1.138379  0.129811  -0.604211  0.094421  2.09425  0.122  -0.580093  0.061654  2.378658  0.089  -0.621852  0.046693  2.369861  0.071  -0.315081  -0.551598  0.071246  2.384309  0.098
O  O80  1  0.40226164  0.89394200  0.63010832  1  -1.204383  -0.000554  -0.626221  -4.1e-05  2.032352  0.0  -0.606689  0.000693  2.304499  0.001  -0.635034  0.00099  2.291075  0.001  -0.316438  -0.586844  0.000416  2.313409  0.0
O  O81  1  0.59773538  0.10606111  0.36990069  1  -1.204509  0.000555  -0.626172  4.2e-05  2.032428  0.0  -0.606628  -0.000689  2.304598  -0.001  -0.634962  -0.000986  2.29119  -0.001  -0.316346  -0.586784  -0.000415  2.313503  0.0
