# generated using pymatgen
data_Cd2H58C59(N3O4)2
_symmetry_space_group_name_H-M   'P 1'
_cell_length_a   12.48141468
_cell_length_b   12.48132769
_cell_length_c   23.01506885
_cell_angle_alpha   80.72187539
_cell_angle_beta   80.72134044
_cell_angle_gamma   61.56835751
_symmetry_Int_Tables_number   1
_chemical_formula_structural   Cd2H58C59(N3O4)2
_chemical_formula_sum   'Cd4 H116 C118 N12 O16'
_cell_volume   3096.92041387
_cell_formula_units_Z   2
loop_
 _symmetry_equiv_pos_site_id
 _symmetry_equiv_pos_as_xyz
  1  'x, y, z'
loop_
 _atom_site_type_symbol
 _atom_site_label
 _atom_site_symmetry_multiplicity
 _atom_site_fract_x
 _atom_site_fract_y
 _atom_site_fract_z
 _atom_site_occupancy
 _atom_site_pbe_bader_charge
 _atom_site_pbe_bader_spin_density
 _atom_site_pbe_cm5_charge
 _atom_site_pbe_ddec_charge
 _atom_site_pbe_ddec_spin_density
 _atom_site_pbe_ddec_sum_bond_order
 _atom_site_pbe_magmom
Cd  Cd0  1  0.77122454  0.63965778  0.14724585  1  1.232563  0  0.750046  0.774904  0  2.238408  0
Cd  Cd1  1  0.36034383  0.22877750  0.35275064  1  1.232446  0  0.750062  0.775017  0  2.238288  0
Cd  Cd2  1  0.22876816  0.36034842  0.85275217  1  1.232658  0  0.750077  0.774982  0  2.2383  0
Cd  Cd3  1  0.63965892  0.77122079  0.64724938  1  1.232556  0  0.750064  0.774992  0  2.23829  0
H  H4  1  0.53882784  0.48876300  0.29097257  1  0.063581  0  0.101463  0.124385  0  1.001468  0
H  H5  1  0.65833256  0.47342819  0.32958631  1  0.044067  0  0.091217  0.103196  0  1.033126  0
H  H6  1  0.33378984  0.62718673  0.31884798  1  0.08157  0  0.098929  0.112574  0  1.02386  0
H  H7  1  0.18276395  0.79513510  0.37975066  1  0.037594  0  0.090176  0.080567  0  1.016275  0
H  H8  1  0.25451338  0.89907923  0.43652988  1  0.047965  0  0.095831  0.097587  0  1.014648  0
H  H9  1  0.62547014  0.67398294  0.36888449  1  0.044829  0  0.095946  0.100686  0  1.015588  0
H  H10  1  0.58911097  0.81598366  0.43337629  1  0.048133  0  0.096193  0.111915  0  1.001832  0
H  H11  1  0.45830938  0.85481170  0.48647372  1  0.038516  0  0.093475  0.114124  0  1.023274  0
H  H12  1  0.48012564  0.82804415  0.14219963  1  0.13866  0  0.121076  0.104385  0  0.998725  0
H  H13  1  0.32531168  0.93930131  0.06804261  1  0.05661  0  0.106417  0.111833  0  0.995674  0
H  H14  1  0.62504076  0.82142874  0.93064822  1  0.058579  0  0.109827  0.117835  0  0.98797  0
H  H15  1  0.76767772  0.72301481  0.01098440  1  0.167719  0  0.116111  0.099253  0  1.025662  0
H  H16  1  0.41045553  0.99096631  0.90920596  1  0.062579  0  0.09825  0.104354  0  0.992944  0
H  H17  1  0.28604199  0.01590097  0.96375958  1  0.032489  0  0.096776  0.101967  0  0.972772  0
H  H18  1  0.30076655  0.89237543  0.88374425  1  0.050113  0  0.088195  0.084021  0  1.03434  0
H  H19  1  0.44471926  0.77765444  0.90418388  1  0.039614  0  0.091799  0.087383  0  0.997602  0
H  H20  1  0.20291212  0.86011475  0.98476889  1  0.045266  0  0.092081  0.089559  0  0.982344  0
H  H21  1  0.34678160  0.74579747  0.00608413  1  0.029561  0  0.093906  0.097838  0  1.004578  0
H  H22  1  0.08455672  0.80764031  0.92891365  1  0.069168  0  0.105403  0.111208  0  0.991116  0
H  H23  1  0.07005046  0.64269457  0.88585538  1  0.132401  0  0.117854  0.094838  0  0.999384  0
H  H24  1  0.43462569  0.40283011  0.90390410  1  0.106481  0  0.112745  0.07878  0  1.028783  0
H  H25  1  0.46392643  0.55331942  0.94952664  1  0.099222  0  0.107161  0.11573  0  1.006203  0
H  H26  1  0.60828601  0.85108779  0.23648534  1  0.113694  0  0.119059  0.093074  0  0.985419  0
H  H27  1  0.59730988  0.03806379  0.26814447  1  0.163777  0  0.111306  0.144155  0  1.025198  0
H  H28  1  0.94667334  0.94979052  0.16598804  1  0.05345  0  0.100974  0.103949  0  1.019741  0
H  H29  1  0.94036879  0.77014935  0.13695413  1  0.098209  0  0.109137  0.077667  0  1.05204  0
H  H30  1  0.73409445  0.19761335  0.19616814  1  0.046549  0  0.095905  0.100386  0  0.988364  0
H  H31  1  0.69178736  0.16482734  0.27062228  1  0.040975  0  0.097318  0.106258  0  0.993426  0
H  H32  1  0.95676217  0.08260873  0.21282192  1  0.022713  0  0.086007  0.073949  0  0.996687  0
H  H33  1  0.51123465  0.46118033  0.20902485  1  0.06341  0  0.101521  0.124454  0  1.001656  0
H  H34  1  0.52657082  0.34168036  0.17041200  1  0.044149  0  0.091258  0.103268  0  1.033174  0
H  H35  1  0.37281707  0.66621912  0.18114508  1  0.081663  0  0.098923  0.112509  0  1.023826  0
H  H36  1  0.20486849  0.81724406  0.12024381  1  0.037576  0  0.090181  0.080609  0  1.016277  0
H  H37  1  0.10092136  0.74549046  0.06346784  1  0.048213  0  0.095804  0.097543  0  1.014606  0
H  H38  1  0.32601460  0.37453532  0.13111864  1  0.044362  0  0.09599  0.100754  0  1.015607  0
H  H39  1  0.18401369  0.41088442  0.06662986  1  0.04781  0  0.096162  0.111878  0  1.001864  0
H  H40  1  0.14519074  0.54168050  0.01352902  1  0.038557  0  0.093505  0.11414  0  1.023161  0
H  H41  1  0.17195984  0.51988148  0.35779328  1  0.138408  0  0.121139  0.104427  0  0.998892  0
H  H42  1  0.06070049  0.67469604  0.43194899  1  0.05643  0  0.106382  0.111705  0  0.995586  0
H  H43  1  0.17857255  0.37497074  0.56934398  1  0.0586  0  0.10988  0.117866  0  0.98795  0
H  H44  1  0.27698395  0.23232925  0.48900914  1  0.167894  0  0.116073  0.099275  0  1.025624  0
H  H45  1  0.00901563  0.58956591  0.59078368  1  0.062916  0  0.098233  0.104302  0  0.99294  0
H  H46  1  0.98409320  0.71397684  0.53622913  1  0.03235  0  0.096809  0.102013  0  0.972713  0
H  H47  1  0.10760199  0.69925650  0.61624913  1  0.050206  0  0.088205  0.084007  0  1.034378  0
H  H48  1  0.22232144  0.55529788  0.59581674  1  0.039587  0  0.09184  0.087487  0  0.997546  0
H  H49  1  0.13988822  0.79710139  0.51522909  1  0.045148  0  0.092092  0.089633  0  0.9822  0
H  H50  1  0.25419602  0.65322643  0.49391444  1  0.029538  0  0.093918  0.097889  0  1.004495  0
H  H51  1  0.19236575  0.91544154  0.57109109  1  0.069248  0  0.105401  0.111208  0  0.991123  0
H  H52  1  0.35731900  0.92993916  0.61414643  1  0.132917  0  0.117862  0.094827  0  0.999405  0
H  H53  1  0.59716090  0.56535509  0.59609844  1  0.105415  0  0.112772  0.078802  0  1.028842  0
H  H54  1  0.44666909  0.53606277  0.55047361  1  0.099765  0  0.107157  0.115696  0  1.006175  0
H  H55  1  0.14890977  0.39171439  0.26352524  1  0.113502  0  0.119092  0.09309  0  0.985428  0
H  H56  1  0.96193434  0.40269389  0.23186487  1  0.1636  0  0.111296  0.144132  0  1.025197  0
H  H57  1  0.05020385  0.05332249  0.33401813  1  0.053255  0  0.100929  0.10385  0  1.019747  0
H  H58  1  0.22984744  0.05962466  0.36304981  1  0.098067  0  0.109135  0.077594  0  1.052074  0
H  H59  1  0.80238658  0.26590848  0.30383555  1  0.046414  0  0.095943  0.100453  0  0.988426  0
H  H60  1  0.83517552  0.30821683  0.22938328  1  0.079813  0  0.097261  0.106211  0  0.993434  0
H  H61  1  0.91738912  0.04324236  0.28718304  1  0.022547  0  0.086033  0.073979  0  0.9966  0
H  H62  1  0.46117686  0.51122883  0.70902476  1  0.06316  0  0.101488  0.124435  0  1.001542  0
H  H63  1  0.34168126  0.52656271  0.67041082  1  0.04413  0  0.091258  0.103312  0  1.033122  0
H  H64  1  0.66622309  0.37280052  0.68114950  1  0.081597  0  0.098919  0.112524  0  1.0239  0
H  H65  1  0.81724446  0.20485839  0.62024321  1  0.037602  0  0.090209  0.080624  0  1.016319  0
H  H66  1  0.74549141  0.10092254  0.56346016  1  0.048785  0  0.095834  0.097572  0  1.014641  0
H  H67  1  0.37454085  0.32600174  0.63111899  1  0.044432  0  0.095941  0.100643  0  1.015645  0
H  H68  1  0.41089094  0.18401267  0.56662134  1  0.048196  0  0.096148  0.111866  0  1.001828  0
H  H69  1  0.54169341  0.14519157  0.51352244  1  0.038462  0  0.093486  0.114126  0  1.023282  0
H  H70  1  0.51987075  0.17196123  0.85779687  1  0.138518  0  0.121155  0.104487  0  0.998978  0
H  H71  1  0.67468395  0.06069640  0.93195149  1  0.056559  0  0.106444  0.111793  0  0.995669  0
H  H72  1  0.37496211  0.17856968  0.06934657  1  0.058727  0  0.10985  0.117852  0  0.988039  0
H  H73  1  0.23232151  0.27697707  0.98901335  1  0.167712  0  0.11608  0.099265  0  1.02559  0
H  H74  1  0.58955571  0.00901863  0.09078748  1  0.062715  0  0.098267  0.104325  0  0.992989  0
H  H75  1  0.71396381  0.98409227  0.03622973  1  0.032277  0  0.096774  0.101998  0  0.972857  0
H  H76  1  0.69925203  0.10759797  0.11625169  1  0.050177  0  0.088225  0.084086  0  1.034341  0
H  H77  1  0.55529730  0.22232863  0.09581626  1  0.039394  0  0.091832  0.087506  0  0.997556  0
H  H78  1  0.79710986  0.13986905  0.01523207  1  0.045031  0  0.092143  0.089766  0  0.98203  0
H  H79  1  0.65323955  0.25418599  0.99391432  1  0.033341  0  0.093896  0.097906  0  1.004392  0
H  H80  1  0.91545517  0.19235463  0.07108593  1  0.069292  0  0.105424  0.111203  0  0.991277  0
H  H81  1  0.92995135  0.35730577  0.11414456  1  0.132369  0  0.117846  0.094816  0  0.999341  0
H  H82  1  0.56537069  0.59715143  0.09610248  1  0.105647  0  0.11273  0.078728  0  1.028873  0
H  H83  1  0.53607638  0.44665263  0.05048191  1  0.099892  0  0.107113  0.115682  0  1.006094  0
H  H84  1  0.39169563  0.14892990  0.76351352  1  0.113905  0  0.119034  0.093039  0  0.985637  0
H  H85  1  0.40267544  0.96195061  0.73185435  1  0.163954  0  0.11133  0.144106  0  1.025105  0
H  H86  1  0.05332188  0.05020762  0.83402171  1  0.053424  0  0.100898  0.103821  0  1.019807  0
H  H87  1  0.05962195  0.22985754  0.86304920  1  0.097947  0  0.109121  0.077616  0  1.052073  0
H  H88  1  0.26590267  0.80239141  0.80383573  1  0.046371  0  0.095929  0.100389  0  0.988383  0
H  H89  1  0.30821065  0.83518027  0.72938130  1  0.079817  0  0.097254  0.106222  0  0.993369  0
H  H90  1  0.04323954  0.91739068  0.78718244  1  0.022452  0  0.086021  0.073947  0  0.996732  0
H  H91  1  0.48875240  0.53883396  0.79097732  1  0.063603  0  0.101468  0.124449  0  1.001434  0
H  H92  1  0.47342447  0.65833181  0.82958926  1  0.043982  0  0.091232  0.103247  0  1.033096  0
H  H93  1  0.62717379  0.33378296  0.81885556  1  0.081612  0  0.098957  0.112496  0  1.023784  0
H  H94  1  0.79512143  0.18275760  0.87975824  1  0.037432  0  0.090179  0.0806  0  1.01623  0
H  H95  1  0.89906858  0.25451039  0.93653384  1  0.048335  0  0.095834  0.097526  0  1.01468  0
H  H96  1  0.67396880  0.62546749  0.86888904  1  0.044456  0  0.095953  0.100709  0  1.015612  0
H  H97  1  0.81597523  0.58911428  0.93337685  1  0.048136  0  0.096192  0.111828  0  1.001875  0
H  H98  1  0.85480468  0.45831126  0.98647554  1  0.038513  0  0.093492  0.114084  0  1.023196  0
H  H99  1  0.82804833  0.48012821  0.64220328  1  0.138561  0  0.121132  0.10449  0  0.998982  0
H  H100  1  0.93930861  0.32530915  0.56804871  1  0.05652  0  0.106456  0.111807  0  0.995587  0
H  H101  1  0.82143118  0.62503049  0.43065183  1  0.058645  0  0.10986  0.117847  0  0.988081  0
H  H102  1  0.72301796  0.76767611  0.51098520  1  0.167769  0  0.116077  0.099221  0  1.025658  0
H  H103  1  0.99098720  0.41043411  0.40921229  1  0.062769  0  0.098249  0.10436  0  0.992958  0
H  H104  1  0.01590047  0.28602569  0.46376822  1  0.032332  0  0.096813  0.10204  0  0.972748  0
H  H105  1  0.89238889  0.30075301  0.38374747  1  0.050203  0  0.088233  0.08406  0  1.034428  0
H  H106  1  0.77767395  0.44471275  0.40418116  1  0.039511  0  0.091823  0.087482  0  0.997602  0
H  H107  1  0.86010894  0.20291164  0.48476980  1  0.045355  0  0.092068  0.089588  0  0.982319  0
H  H108  1  0.74580022  0.34678783  0.50608442  1  0.029512  0  0.093923  0.097871  0  1.004527  0
H  H109  1  0.80763588  0.08456765  0.42891253  1  0.068991  0  0.105446  0.111295  0  0.991092  0
H  H110  1  0.64269188  0.07005527  0.38585761  1  0.132771  0  0.117854  0.094807  0  0.999278  0
H  H111  1  0.40283463  0.43464007  0.40390021  1  0.105432  0  0.112765  0.078818  0  1.028807  0
H  H112  1  0.55332182  0.46394183  0.44952380  1  0.099771  0  0.107132  0.11567  0  1.006225  0
H  H113  1  0.85108815  0.60829067  0.73648289  1  0.113785  0  0.119059  0.093059  0  0.985459  0
H  H114  1  0.03806269  0.59731489  0.76814087  1  0.163874  0  0.111332  0.144189  0  1.025112  0
H  H115  1  0.94979066  0.94668038  0.66598175  1  0.053244  0  0.100899  0.103854  0  1.019743  0
H  H116  1  0.77014981  0.94037284  0.63695200  1  0.098124  0  0.109138  0.077626  0  1.052076  0
H  H117  1  0.19760787  0.73410666  0.69616165  1  0.046084  0  0.095949  0.100469  0  0.988414  0
H  H118  1  0.16482808  0.69178674  0.77061670  1  0.07985  0  0.097254  0.106224  0  0.993388  0
H  H119  1  0.08260331  0.95676849  0.71282377  1  0.022739  0  0.086034  0.074042  0  0.996598  0
C  C120  1  0.63534400  0.58828047  0.24789496  1  1.572401  0  0.187112  0.61864  0  4.185222  0
C  C121  1  0.58223091  0.53880350  0.30396880  1  -0.039289  0  -0.166426  -0.348304  0  3.943419  0
C  C122  1  0.48929422  0.63903316  0.34059351  1  -0.048856  0  -0.010332  0.153733  0  3.988741  0
C  C123  1  0.36415421  0.67429125  0.34331921  1  -0.044392  0  -0.10114  -0.160575  0  3.971856  0
C  C124  1  0.28027690  0.76808068  0.37760077  1  -0.065357  0  -0.101681  -0.084711  0  4.083152  0
C  C125  1  0.31999247  0.82658200  0.40935305  1  -0.064643  0  -0.104412  -0.163819  0  4.000619  0
C  C126  1  0.44509511  0.79297600  0.40673747  1  0.014606  0  -0.010672  0.150882  0  3.979576  0
C  C127  1  0.52801498  0.69959737  0.37204029  1  -0.064706  0  -0.098484  -0.211972  0  3.935882  0
C  C128  1  0.48883341  0.85872818  0.43910292  1  -0.016666  0  -0.165518  -0.337765  0  3.932155  0
C  C129  1  0.43787821  0.99291283  0.41394674  1  1.57761  0  0.189463  0.623519  0  4.177936  0
C  C130  1  0.50758466  0.83202563  0.09473524  1  0.474612  0  0.045615  0.082697  0  3.966773  0
C  C131  1  0.42258783  0.89133534  0.05317975  1  -0.004784  0  -0.08723  -0.193575  0  3.969946  0
C  C132  1  0.46223883  0.88848610  0.99270184  1  -0.040703  0  0.011919  0.167288  0  3.956613  0
C  C133  1  0.58865668  0.82606053  0.97710004  1  -0.067665  0  -0.08736  -0.191918  0  3.954935  0
C  C134  1  0.66841757  0.77084176  0.02096286  1  0.449261  0  0.043506  0.08609  0  3.956641  0
C  C135  1  0.37464273  0.94514201  0.94594020  1  -0.013628  0  -0.157712  -0.203467  0  3.939085  0
C  C136  1  0.35559775  0.84856239  0.92145771  1  -0.035456  0  -0.159849  -0.12976  0  3.906677  0
C  C137  1  0.29242074  0.78896073  0.96801227  1  -0.026529  0  -0.161393  -0.210469  0  3.97287  0
C  C138  1  0.27594581  0.69430122  0.94326890  1  0.014646  0  0.013647  0.166019  0  3.961898  0
C  C139  1  0.16480916  0.71882784  0.92411927  1  -0.073283  0  -0.086674  -0.191802  0  3.959904  0
C  C140  1  0.15574260  0.62830321  0.90000093  1  0.456555  0  0.046945  0.093925  0  3.969157  0
C  C141  1  0.35847400  0.49296724  0.91111854  1  0.468161  0  0.046638  0.101859  0  3.962821  0
C  C142  1  0.37433357  0.57772080  0.93633046  1  -0.047156  0  -0.084134  -0.184071  0  3.937488  0
C  C143  1  0.68104172  0.87716341  0.22146498  1  0.478208  0  0.047305  0.097872  0  3.94773  0
C  C144  1  0.67586997  0.98103034  0.23941945  1  -0.088256  0  -0.083373  -0.182827  0  3.90355  0
C  C145  1  0.77068992  0.01210252  0.21930595  1  -0.002082  0  0.011777  0.162898  0  3.941652  0
C  C146  1  0.86869854  0.93283425  0.18271039  1  -0.051432  0  -0.094542  -0.200359  0  3.970624  0
C  C147  1  0.86658122  0.83141426  0.16636380  1  0.477966  0  0.040394  0.095118  0  3.96895  0
C  C148  1  0.76446448  0.12808492  0.23448687  1  -0.003506  0  -0.157614  -0.202434  0  3.932184  0
C  C149  1  0.41171683  0.36466762  0.25210223  1  1.572216  0  0.187217  0.618865  0  4.185077  0
C  C150  1  0.46119831  0.41777804  0.19602913  1  -0.038713  0  -0.166483  -0.348371  0  3.943557  0
C  C151  1  0.36096729  0.51071059  0.15940278  1  -0.048818  0  -0.010282  0.15367  0  3.988932  0
C  C152  1  0.32571557  0.63585209  0.15667604  1  -0.044576  0  -0.101165  -0.160375  0  3.971687  0
C  C153  1  0.23192521  0.71972852  0.12239686  1  -0.065385  0  -0.101697  -0.084795  0  4.083163  0
C  C154  1  0.17342460  0.68001228  0.09064419  1  -0.065252  0  -0.104447  -0.16391  0  4.000512  0
C  C155  1  0.20702529  0.55490597  0.09326046  1  0.014944  0  -0.010734  0.150902  0  3.979496  0
C  C156  1  0.30040461  0.47198889  0.12795775  1  -0.064257  0  -0.098538  -0.212096  0  3.936061  0
C  C157  1  0.14127026  0.51116587  0.06090194  1  -0.016201  0  -0.165449  -0.337769  0  3.932143  0
C  C158  1  0.00708589  0.56211870  0.08606054  1  1.57708  0  0.189661  0.623733  0  4.177378  0
C  C159  1  0.16797227  0.49242782  0.40525766  1  0.474588  0  0.045443  0.082576  0  3.966856  0
C  C160  1  0.10866431  0.57742291  0.44681398  1  -0.004724  0  -0.087057  -0.193258  0  3.969814  0
C  C161  1  0.11150932  0.53777240  0.50729147  1  -0.040971  0  0.011974  0.167517  0  3.956581  0
C  C162  1  0.17393887  0.41135321  0.52289384  1  -0.067877  0  -0.087478  -0.192103  0  3.954954  0
C  C163  1  0.22915562  0.33159079  0.47903151  1  0.448758  0  0.043554  0.086144  0  3.956462  0
C  C164  1  0.05484758  0.62537810  0.55405061  1  -0.012754  0  -0.157701  -0.203572  0  3.939149  0
C  C165  1  0.15142008  0.64442195  0.57853787  1  -0.03585  0  -0.159961  -0.129844  0  3.906944  0
C  C166  1  0.21103074  0.70758829  0.53198649  1  -0.026507  0  -0.161434  -0.210639  0  3.972836  0
C  C167  1  0.30569815  0.72405044  0.55673089  1  0.014521  0  0.013606  0.165995  0  3.961791  0
C  C168  1  0.28117527  0.83518678  0.57588280  1  -0.073234  0  -0.086698  -0.191887  0  3.959806  0
C  C169  1  0.37170446  0.84424575  0.60000159  1  0.456292  0  0.046864  0.093916  0  3.969326  0
C  C170  1  0.50703156  0.64151096  0.58888397  1  0.468762  0  0.046688  0.101886  0  3.963054  0
C  C171  1  0.42227227  0.62566000  0.56367203  1  -0.047551  0  -0.084098  -0.183927  0  3.937693  0
C  C172  1  0.12283489  0.31896083  0.27854220  1  0.478238  0  0.047241  0.097861  0  3.947489  0
C  C173  1  0.01896925  0.32412846  0.26058956  1  -0.087547  0  -0.083421  -0.182867  0  3.903688  0
C  C174  1  0.98789657  0.22931317  0.28069804  1  -0.002672  0  0.011859  0.162906  0  3.94154  0
C  C175  1  0.06716279  0.13129962  0.31729599  1  -0.051295  0  -0.094433  -0.200092  0  3.970452  0
C  C176  1  0.16858340  0.13341548  0.33364020  1  0.478599  0  0.04033  0.095044  0  3.969078  0
C  C177  1  0.87191468  0.23554260  0.26551842  1  -0.042142  0  -0.157605  -0.202451  0  3.932165  0
C  C178  1  0.36466341  0.41171418  0.75210194  1  1.572552  0  0.187256  0.618919  0  4.184986  0
C  C179  1  0.41777927  0.46119239  0.69602605  1  -0.039079  0  -0.166487  -0.348459  0  3.943387  0
C  C180  1  0.51071870  0.36095490  0.65940435  1  -0.048538  0  -0.010284  0.153624  0  3.988832  0
C  C181  1  0.63585781  0.32569888  0.65667725  1  -0.044663  0  -0.101178  -0.160425  0  3.971884  0
C  C182  1  0.71973235  0.23191397  0.62239556  1  -0.064996  0  -0.10168  -0.084791  0  4.083358  0
C  C183  1  0.68001866  0.17341514  0.59063990  1  -0.066076  0  -0.104516  -0.163934  0  4.000563  0
C  C184  1  0.55491414  0.20701782  0.59325936  1  0.012613  0  -0.010639  0.150915  0  3.979618  0
C  C185  1  0.47199610  0.30038987  0.62795864  1  -0.064105  0  -0.09848  -0.211855  0  3.936074  0
C  C186  1  0.51117210  0.14127052  0.56089555  1  -0.014736  0  -0.165485  -0.337748  0  3.932174  0
C  C187  1  0.56212829  0.00708388  0.58604964  1  1.577356  0  0.189552  0.62361  0  4.177457  0
C  C188  1  0.49241728  0.16797564  0.90525983  1  0.474229  0  0.045392  0.082414  0  3.967108  0
C  C189  1  0.57741233  0.10866271  0.94681484  1  -0.004105  0  -0.087125  -0.193319  0  3.96998  0
C  C190  1  0.53776038  0.11151399  0.00729310  1  -0.041241  0  0.011886  0.167304  0  3.956801  0
C  C191  1  0.41134252  0.17393707  0.02289683  1  -0.067579  0  -0.087361  -0.191904  0  3.955066  0
C  C192  1  0.33158072  0.22915545  0.97903367  1  0.449229  0  0.043572  0.086135  0  3.95635  0
C  C193  1  0.62536666  0.05484948  0.05405201  1  -0.012717  0  -0.157665  -0.203472  0  3.939266  0
C  C194  1  0.64441893  0.15141671  0.07853880  1  -0.03562  0  -0.159979  -0.129993  0  3.906914  0
C  C195  1  0.70759764  0.21102315  0.03198723  1  -0.03087  0  -0.161466  -0.210794  0  3.972538  0
C  C196  1  0.72406058  0.30568717  0.05673509  1  0.015135  0  0.013662  0.166133  0  3.961796  0
C  C197  1  0.83520364  0.28116503  0.07588127  1  -0.073354  0  -0.086746  -0.191945  0  3.960011  0
C  C198  1  0.84426018  0.37169018  0.09999991  1  0.456129  0  0.046971  0.094039  0  3.969282  0
C  C199  1  0.64152422  0.50701676  0.08888640  1  0.468664  0  0.046662  0.101959  0  3.963053  0
C  C200  1  0.62567378  0.42225653  0.06367604  1  -0.047599  0  -0.084149  -0.184124  0  3.937703  0
C  C201  1  0.31894355  0.12285423  0.77853446  1  0.477891  0  0.047341  0.097873  0  3.947573  0
C  C202  1  0.32411257  0.01898198  0.76058235  1  -0.087548  0  -0.083417  -0.182679  0  3.903444  0
C  C203  1  0.22930542  0.98790312  0.78069625  1  -0.002881  0  0.011794  0.162761  0  3.941608  0
C  C204  1  0.13129211  0.06717173  0.81729692  1  -0.051824  0  -0.094518  -0.200183  0  3.97022  0
C  C205  1  0.13340951  0.16859674  0.83363835  1  0.478446  0  0.040413  0.095123  0  3.969109  0
C  C206  1  0.23553351  0.87192267  0.76551759  1  -0.041946  0  -0.157536  -0.202251  0  3.932012  0
C  C207  1  0.58828393  0.63533546  0.74790236  1  1.572023  0  0.187247  0.618849  0  4.185079  0
C  C208  1  0.53879421  0.58222961  0.80397574  1  -0.038518  0  -0.166447  -0.348381  0  3.94322  0
C  C209  1  0.63901526  0.48929272  0.84060189  1  -0.049029  0  -0.010173  0.153929  0  3.988389  0
C  C210  1  0.67427246  0.36415115  0.84332821  1  -0.044002  0  -0.101289  -0.16051  0  3.971488  0
C  C211  1  0.76806279  0.28027307  0.87760882  1  -0.0666  0  -0.101641  -0.084764  0  4.082872  0
C  C212  1  0.82656709  0.31999095  0.90935891  1  -0.064336  0  -0.104442  -0.163773  0  4.000495  0
C  C213  1  0.79296459  0.44509400  0.90674390  1  0.014901  0  -0.010719  0.150786  0  3.979796  0
C  C214  1  0.69958248  0.52801229  0.87204848  1  -0.064599  0  -0.098568  -0.212128  0  3.935958  0
C  C215  1  0.85872146  0.48883245  0.93910241  1  -0.016587  0  -0.16552  -0.337632  0  3.93219  0
C  C216  1  0.99290128  0.43788666  0.91394101  1  1.577405  0  0.189667  0.623567  0  4.177404  0
C  C217  1  0.83203139  0.50757910  0.59473859  1  0.474416  0  0.045454  0.082463  0  3.967015  0
C  C218  1  0.89134296  0.42258475  0.55318324  1  -0.004423  0  -0.087204  -0.193473  0  3.969977  0
C  C219  1  0.88849253  0.46223043  0.49270610  1  -0.040628  0  0.011969  0.167539  0  3.956498  0
C  C220  1  0.82606387  0.58865165  0.47710350  1  -0.068079  0  -0.087455  -0.192143  0  3.955052  0
C  C221  1  0.77084534  0.66841412  0.52096466  1  0.449223  0  0.043559  0.086237  0  3.956479  0
C  C222  1  0.94514971  0.37462684  0.44594628  1  -0.013258  0  -0.157711  -0.203608  0  3.939167  0
C  C223  1  0.84857445  0.35558997  0.42145783  1  -0.035607  0  -0.159936  -0.129879  0  3.906793  0
C  C224  1  0.78896098  0.29242319  0.46801206  1  -0.026537  0  -0.161449  -0.210574  0  3.972782  0
C  C225  1  0.69429720  0.27595851  0.44326932  1  0.01417  0  0.013739  0.166075  0  3.961833  0
C  C226  1  0.71882555  0.16481553  0.42411967  1  -0.073013  0  -0.08683  -0.192107  0  3.959795  0
C  C227  1  0.62830093  0.15575283  0.40000169  1  0.456431  0  0.046902  0.094008  0  3.969166  0
C  C228  1  0.49296841  0.35848938  0.41111698  1  0.468851  0  0.046692  0.101866  0  3.962907  0
C  C229  1  0.57772496  0.37434324  0.43632804  1  -0.047493  0  -0.084102  -0.183876  0  3.937799  0
C  C230  1  0.87716306  0.68104508  0.72146413  1  0.478198  0  0.047307  0.097905  0  3.947497  0
C  C231  1  0.98102963  0.67587786  0.73941623  1  -0.088211  0  -0.08345  -0.182883  0  3.903439  0
C  C232  1  0.01209968  0.77069289  0.71930363  1  -0.002327  0  0.011797  0.162835  0  3.941577  0
C  C233  1  0.93283076  0.86870444  0.68270517  1  -0.05163  0  -0.094421  -0.200139  0  3.970479  0
C  C234  1  0.83141288  0.86658649  0.66636221  1  0.478262  0  0.040307  0.095042  0  3.969138  0
C  C235  1  0.12807884  0.76446882  0.73448130  1  -0.041709  0  -0.157601  -0.202449  0  3.932201  0
C  C236  1  0.88530390  0.11469501  0.25000171  1  -0.038359  0  -0.162638  -0.130098  0  3.963514  0
C  C237  1  0.11468679  0.88531512  0.75000224  1  -0.038426  0  -0.16262  -0.13022  0  3.963559  0
N  N238  1  0.62866922  0.77278234  0.07892419  1  -1.22757  0  -0.330909  -0.245485  0  3.526946  0
N  N239  1  0.25103768  0.51679058  0.89353954  1  -1.226333  0  -0.326177  -0.245706  0  3.480614  0
N  N240  1  0.77383301  0.80398792  0.18480040  1  -1.222465  0  -0.330952  -0.243428  0  3.506989  0
N  N241  1  0.22721858  0.37133725  0.42106887  1  -1.226994  0  -0.330921  -0.245661  0  3.526729  0
N  N242  1  0.48321242  0.74894880  0.60646377  1  -1.226281  0  -0.32612  -0.245718  0  3.480811  0
N  N243  1  0.19601194  0.22616032  0.31520604  1  -1.222834  0  -0.330916  -0.243406  0  3.506812  0
N  N244  1  0.37132997  0.22721526  0.92107269  1  -1.227687  0  -0.330928  -0.245592  0  3.526877  0
N  N245  1  0.74896329  0.48319956  0.10646212  1  -1.225703  0  -0.326104  -0.245663  0  3.48062  0
N  N246  1  0.22615051  0.19602323  0.81519881  1  -1.222561  0  -0.330938  -0.243421  0  3.507169  0
N  N247  1  0.77278510  0.62867049  0.57892644  1  -1.227546  0  -0.330889  -0.245536  0  3.526689  0
N  N248  1  0.51679213  0.25104616  0.39353811  1  -1.226076  0  -0.326164  -0.245772  0  3.4806  0
N  N249  1  0.80398429  0.77383750  0.68479973  1  -1.222397  0  -0.330896  -0.243395  0  3.506858  0
O  O250  1  0.75158089  0.54808934  0.24162997  1  -1.165554  0  -0.346914  -0.567884  0  2.198069  0
O  O251  1  0.56410739  0.66422832  0.21070469  1  -1.206009  0  -0.344454  -0.591981  0  2.140519  0
O  O252  1  0.49321172  0.01740754  0.36590118  1  -1.177063  0  -0.344644  -0.569622  0  2.175524  0
O  O253  1  0.34163162  0.07245341  0.43983913  1  -1.208105  0  -0.350988  -0.591958  0  2.123519  0
O  O254  1  0.45190802  0.24842810  0.25836960  1  -1.165299  0  -0.347064  -0.568143  0  2.198128  0
O  O255  1  0.33576385  0.43590466  0.28929328  1  -1.206101  0  -0.344442  -0.592006  0  2.140502  0
O  O256  1  0.98259296  0.50678497  0.13410051  1  -1.1769  0  -0.344659  -0.569627  0  2.175636  0
O  O257  1  0.92754727  0.65838332  0.06016562  1  -1.207871  0  -0.351144  -0.592049  0  2.122864  0
O  O258  1  0.24842351  0.45192109  0.75837161  1  -1.165548  0  -0.347106  -0.568175  0  2.198151  0
O  O259  1  0.43589858  0.33574455  0.78928618  1  -1.206051  0  -0.344431  -0.592003  0  2.140401  0
O  O260  1  0.50679589  0.98258319  0.63408993  1  -1.176588  0  -0.34459  -0.569565  0  2.175605  0
O  O261  1  0.65839302  0.92754877  0.56015717  1  -1.208396  0  -0.351101  -0.59204  0  2.122981  0
O  O262  1  0.54808196  0.75157607  0.74162922  1  -1.165424  0  -0.347077  -0.568132  0  2.198184  0
O  O263  1  0.66425958  0.56409106  0.71071753  1  -1.205759  0  -0.344407  -0.591977  0  2.140314  0
O  O264  1  0.01740128  0.49322256  0.86590815  1  -1.177185  0  -0.344636  -0.569479  0  2.175936  0
O  O265  1  0.07244903  0.34161539  0.93983704  1  -1.207755  0  -0.351206  -0.592108  0  2.12247  0
