# generated using pymatgen
data_CdH16C26N2O9
_symmetry_space_group_name_H-M   'P 1'
_cell_length_a   7.08649924
_cell_length_b   9.06595056
_cell_length_c   17.17829882
_cell_angle_alpha   91.25807778
_cell_angle_beta   100.43239540
_cell_angle_gamma   96.76447619
_symmetry_Int_Tables_number   1
_chemical_formula_structural   CdH16C26N2O9
_chemical_formula_sum   'Cd2 H32 C52 N4 O18'
_cell_volume   1076.77571520
_cell_formula_units_Z   2
loop_
 _symmetry_equiv_pos_site_id
 _symmetry_equiv_pos_as_xyz
  1  'x, y, z'
loop_
 _atom_site_type_symbol
 _atom_site_label
 _atom_site_symmetry_multiplicity
 _atom_site_fract_x
 _atom_site_fract_y
 _atom_site_fract_z
 _atom_site_occupancy
 _atom_site_hle17_bader_spin_density
 _atom_site_hle17_ddec_charge
 _atom_site_hle17_ddec_spin_density
 _atom_site_hle17_ddec_sum_bond_order
 _atom_site_hle17_magmom
 _atom_site_hse06_10hf_bader_spin_density
 _atom_site_hse06_10hf_ddec_charge
 _atom_site_hse06_10hf_ddec_spin_density
 _atom_site_hse06_10hf_ddec_sum_bond_order
 _atom_site_hse06_10hf_magmom
 _atom_site_hse06_bader_spin_density
 _atom_site_hse06_ddec_charge
 _atom_site_hse06_ddec_spin_density
 _atom_site_hse06_ddec_sum_bond_order
 _atom_site_hse06_magmom
 _atom_site_pbe_bader_spin_density
 _atom_site_pbe_cm5_charge
 _atom_site_pbe_ddec_charge
 _atom_site_pbe_ddec_spin_density
 _atom_site_pbe_ddec_sum_bond_order
 _atom_site_pbe_magmom
Cd  Cd0  1  0.71581927  0.13105148  0.38327644  1  0  1.202204  0  1.644124  0  0  1.015647  0  2.097138  0  0  1.071476  0  2.04158  0  0  0.786681  0.975329  0  2.135989  0
Cd  Cd1  1  0.28417839  0.86895041  0.61672483  1  0  1.202171  0  1.644067  0  0  1.0156  0  2.097058  0  0  1.07143  0  2.041504  0  0  0.786655  0.975275  0  2.135893  0
H  H2  1  0.32083236  0.53485030  0.41788718  1  0  0.124253  0  0.920889  0  0  0.134806  0  0.976319  0  0  0.138944  0  0.974281  0  0  0.116105  0.131542  0  0.978108  0
H  H3  1  0.67915651  0.46515163  0.58210883  1  0  0.124282  0  0.920798  0  0  0.134802  0  0.976259  0  0  0.138946  0  0.974221  0  0  0.116099  0.131542  0  0.978051  0
H  H4  1  0.31313521  0.66224398  0.29093214  1  0  0.113366  0  0.947094  0  0  0.118627  0  1.016094  0  0  0.12276  0  1.011952  0  0  0.112824  0.115447  0  1.019561  0
H  H5  1  0.68685438  0.33775350  0.70906444  1  0  0.113371  0  0.947075  0  0  0.118645  0  1.016059  0  0  0.12279  0  1.011921  0  0  0.112828  0.115459  0  1.019529  0
H  H6  1  0.80965427  0.56393697  0.08003744  1  0  0.112975  0  0.96201  0  0  0.118749  0  1.029108  0  0  0.123017  0  1.025893  0  0  0.103674  0.115544  0  1.032612  0
H  H7  1  0.19034869  0.43606269  0.91996241  1  0  0.112935  0  0.96206  0  0  0.11869  0  1.029181  0  0  0.122959  0  1.025964  0  0  0.103647  0.11549  0  1.032682  0
H  H8  1  0.12935714  0.86846008  0.21292002  1  0  0.106962  0  0.954279  0  0  0.114143  0  1.020177  0  0  0.117675  0  1.018549  0  0  0.107262  0.111326  0  1.022052  0
H  H9  1  0.87064311  0.13154070  0.78707907  1  0  0.106958  0  0.954294  0  0  0.114186  0  1.020144  0  0  0.117713  0  1.018528  0  0  0.107272  0.111366  0  1.022023  0
H  H10  1  0.85008422  0.71981541  0.20508074  1  0  0.094362  0  0.953756  0  0  0.107861  0  1.012806  0  0  0.109825  0  1.012436  0  0  0.108844  0.106324  0  1.012692  0
H  H11  1  0.14991287  0.28018315  0.79491986  1  0  0.094362  0  0.953744  0  0  0.107871  0  1.012781  0  0  0.10984  0  1.012409  0  0  0.108825  0.106333  0  1.012669  0
H  H12  1  0.85067701  0.73460925  0.35104562  1  0  0.124358  0  0.957486  0  0  0.133404  0  1.014764  0  0  0.13701  0  1.013304  0  0  0.116061  0.130762  0  1.016511  0
H  H13  1  0.14932079  0.26539377  0.64895451  1  0  0.124378  0  0.957471  0  0  0.133425  0  1.014752  0  0  0.137032  0  1.013288  0  0  0.116071  0.130781  0  1.016502  0
H  H14  1  0.58563648  0.86346542  0.24285818  1  0  0.087789  0  0.955405  0  0  0.095676  0  1.021178  0  0  0.098284  0  1.018819  0  0  0.117806  0.094685  0  1.020452  0
H  H15  1  0.41435813  0.13653538  0.75714286  1  0  0.087691  0  0.955471  0  0  0.095653  0  1.021186  0  0  0.098263  0  1.018825  0  0  0.117814  0.094662  0  1.020461  0
H  H16  1  0.67811615  0.03734943  0.01887847  1  0  0.099693  0  0.948986  0  0  0.111094  0  1.010475  0  0  0.113512  0  1.009119  0  0  0.109465  0.109456  0  1.011172  0
H  H17  1  0.32188815  0.96264911  0.98112378  1  0  0.099647  0  0.949074  0  0  0.11107  0  1.010553  0  0  0.113488  0  1.009198  0  0  0.109458  0.10943  0  1.011246  0
H  H18  1  0.74810734  0.31504595  0.01181408  1  0  0.111172  0  0.955049  0  0  0.117729  0  1.021756  0  0  0.121776  0  1.018995  0  0  0.104486  0.114908  0  1.023615  0
H  H19  1  0.25189655  0.68495037  0.98818695  1  0  0.111191  0  0.955048  0  0  0.11774  0  1.021769  0  0  0.12179  0  1.019005  0  0  0.104477  0.114923  0  1.023622  0
H  H20  1  0.79297599  0.49870615  0.42116742  1  0  0.095455  0  0.941276  0  0  0.101269  0  1.006896  0  0  0.104755  0  1.003255  0  0  0.120481  0.098627  0  1.009491  0
H  H21  1  0.20702329  0.50129685  0.57883397  1  0  0.095523  0  0.941246  0  0  0.101333  0  1.006853  0  0  0.104819  0  1.003211  0  0  0.120497  0.098691  0  1.009446  0
H  H22  1  0.59090136  0.81972836  0.09784736  1  0  0.116238  0  0.946953  0  0  0.125695  0  1.004927  0  0  0.129009  0  1.003756  0  0  0.110289  0.122662  0  1.007518  0
H  H23  1  0.40910047  0.18027241  0.90215533  1  0  0.116262  0  0.946925  0  0  0.125752  0  1.004836  0  0  0.129062  0  1.003675  0  0  0.110293  0.122711  0  1.007439  0
H  H24  1  0.14638952  0.99830140  0.08816045  1  0  0.108155  0  0.929447  0  0  0.118849  0  0.988607  0  0  0.122273  0  0.98546  0  0  0.113411  0.116161  0  0.991101  0
H  H25  1  0.85362884  0.00169600  0.91184042  1  0  0.108074  0  0.929399  0  0  0.118777  0  0.988556  0  0  0.122197  0  0.985408  0  0  0.113406  0.116088  0  0.99105  0
H  H26  1  0.01260128  0.26885060  0.49795799  1  0  0.419851  0  0.887372  0  0  0.386824  0  0.954846  0  0  0.397673  0  0.939289  0  0  0.286068  0.379165  0  0.965799  0
H  H27  1  0.98739525  0.73115353  0.50204148  1  0  0.419827  0  0.8874  0  0  0.38681  0  0.954859  0  0  0.397661  0  0.939298  0  0  0.286077  0.379147  0  0.965815  0
H  H28  1  0.84235607  0.21114119  0.54459982  1  0  0.421174  0  0.884128  0  0  0.385866  0  0.954718  0  0  0.398375  0  0.93663  0  0  0.283604  0.376937  0  0.967615  0
H  H29  1  0.15764193  0.78886293  0.45540091  1  0  0.42127  0  0.883999  0  0  0.385914  0  0.954657  0  0  0.398424  0  0.936566  0  0  0.283631  0.376984  0  0.967554  0
H  H30  1  0.45282663  0.87807013  0.38037859  1  0  0.419183  0  0.890368  0  0  0.386519  0  0.957332  0  0  0.397539  0  0.941515  0  0  0.285535  0.378758  0  0.968436  0
H  H31  1  0.54717258  0.12193287  0.61962105  1  0  0.41921  0  0.890323  0  0  0.386564  0  0.95727  0  0  0.397583  0  0.941453  0  0  0.285574  0.378801  0  0.968372  0
H  H32  1  0.65086705  0.82848551  0.42608665  1  0  0.420852  0  0.884968  0  0  0.386353  0  0.954584  0  0  0.398826  0  0.9365  0  0  0.28586  0.377554  0  0.967304  0
H  H33  1  0.34913055  0.17151639  0.57391286  1  0  0.420833  0  0.884985  0  0  0.386333  0  0.954599  0  0  0.398805  0  0.936516  0  0  0.285844  0.377531  0  0.967325  0
C  C34  1  0.32721488  0.24630799  0.44224582  1  0  0.659671  0  3.927757  0  0  0.60286  0  4.228482  0  0  0.637004  0  4.220831  0  0  0.214302  0.579682  0  4.232682  0
C  C35  1  0.67277844  0.75369392  0.55775398  1  0  0.659537  0  3.927784  0  0  0.60272  0  4.228533  0  0  0.636865  0  4.22088  0  0  0.214237  0.579539  0  4.232735  0
C  C36  1  0.13337418  0.98138421  0.35642677  1  0  0.659083  0  3.923232  0  0  0.601041  0  4.228353  0  0  0.635006  0  4.220219  0  0  0.212732  0.577787  0  4.233367  0
C  C37  1  0.86662214  0.01861881  0.64357209  1  0  0.658972  0  3.923376  0  0  0.600972  0  4.228454  0  0  0.634931  0  4.220325  0  0  0.212667  0.5777  0  4.233487  0
C  C38  1  0.23458458  0.30034505  0.21862352  1  0  0.055975  0  3.769727  0  0  0.052814  0  4.006354  0  0  0.057237  0  4.030501  0  0  0.001779  0.050272  0  3.99013  0
C  C39  1  0.76542616  0.69965014  0.78137447  1  0  0.0558  0  3.769654  0  0  0.052774  0  4.006124  0  0  0.057202  0  4.030272  0  0  0.001789  0.050223  0  3.989909  0
C  C40  1  0.78381210  0.48062366  0.19609834  1  0  0.014587  0  3.812407  0  0  0.032109  0  4.043223  0  0  0.029  0  4.06944  0  0  -0.007923  0.03597  0  4.023603  0
C  C41  1  0.21618219  0.51937491  0.80390381  1  0  0.014675  0  3.812261  0  0  0.032213  0  4.043096  0  0  0.029084  0  4.069342  0  0  -0.007918  0.036068  0  4.023492  0
C  C42  1  0.27173225  0.31505080  0.36351525  1  0  -0.051435  0  3.660677  0  0  -0.042781  0  3.910486  0  0  -0.044296  0  3.928194  0  0  0.008162  -0.042462  0  3.899289  0
C  C43  1  0.72826497  0.68494887  0.63648421  1  0  -0.051441  0  3.66076  0  0  -0.042768  0  3.910575  0  0  -0.044279  0  3.92828  0  0  0.008186  -0.042449  0  3.899376  0
C  C44  1  0.70631623  0.20857158  0.20028926  1  0  0.128641  0  3.766768  0  0  0.121745  0  4.006724  0  0  0.125909  0  4.029786  0  0  0.113856  0.118579  0  3.991118  0
C  C45  1  0.29367817  0.79142810  0.79971117  1  0  0.128611  0  3.766506  0  0  0.121571  0  4.00666  0  0  0.125733  0  4.029721  0  0  0.113762  0.118401  0  3.991064  0
C  C46  1  0.74859007  0.35336411  0.24064028  1  0  0.123578  0  3.770984  0  0  0.116679  0  4.011049  0  0  0.120287  0  4.034501  0  0  0.1117  0.115221  0  3.994202  0
C  C47  1  0.25140482  0.64663891  0.75935848  1  0  0.123578  0  3.770855  0  0  0.116613  0  4.011089  0  0  0.120226  0  4.034547  0  0  0.111744  0.115155  0  3.994248  0
C  C48  1  0.29466560  0.46920180  0.36219422  1  0  -0.066573  0  3.671517  0  0  -0.091341  0  3.929673  0  0  -0.094982  0  3.946991  0  0  -0.07352  -0.088767  0  3.91859  0
C  C49  1  0.70533123  0.53079565  0.63780460  1  0  -0.066605  0  3.671548  0  0  -0.091327  0  3.929658  0  0  -0.094975  0  3.946986  0  0  -0.073563  -0.088762  0  3.918578  0
C  C50  1  0.22807873  0.22634281  0.29095934  1  0  0.017011  0  3.710166  0  0  0.017694  0  3.950043  0  0  0.01598  0  3.971593  0  0  0.001537  0.018352  0  3.936731  0
C  C51  1  0.77192400  0.77365574  0.70903932  1  0  0.017069  0  3.710185  0  0  0.017659  0  3.950105  0  0  0.015945  0  3.97165  0  0  0.001521  0.018323  0  3.936786  0
C  C52  1  0.20539512  0.21607367  0.14581728  1  0  -0.150915  0  3.827983  0  0  -0.139693  0  4.077472  0  0  -0.151922  0  4.102057  0  0  -0.026434  -0.131728  0  4.061263  0
C  C53  1  0.79462346  0.78392484  0.85418420  1  0  -0.150821  0  3.827501  0  0  -0.139601  0  4.076972  0  0  -0.151844  0  4.101567  0  0  -0.0264  -0.131637  0  4.06077  0
C  C54  1  0.18074254  0.06820966  0.28677765  1  0  -0.048866  0  3.651946  0  0  -0.038859  0  3.899564  0  0  -0.039904  0  3.916964  0  0  0.006138  -0.039186  0  3.88918  0
C  C55  1  0.81925917  0.93179112  0.71322213  1  0  -0.048791  0  3.651894  0  0  -0.038768  0  3.899525  0  0  -0.039811  0  3.916925  0  0  0.006181  -0.039091  0  3.889138  0
C  C56  1  0.29247989  0.54121967  0.29069280  1  0  -0.001957  0  3.668404  0  0  -0.032809  0  3.929389  0  0  -0.02623  0  3.944251  0  0  -0.059463  -0.037683  0  3.920226  0
C  C57  1  0.70751877  0.45878112  0.70930211  1  0  -0.001987  0  3.668359  0  0  -0.032855  0  3.929331  0  0  -0.026295  0  3.944211  0  0  -0.05948  -0.037721  0  3.92016  0
C  C58  1  0.78258072  0.46433274  0.11291791  1  0  -0.097547  0  3.723194  0  0  -0.122617  0  3.983123  0  0  -0.125277  0  4.004135  0  0  -0.089726  -0.121972  0  3.969794  0
C  C59  1  0.21741903  0.53566471  0.88708227  1  0  -0.097516  0  3.723255  0  0  -0.122559  0  3.98317  0  0  -0.125211  0  4.004186  0  0  -0.089703  -0.121921  0  3.969849  0
C  C60  1  0.15765543  0.98928153  0.21466306  1  0  -0.080777  0  3.706738  0  0  -0.106763  0  3.969643  0  0  -0.111254  0  3.989101  0  0  -0.081647  -0.103822  0  3.95751  0
C  C61  1  0.84234732  0.01071702  0.78533617  1  0  -0.080883  0  3.706808  0  0  -0.106914  0  3.969701  0  0  -0.111414  0  3.989167  0  0  -0.081703  -0.103969  0  3.957567  0
C  C62  1  0.82140039  0.62017500  0.23752337  1  0  -0.049758  0  3.687833  0  0  -0.07457  0  3.935067  0  0  -0.074072  0  3.95539  0  0  -0.063316  -0.073689  0  3.919509  0
C  C63  1  0.17859258  0.37982469  0.76247696  1  0  -0.049744  0  3.687927  0  0  -0.074563  0  3.935148  0  0  -0.074064  0  3.955481  0  0  -0.063293  -0.073677  0  3.919594  0
C  C64  1  0.26890172  0.45819165  0.21980088  1  0  -0.153217  0  3.825672  0  0  -0.141738  0  4.074476  0  0  -0.155084  0  4.099932  0  0  -0.027131  -0.133094  0  4.057693  0
C  C65  1  0.73110429  0.54180912  0.78019919  1  0  -0.153244  0  3.825669  0  0  -0.141772  0  4.074477  0  0  -0.155127  0  4.099941  0  0  -0.02712  -0.13312  0  4.057694  0
C  C66  1  0.82304927  0.62853739  0.31793911  1  0  -0.093264  0  3.687506  0  0  -0.106728  0  3.941227  0  0  -0.111897  0  3.960363  0  0  -0.075755  -0.105665  0  3.92965  0
C  C67  1  0.17694824  0.37146339  0.68206271  1  0  -0.093452  0  3.68763  0  0  -0.106922  0  3.94133  0  0  -0.112092  0  3.960466  0  0  -0.075871  -0.105857  0  3.929753  0
C  C68  1  0.62179369  0.95475381  0.20585193  1  0  0.145924  0  3.701296  0  0  0.113637  0  3.95766  0  0  0.121415  0  3.975526  0  0  0.055173  0.11002  0  3.941901  0
C  C69  1  0.37820219  0.04524586  0.79414977  1  0  0.145983  0  3.701348  0  0  0.113642  0  3.957692  0  0  0.12142  0  3.975555  0  0  0.055166  0.110026  0  3.941927  0
C  C70  1  0.67103046  0.05224066  0.08130561  1  0  -0.043293  0  3.690092  0  0  -0.067966  0  3.937826  0  0  -0.066359  0  3.957173  0  0  -0.061729  -0.067771  0  3.9235  0
C  C71  1  0.32897114  0.94775900  0.91869589  1  0  -0.043279  0  3.690271  0  0  -0.068  0  3.937976  0  0  -0.066394  0  3.957325  0  0  -0.061736  -0.067798  0  3.923639  0
C  C72  1  0.74805399  0.32685585  0.07519270  1  0  -0.100508  0  3.729888  0  0  -0.125243  0  3.989747  0  0  -0.128709  0  4.011759  0  0  -0.08959  -0.12207  0  3.974271  0
C  C73  1  0.25195027  0.67314269  0.92480839  1  0  -0.100611  0  3.72986  0  0  -0.125372  0  3.989673  0  0  -0.12884  0  4.011684  0  0  -0.089614  -0.122192  0  3.97419  0
C  C74  1  0.78932090  0.49633060  0.35744590  1  0  0.160696  0  3.664477  0  0  0.129644  0  3.918029  0  0  0.13802  0  3.933779  0  0  0.064108  0.125067  0  3.907922  0
C  C75  1  0.21067838  0.50367241  0.64255548  1  0  0.160701  0  3.664371  0  0  0.129681  0  3.917873  0  0  0.138058  0  3.933622  0  0  0.06421  0.125108  0  3.90776  0
C  C76  1  0.70868908  0.19630468  0.11775063  1  0  0.020122  0  3.803017  0  0  0.037081  0  4.034234  0  0  0.033905  0  4.060654  0  0  -0.005738  0.038875  0  4.016323  0
C  C77  1  0.29131127  0.80369610  0.88225081  1  0  0.02017  0  3.802926  0  0  0.037267  0  4.03403  0  0  0.034092  0  4.060452  0  0  -0.005695  0.039054  0  4.016126  0
C  C78  1  0.62476114  0.93153004  0.12492924  1  0  -0.115701  0  3.724688  0  0  -0.130654  0  3.982752  0  0  -0.137068  0  4.003172  0  0  -0.082762  -0.126161  0  3.968327  0
C  C79  1  0.37523995  0.06846628  0.87507335  1  0  -0.115704  0  3.724752  0  0  -0.130688  0  3.982859  0  0  -0.137102  0  4.003277  0  0  -0.082742  -0.126192  0  3.968441  0
C  C80  1  0.16933720  0.06184176  0.14436764  1  0  -0.005442  0  3.689757  0  0  -0.03677  0  3.949929  0  0  -0.031234  0  3.966157  0  0  -0.062858  -0.040562  0  3.939396  0
C  C81  1  0.83067641  0.93815342  0.85563055  1  0  -0.005263  0  3.689592  0  0  -0.036597  0  3.949778  0  0  -0.031049  0  3.965996  0  0  -0.062787  -0.040386  0  3.939242  0
C  C82  1  0.27259992  0.53423964  0.14590889  1  0  0.597908  0  3.787683  0  0  0.546893  0  4.090227  0  0  0.580711  0  4.082098  0  0  0.235511  0.52372  0  4.095841  0
C  C83  1  0.72740404  0.46575779  0.85408925  1  0  0.598174  0  3.787438  0  0  0.547062  0  4.090128  0  0  0.580865  0  4.08199  0  0  0.235562  0.523876  0  4.095754  0
C  C84  1  0.21314834  0.29099891  0.07179812  1  0  0.598605  0  3.796226  0  0  0.548623  0  4.097944  0  0  0.582255  0  4.09001  0  0  0.235513  0.525557  0  4.103315  0
C  C85  1  0.78687692  0.70899735  0.92820088  1  0  0.598953  0  3.795972  0  0  0.548888  0  4.097798  0  0  0.582508  0  4.089858  0  0  0.235653  0.525813  0  4.103175  0
N  N86  1  0.75325989  0.36325356  0.31987395  1  0  -0.37372  0  3.253668  0  0  -0.305968  0  3.521039  0  0  -0.325612  0  3.541012  0  0  -0.320558  -0.294227  0  3.508272  0
N  N87  1  0.24673335  0.63674723  0.68012875  1  0  -0.373672  0  3.253755  0  0  -0.305888  0  3.52112  0  0  -0.325529  0  3.541088  0  0  -0.32058  -0.294148  0  3.508352  0
N  N88  1  0.66469997  0.08850669  0.24244614  1  0  -0.372652  0  3.26951  0  0  -0.304763  0  3.535896  0  0  -0.324439  0  3.556388  0  0  -0.323115  -0.290704  0  3.520636  0
N  N89  1  0.33529467  0.91149410  0.75755549  1  0  -0.372618  0  3.269419  0  0  -0.304674  0  3.53584  0  0  -0.32435  0  3.556334  0  0  -0.323062  -0.290609  0  3.520571  0
O  O90  1  0.45748190  0.16101882  0.44592732  1  0  -0.626282  0  2.025099  0  0  -0.55753  0  2.27516  0  0  -0.587102  0  2.264668  0  0  -0.314666  -0.536316  0  2.281646  0
O  O91  1  0.54251704  0.83898196  0.55407459  1  0  -0.626174  0  2.025175  0  0  -0.557417  0  2.275225  0  0  -0.586988  0  2.264734  0  0  -0.314608  -0.536205  0  2.28171  0
O  O92  1  0.25307872  0.28182105  0.50093017  1  0  -0.626407  0  2.008449  0  0  -0.561038  0  2.225196  0  0  -0.587948  0  2.215349  0  0  -0.302713  -0.541677  0  2.231178  0
O  O93  1  0.74691765  0.71818197  0.49906985  1  0  -0.626333  0  2.008335  0  0  -0.560997  0  2.225108  0  0  -0.587913  0  2.215265  0  0  -0.302686  -0.541633  0  2.231087  0
O  O94  1  0.21459483  0.86466143  0.37221868  1  0  -0.630846  0  2.019087  0  0  -0.561266  0  2.235116  0  0  -0.588705  0  2.226131  0  0  -0.303115  -0.541635  0  2.240926  0
O  O95  1  0.78540549  0.13533935  0.62778217  1  0  -0.630684  0  2.019079  0  0  -0.561239  0  2.235201  0  0  -0.588666  0  2.226218  0  0  -0.303125  -0.541604  0  2.241021  0
O  O96  1  0.00755465  0.02477801  0.39192146  1  0  -0.628303  0  2.009356  0  0  -0.567472  0  2.268393  0  0  -0.595324  0  2.256298  0  0  -0.318414  -0.547034  0  2.275956  0
O  O97  1  0.99244324  0.97522612  0.60807635  1  0  -0.62832  0  2.009428  0  0  -0.567437  0  2.268382  0  0  -0.595292  0  2.256294  0  0  -0.318369  -0.546983  0  2.275932  0
O  O98  1  0.87052382  0.26337065  0.49624531  1  0  -0.841885  0  1.875952  0  0  -0.776442  0  2.079926  0  0  -0.801115  0  2.044597  0  0  -0.591144  -0.758754  0  2.104541  0
O  O99  1  0.12947255  0.73663237  0.50375471  1  0  -0.841935  0  1.875837  0  0  -0.776478  0  2.079872  0  0  -0.80115  0  2.044535  0  0  -0.591192  -0.758792  0  2.10449  0
O  O100  1  0.59428300  0.88412917  0.37953404  1  0  -0.84868  0  1.91386  0  0  -0.784737  0  2.124464  0  0  -0.809384  0  2.089565  0  0  -0.590655  -0.767212  0  2.148571  0
O  O101  1  0.40571767  0.11587383  0.62046627  1  0  -0.848686  0  1.913836  0  0  -0.78477  0  2.124445  0  0  -0.809416  0  2.089548  0  0  -0.590669  -0.767237  0  2.148567  0
O  O102  1  0.25183410  0.44574892  0.07641316  1  0  -0.372373  0  2.245173  0  0  -0.302699  0  2.476169  0  0  -0.324481  0  2.468803  0  0  -0.136107  -0.287606  0  2.480972  0
O  O103  1  0.74817973  0.55424737  0.92358622  1  0  -0.372611  0  2.245022  0  0  -0.302899  0  2.47609  0  0  -0.324623  0  2.468679  0  0  -0.136181  -0.287782  0  2.480886  0
O  O104  1  0.29173886  0.66853104  0.13848752  1  0  -0.489939  0  1.924803  0  0  -0.448566  0  2.138494  0  0  -0.467314  0  2.131345  0  0  -0.259712  -0.435978  0  2.143925  0
O  O105  1  0.70825700  0.33146976  0.86150895  1  0  -0.490014  0  1.924747  0  0  -0.448602  0  2.138496  0  0  -0.467348  0  2.131344  0  0  -0.259708  -0.436011  0  2.143934  0
O  O106  1  0.18984030  0.23063926  0.00592340  1  0  -0.489514  0  1.923123  0  0  -0.4509  0  2.135558  0  0  -0.469733  0  2.128399  0  0  -0.261176  -0.438502  0  2.14105  0
O  O107  1  0.81020083  0.76935696  0.99407900  1  0  -0.489809  0  1.923204  0  0  -0.451137  0  2.135627  0  0  -0.469972  0  2.128467  0  0  -0.261342  -0.438736  0  2.141127  0
