# generated using pymatgen
data_CoH10C14(SN2)2
_symmetry_space_group_name_H-M   'P 1'
_cell_length_a   9.08694155
_cell_length_b   9.35272345
_cell_length_c   10.16957516
_cell_angle_alpha   115.07728319
_cell_angle_beta   110.34592800
_cell_angle_gamma   92.49937606
_symmetry_Int_Tables_number   1
_chemical_formula_structural   CoH10C14(SN2)2
_chemical_formula_sum   'Co2 H20 C28 S4 N8'
_cell_volume   715.17887382
_cell_formula_units_Z   2
loop_
 _symmetry_equiv_pos_site_id
 _symmetry_equiv_pos_as_xyz
  1  'x, y, z'
loop_
 _atom_site_type_symbol
 _atom_site_label
 _atom_site_symmetry_multiplicity
 _atom_site_fract_x
 _atom_site_fract_y
 _atom_site_fract_z
 _atom_site_occupancy
 _atom_site_pbe_cm5_charge
 _atom_site_pbe_ddec_charge
 _atom_site_pbe_ddec_spin_density
 _atom_site_pbe_ddec_sum_bond_order
 _atom_site_pbe_magmom
Co  Co0  1  0.00000222  0.50000062  0.00000011  1  0.663952  0.541495  -0.921473  3.38828  -0.767
Co  Co1  1  0.50000155  0.00000269  0.50000182  1  0.669925  0.54534  0.925605  3.385826  0.772
H  H2  1  0.34347799  0.51644046  0.15678852  1  0.119134  0.099189  9.3e-05  1.013918  0.0
H  H3  1  0.65652771  0.48355293  0.84321663  1  0.119152  0.099175  9.3e-05  1.013991  0.0
H  H4  1  0.52196449  0.32512268  0.14915301  1  0.103831  0.114243  -0.000421  1.026306  0.0
H  H5  1  0.47803568  0.67486708  0.85084708  1  0.103823  0.114209  -0.000421  1.026382  0.0
H  H6  1  0.10586456  0.94051099  0.78326971  1  0.102395  0.112784  0.000107  1.032587  0.0
H  H7  1  0.89413128  0.05949075  0.21672277  1  0.102401  0.112832  0.000107  1.032573  0.0
H  H8  1  0.94319999  0.14851188  0.80847046  1  0.118666  0.098154  6.5e-05  1.022413  0.0
H  H9  1  0.05680164  0.85149466  0.19152465  1  0.118662  0.09815  6.5e-05  1.022403  0.0
H  H10  1  0.35567471  0.86672146  0.85692031  1  0.092852  0.095329  -0.000756  1.050208  0.0
H  H11  1  0.64431921  0.13327183  0.14307034  1  0.092811  0.095235  -0.000756  1.050293  0.0
H  H12  1  0.63954488  0.87138715  0.72101279  1  0.11418  0.091322  -0.000111  1.030533  0.0
H  H13  1  0.36045274  0.12861714  0.27899007  1  0.114179  0.091316  -0.000111  1.030589  0.0
H  H14  1  0.82908486  0.69285757  0.74910942  1  0.104994  0.118556  6.1e-05  1.027965  0.0
H  H15  1  0.17091131  0.30714552  0.25089254  1  0.104991  0.118601  6.1e-05  1.027891  0.0
H  H16  1  0.86012741  0.64378471  0.31722151  1  0.103945  0.120957  0.000138  1.025416  0.0
H  H17  1  0.13987291  0.35621594  0.68278178  1  0.103933  0.120962  0.000138  1.025402  0.0
H  H18  1  0.67533765  0.82790366  0.31064795  1  0.113314  0.089932  -0.000119  1.028544  0.0
H  H19  1  0.32466556  0.17209939  0.68935616  1  0.113302  0.089909  -0.000119  1.028546  0.0
H  H20  1  0.00047934  0.53355382  0.66184800  1  0.096696  0.109148  0.000319  1.047822  0.0
H  H21  1  0.99952269  0.46644924  0.33815575  1  0.096714  0.109166  0.000319  1.047832  0.0
C  C22  1  0.29534905  0.38770787  0.07625110  1  0.042018  0.076844  0.002615  3.927193  0.003
C  C23  1  0.70465339  0.61228669  0.92374955  1  0.041942  0.076765  0.002615  3.927331  0.003
C  C24  1  0.39426099  0.27866885  0.07140988  1  -0.081773  -0.167043  -0.00136  3.915228  -0.002
C  C25  1  0.60573825  0.72132204  0.92858445  1  -0.081682  -0.166895  -0.00136  3.915374  -0.002
C  C26  1  0.32950926  0.11208059  0.96579453  1  0.0049  0.147829  0.002241  4.006644  0.003
C  C27  1  0.67048528  0.88791029  0.03419638  1  0.004959  0.147961  0.002241  4.006668  0.003
C  C28  1  0.16357343  0.06697718  0.86872977  1  -0.082807  -0.171354  -0.000698  3.931328  -0.001
C  C29  1  0.83642277  0.93302095  0.13126342  1  -0.082831  -0.171457  -0.000698  3.931389  -0.001
C  C30  1  0.07159732  0.18247816  0.88145703  1  0.04172  0.080307  0.001959  3.925187  0.002
C  C31  1  0.92840439  0.81752354  0.11853725  1  0.041754  0.080343  0.001959  3.925148  0.002
C  C32  1  0.42194930  0.98793472  0.95227390  1  -0.085321  -0.11421  -0.002106  3.950861  -0.001
C  C33  1  0.57804290  0.01205618  0.04771728  1  -0.085275  -0.114228  -0.002107  3.950905  -0.001
C  C34  1  0.69189707  0.81922927  0.63490775  1  0.039467  0.079618  -0.002779  3.933271  -0.003
C  C35  1  0.30810090  0.18077139  0.36509383  1  0.039521  0.079676  -0.002779  3.933288  -0.003
C  C36  1  0.79717887  0.71872782  0.64908529  1  -0.083511  -0.170919  0.00017  3.91967  0.001
C  C37  1  0.20281992  0.28127647  0.35091793  1  -0.083547  -0.171015  0.00017  3.919656  0.001
C  C38  1  0.86154888  0.64920177  0.53482557  1  0.005349  0.145919  -0.002594  4.022802  -0.003
C  C39  1  0.13844992  0.35080255  0.46517963  1  0.005308  0.145819  -0.002594  4.022978  -0.003
C  C40  1  0.81503862  0.69019486  0.41012457  1  -0.082565  -0.163492  0.000379  3.902148  0.0
C  C41  1  0.18496135  0.30980942  0.58987901  1  -0.082558  -0.163491  0.000379  3.902256  0.0
C  C42  1  0.71094629  0.79333792  0.40475034  1  0.040324  0.080812  -0.002435  3.924167  -0.003
C  C43  1  0.28905485  0.20666636  0.59525360  1  0.040329  0.080805  -0.002435  3.924201  -0.003
C  C44  1  0.96960695  0.54300374  0.55281685  1  -0.086296  -0.121623  0.000119  3.964189  -0.001
C  C45  1  0.03039186  0.45700058  0.44718835  1  -0.086268  -0.121489  0.000119  3.964103  -0.001
C  C46  1  0.19085529  0.69647874  0.35453183  1  0.155754  0.257  0.006548  4.282117  0.003
C  C47  1  0.80914321  0.30352429  0.64546787  1  0.155761  0.257002  0.006548  4.28208  0.003
C  C48  1  0.67831833  0.20707895  0.85467391  1  0.153085  0.247664  -0.006496  4.278733  -0.003
C  C49  1  0.32168668  0.79292170  0.14533181  1  0.153108  0.247797  -0.006496  4.278754  -0.003
S  S50  1  0.29960122  0.82041364  0.53955878  1  -0.11446  -0.279086  0.049853  2.534153  0.054
S  S51  1  0.70039584  0.17958820  0.46044100  1  -0.11446  -0.279078  0.049854  2.534191  0.054
S  S52  1  0.79797558  0.32239726  0.03923593  1  -0.109262  -0.290747  -0.046618  2.581675  -0.05
S  S53  1  0.20203150  0.67760216  0.96076996  1  -0.109282  -0.290787  -0.04662  2.581759  -0.05
N  N54  1  0.13502563  0.34196871  0.98397650  1  -0.333214  -0.178191  0.002585  3.658093  0.004
N  N55  1  0.86497673  0.65803066  0.01602300  1  -0.333265  -0.178206  0.002586  3.658076  0.004
N  N56  1  0.64830922  0.85779782  0.51472199  1  -0.331624  -0.172017  -0.003427  3.644673  -0.005
N  N57  1  0.35169309  0.14220645  0.48528231  1  -0.331621  -0.171976  -0.003427  3.644646  -0.005
N  N58  1  0.11179824  0.60724808  0.21850172  1  -0.419068  -0.451199  0.016493  3.577441  0.023
N  N59  1  0.88820349  0.39275370  0.78149752  1  -0.419076  -0.45119  0.016493  3.577376  0.023
N  N60  1  0.59542609  0.12528488  0.71827789  1  -0.409692  -0.429164  -0.015892  3.573127  -0.022
N  N61  1  0.40457622  0.87471938  0.28172641  1  -0.409693  -0.429308  -0.015892  3.573226  -0.022
