# generated using pymatgen
data_CdH14C10(N2Cl)2
_symmetry_space_group_name_H-M   'P 1'
_cell_length_a   8.58205077
_cell_length_b   8.73042532
_cell_length_c   8.73044218
_cell_angle_alpha   73.23446725
_cell_angle_beta   88.50283667
_cell_angle_gamma   88.50291437
_symmetry_Int_Tables_number   1
_chemical_formula_structural   CdH14C10(N2Cl)2
_chemical_formula_sum   'Cd2 H28 C20 N8 Cl4'
_cell_volume   625.99117695
_cell_formula_units_Z   2
loop_
 _symmetry_equiv_pos_site_id
 _symmetry_equiv_pos_as_xyz
  1  'x, y, z'
loop_
 _atom_site_type_symbol
 _atom_site_label
 _atom_site_symmetry_multiplicity
 _atom_site_fract_x
 _atom_site_fract_y
 _atom_site_fract_z
 _atom_site_occupancy
 _atom_site_pbe_bader_spin_density
 _atom_site_pbe_cm5_charge
 _atom_site_pbe_ddec_charge
 _atom_site_pbe_ddec_spin_density
 _atom_site_pbe_ddec_sum_bond_order
 _atom_site_pbe_magmom
Cd  Cd0  1  0.75000053  0.97793578  0.02206344  1  0  0.633166  0.787698  0  2.293357  0
Cd  Cd1  1  0.24999927  0.02206413  0.97793624  1  0  0.633168  0.787713  0  2.293332  0
H  H2  1  0.87249673  0.93638426  0.41845223  1  0  0.105716  0.10777  0  1.039193  0
H  H3  1  0.62750511  0.58154397  0.06361925  1  0  0.10571  0.107742  0  1.039229  0
H  H4  1  0.12750421  0.06361686  0.58154708  1  0  0.105717  0.107743  0  1.039237  0
H  H5  1  0.37249361  0.41845233  0.93638377  1  0  0.105683  0.107736  0  1.039271  0
H  H6  1  0.71037865  0.09716543  0.61161899  1  0  0.109687  0.12193  0  1.055184  0
H  H7  1  0.78962642  0.38837665  0.90283720  1  0  0.109692  0.121941  0  1.055239  0
H  H8  1  0.28962344  0.90283688  0.38838108  1  0  0.109673  0.121889  0  1.055251  0
H  H9  1  0.21037699  0.61161848  0.09716488  1  0  0.1097  0.121916  0  1.055208  0
H  H10  1  0.64355930  0.39685670  0.56434747  1  0  0.08584  0.087142  0  1.035902  0
H  H11  1  0.85644209  0.43565061  0.60314504  1  0  0.085847  0.087162  0  1.035901  0
H  H12  1  0.35644046  0.60314559  0.43565383  1  0  0.085834  0.087144  0  1.035936  0
H  H13  1  0.14356009  0.56434692  0.39685525  1  0  0.085845  0.087151  0  1.035925  0
H  H14  1  0.61845683  0.51409584  0.36216119  1  0  0.087626  0.086853  0  1.000023  0
H  H15  1  0.88154357  0.63783797  0.48590502  1  0  0.087606  0.086809  0  0.999989  0
H  H16  1  0.38154293  0.48590645  0.63784011  1  0  0.087597  0.086813  0  0.999974  0
H  H17  1  0.11845861  0.36215955  0.51409527  1  0  0.087607  0.086843  0  1.000037  0
H  H18  1  0.52342603  0.23213715  0.14598086  1  0  0.121415  0.093832  0  1.065891  0
H  H19  1  0.97657355  0.85401949  0.76786176  1  0  0.121433  0.09385  0  1.065906  0
H  H20  1  0.47657381  0.76786155  0.85402145  1  0  0.121413  0.093817  0  1.065926  0
H  H21  1  0.02342157  0.14598043  0.23213347  1  0  0.121416  0.093823  0  1.06594  0
H  H22  1  0.41391498  0.23612110  0.54959189  1  0  0.101948  0.091201  0  1.013554  0
H  H23  1  0.08608796  0.45040836  0.76387809  1  0  0.101934  0.091177  0  1.013592  0
H  H24  1  0.58608594  0.76388120  0.45040937  1  0  0.101956  0.091168  0  1.013578  0
H  H25  1  0.91391420  0.54959036  0.23612301  1  0  0.10194  0.091161  0  1.013573  0
H  H26  1  0.39069016  0.34531913  0.34420669  1  0  0.107176  0.0876  0  1.006469  0
H  H27  1  0.10931028  0.65579427  0.65468112  1  0  0.107169  0.087595  0  1.006484  0
H  H28  1  0.60931077  0.65468316  0.65579457  1  0  0.10718  0.087606  0  1.00647  0
H  H29  1  0.89068953  0.34420563  0.34531971  1  0  0.107182  0.087592  0  1.006494  0
C  C30  1  0.77616877  0.02224499  0.39131394  1  0  -0.013854  -0.054434  0  4.03306  0
C  C31  1  0.72383034  0.60868621  0.97775708  1  0  -0.013843  -0.054408  0  4.033053  0
C  C32  1  0.22383103  0.97775493  0.60868460  1  0  -0.013852  -0.054397  0  4.033101  0
C  C33  1  0.27616948  0.39131252  0.02224065  1  0  -0.01376  -0.054349  0  4.033033  0
C  C34  1  0.69752271  0.09989876  0.48750760  1  0  -0.001687  -0.099493  0  3.896183  0
C  C35  1  0.80247803  0.51248839  0.90010364  1  0  -0.001659  -0.099453  0  3.896107  0
C  C36  1  0.30247939  0.90010236  0.51249168  1  0  -0.001677  -0.099475  0  3.896202  0
C  C37  1  0.19752071  0.48750673  0.09989857  1  0  -0.001715  -0.099491  0  3.896143  0
C  C38  1  0.55701022  0.44528354  0.47162526  1  0  -0.169032  -0.164338  0  3.935308  0
C  C39  1  0.94299107  0.52837314  0.55471717  1  0  -0.169009  -0.164285  0  3.935295  0
C  C40  1  0.44298953  0.55471876  0.52837489  1  0  -0.168924  -0.164178  0  3.935184  0
C  C41  1  0.05701228  0.47162439  0.44528193  1  0  -0.168973  -0.16426  0  3.935334  0
C  C42  1  0.59871656  0.17471792  0.24469878  1  0  0.133791  0.091104  0  3.917293  0
C  C43  1  0.90128284  0.75530064  0.82528131  1  0  0.133805  0.091128  0  3.917298  0
C  C44  1  0.40128208  0.82528198  0.75530208  1  0  0.133855  0.091211  0  3.917367  0
C  C45  1  0.09871345  0.24469928  0.17471504  1  0  0.133833  0.091157  0  3.917435  0
C  C46  1  0.47522267  0.30477377  0.44043496  1  0  -0.05589  -0.063032  0  3.872803  0
C  C47  1  0.02477917  0.55956573  0.69522596  1  0  -0.055873  -0.063027  0  3.87286  0
C  C48  1  0.52477826  0.69522853  0.55956630  1  0  -0.055935  -0.063054  0  3.872771  0
C  C49  1  0.97522182  0.44043299  0.30477403  1  0  -0.055873  -0.062993  0  3.872757  0
N  N50  1  0.58541365  0.19573016  0.39231266  1  0  -0.242317  0.05038  0  3.756764  0
N  N51  1  0.91458763  0.60768588  0.80427059  1  0  -0.24235  0.050343  0  3.756804  0
N  N52  1  0.41458846  0.80427095  0.60768890  1  0  -0.24239  0.050311  0  3.756898  0
N  N53  1  0.08541105  0.39231165  0.19572751  1  0  -0.242379  0.050369  0  3.756973  0
N  N54  1  0.71352996  0.07038086  0.24003711  1  0  -0.369015  -0.299358  0  3.579774  0
N  N55  1  0.78647077  0.75996274  0.92961757  1  0  -0.369056  -0.299419  0  3.57979  0
N  N56  1  0.28646754  0.92961784  0.75996412  1  0  -0.369006  -0.299375  0  3.57976  0
N  N57  1  0.21352671  0.24003599  0.07037907  1  0  -0.369067  -0.299446  0  3.579903  0
Cl  Cl58  1  0.95959383  0.14451458  0.81780413  1  0  -0.318011  -0.531027  0  1.196073  0
Cl  Cl59  1  0.54040240  0.18219613  0.85548726  1  0  -0.31801  -0.531044  0  1.196071  0
Cl  Cl60  1  0.04040246  0.85548533  0.18219222  1  0  -0.317996  -0.531034  0  1.196082  0
Cl  Cl61  1  0.45959849  0.81780737  0.14451252  1  0  -0.318006  -0.531044  0  1.196073  0
