# generated using pymatgen
data_MnH28(C16O5)2
_symmetry_space_group_name_H-M   'P 1'
_cell_length_a   4.55459214
_cell_length_b   11.62306718
_cell_length_c   13.42139596
_cell_angle_alpha   90.07292497
_cell_angle_beta   96.98958745
_cell_angle_gamma   98.69828212
_symmetry_Int_Tables_number   1
_chemical_formula_structural   MnH28(C16O5)2
_chemical_formula_sum   'Mn1 H28 C32 O10'
_cell_volume   696.97461036
_cell_formula_units_Z   1
loop_
 _symmetry_equiv_pos_site_id
 _symmetry_equiv_pos_as_xyz
  1  'x, y, z'
loop_
 _atom_site_type_symbol
 _atom_site_label
 _atom_site_symmetry_multiplicity
 _atom_site_fract_x
 _atom_site_fract_y
 _atom_site_fract_z
 _atom_site_occupancy
 _atom_site_hle17_ddec_charge
 _atom_site_hle17_ddec_spin_density
 _atom_site_hle17_ddec_sum_bond_order
 _atom_site_hle17_magmom
 _atom_site_hse06_10hf_ddec_charge
 _atom_site_hse06_10hf_ddec_spin_density
 _atom_site_hse06_10hf_ddec_sum_bond_order
 _atom_site_hse06_10hf_magmom
 _atom_site_hse06_ddec_charge
 _atom_site_hse06_ddec_spin_density
 _atom_site_hse06_ddec_sum_bond_order
 _atom_site_hse06_magmom
 _atom_site_pbe_cm5_charge
 _atom_site_pbe_ddec_charge
 _atom_site_pbe_ddec_spin_density
 _atom_site_pbe_ddec_sum_bond_order
 _atom_site_pbe_magmom
Mn  Mn0  1  0.50000388  0.50000034  0.49999936  1  1.257808  4.797611  1.67825  4.689  1.115678  4.719391  2.157917  4.55  1.168102  4.762867  2.087716  4.611  0.59164  1.075973  4.673456  2.20898  4.487
H  H1  1  0.01422462  0.39509019  0.40444225  1  0.418477  -0.000539  0.887947  0.0  0.387614  0.000242  0.953848  0.001  0.398629  -1e-05  0.937933  0.001  0.295965  0.37985  0.00048  0.965007  0.001
H  H2  1  0.98577831  0.60490960  0.59555924  1  0.418448  -0.000538  0.887989  0.0  0.38758  0.000242  0.9539  0.001  0.398594  -1e-05  0.937986  0.001  0.295947  0.379814  0.00048  0.96506  0.001
H  H3  1  0.25644808  0.32105782  0.36946923  1  0.417806  0.000144  0.882972  0.001  0.377618  0.00094  0.964249  0.002  0.388859  0.000635  0.94759  0.002  0.301662  0.369688  0.001221  0.975962  0.002
H  H4  1  0.74355518  0.67894284  0.63053227  1  0.417812  0.000145  0.882936  0.001  0.37763  0.00094  0.96422  0.002  0.388871  0.000635  0.947559  0.002  0.301675  0.369703  0.001221  0.975929  0.002
H  H5  1  0.74206195  0.18507043  0.65541254  1  0.092904  -0.000217  0.954008  0.0  0.102482  -0.000109  1.017248  0.0  0.106128  -0.000147  1.014755  0.0  0.101448  0.099741  -6.8e-05  1.019228  0.0
H  H6  1  0.25793661  0.81492935  0.34458652  1  0.092918  -0.00022  0.954018  0.0  0.102496  -0.000109  1.017255  0.0  0.10614  -0.000147  1.014764  0.0  0.101449  0.099754  -6.7e-05  1.019234  0.0
H  H7  1  0.90019496  0.04329190  0.78213929  1  0.086981  1.1e-05  1.004096  0.0  0.095935  -1.5e-05  1.069266  0.0  0.098058  -1.2e-05  1.069998  0.0  0.092371  0.09438  -1.9e-05  1.068908  0.0
H  H8  1  0.09980579  0.95670789  0.21786062  1  0.086975  2.5e-05  1.004097  0.0  0.095928  -1.5e-05  1.069266  0.0  0.098051  -1.2e-05  1.069998  0.0  0.092368  0.094371  -1.9e-05  1.068906  0.0
H  H9  1  0.65405593  0.29552056  0.89896190  1  0.085733  5.5e-05  0.95465  0.0  0.097778  2.5e-05  1.015066  0.0  0.100639  1.8e-05  1.01433  0.0  0.095395  0.095717  2.8e-05  1.015709  0.0
H  H10  1  0.34594359  0.70448184  0.10103795  1  0.085693  5.6e-05  0.954643  0.0  0.097733  2.5e-05  1.01507  0.0  0.100593  1.8e-05  1.014337  0.0  0.095363  0.095673  2.8e-05  1.015714  0.0
H  H11  1  0.49864571  0.43536417  0.76850193  1  0.098584  -0.000398  0.965418  0.0  0.104348  -0.000402  1.035744  0.0  0.108005  -0.000414  1.033176  0.0  0.102596  0.1017  -0.000379  1.0376  0.0
H  H12  1  0.50135092  0.56463647  0.23149854  1  0.098607  -0.000429  0.965396  0.0  0.104345  -0.000402  1.035758  0.0  0.107998  -0.000414  1.033194  0.0  0.102594  0.101698  -0.000379  1.037614  0.0
H  H13  1  0.14631194  0.86995808  0.59967322  1  0.091983  -2.9e-05  0.931764  0.0  0.109762  9.8e-05  0.993658  0.0  0.110749  4.1e-05  0.992764  0.0  0.101841  0.108948  0.000161  0.994385  0.0
H  H14  1  0.85368695  0.13004257  0.40032586  1  0.09198  -7e-06  0.93172  0.0  0.109753  9.8e-05  0.993619  0.0  0.11074  4.1e-05  0.992726  0.0  0.101833  0.108937  0.000161  0.994347  0.0
H  H15  1  0.37841019  0.81322670  0.51929857  1  0.113989  -0.000302  0.938855  0.0  0.13068  -0.000286  1.001321  0.0  0.131975  -0.000324  1.000376  0.0  0.113078  0.129601  -0.000234  1.002149  0.0
H  H16  1  0.62158866  0.18677395  0.48070200  1  0.11399  -0.000285  0.938841  0.0  0.130684  -0.000286  1.001302  0.0  0.131978  -0.000324  1.000356  0.0  0.113076  0.129604  -0.000234  1.002132  0.0
H  H17  1  0.51207020  0.94928726  0.58733924  1  0.071872  2.6e-05  0.940437  0.0  0.090951  5.1e-05  1.005008  0.0  0.090935  4.5e-05  1.004986  0.0  0.095385  0.090954  6.1e-05  1.004966  0.0
H  H18  1  0.48792867  0.05071339  0.41266058  1  0.071859  3.2e-05  0.940468  0.0  0.090938  5.1e-05  1.005032  0.0  0.090923  4.5e-05  1.00501  0.0  0.095375  0.090941  6.1e-05  1.00499  0.0
H  H19  1  0.33532077  0.98782640  0.73669735  1  0.102046  -2e-06  0.999857  0.0  0.11218  1e-06  1.065047  0.0  0.114781  -5e-06  1.06454  0.0  0.101167  0.110357  7e-06  1.065442  0.0
H  H20  1  0.66468031  0.01217426  0.26330257  1  0.10207  -1.7e-05  0.999841  0.0  0.112204  2e-06  1.065029  0.0  0.114806  -5e-06  1.064521  0.0  0.101171  0.110379  7e-06  1.065422  0.0
H  H21  1  0.19767789  0.25920260  0.00689336  1  0.100059  2e-06  0.9984  0.0  0.109992  1.8e-05  1.064441  0.0  0.112646  8e-06  1.063883  0.0  0.098738  0.108148  3e-05  1.064857  0.0
H  H22  1  0.80232541  0.74079806  0.99310666  1  0.100049  -0.0  0.998409  0.0  0.109982  1.8e-05  1.064443  0.0  0.112637  8e-06  1.063884  0.0  0.09872  0.10814  3e-05  1.06486  0.0
H  H23  1  0.02630796  0.54117349  0.82293401  1  0.103705  -3.6e-05  0.934198  0.0  0.120654  6.1e-05  0.995709  0.0  0.120972  1.7e-05  0.996106  0.0  0.107955  0.120266  0.000115  0.995593  0.0
H  H24  1  0.97369090  0.45882716  0.17706581  1  0.10374  -2.9e-05  0.934155  0.0  0.120683  6.1e-05  0.995674  0.0  0.121002  1.7e-05  0.996069  0.0  0.107958  0.120294  0.000115  0.995562  0.0
H  H25  1  0.79924259  0.55919230  0.92090662  1  0.074054  8e-06  0.930122  0.0  0.094256  1.4e-05  0.990316  0.0  0.094546  1.3e-05  0.989894  0.0  0.095736  0.094017  1.9e-05  0.990604  0.0
H  H26  1  0.20075595  0.44080748  0.07909319  1  0.074057  8e-06  0.930136  0.0  0.094259  1.5e-05  0.990326  0.0  0.094549  1.3e-05  0.989905  0.0  0.09574  0.094019  1.9e-05  0.990617  0.0
H  H27  1  0.13405667  0.66104571  0.91067768  1  0.078195  -4e-06  0.967777  0.0  0.092754  8e-06  1.039443  0.0  0.092859  7e-06  1.040141  0.0  0.094262  0.092615  1e-05  1.038998  0.0
H  H28  1  0.86594189  0.33895407  0.08932138  1  0.078183  1.2e-05  0.967789  0.0  0.092743  8e-06  1.039455  0.0  0.092847  7e-06  1.040154  0.0  0.094257  0.092604  1e-05  1.039009  0.0
C  C29  1  0.01137521  0.40448314  0.63010118  1  0.667576  0.011338  3.863057  0.011  0.612307  0.019661  4.157622  0.017  0.648751  0.014564  4.148812  0.013  0.223232  0.586645  0.025286  4.16325  0.022
C  C30  1  0.98862780  0.59551666  0.36989734  1  0.667506  0.011331  3.863231  0.011  0.612196  0.019662  4.157836  0.017  0.648639  0.014565  4.14903  0.013  0.223196  0.586535  0.025288  4.163462  0.022
C  C31  1  0.11196055  0.31859258  0.70402595  1  -0.070264  -0.001918  3.765377  -0.001  -0.049965  -0.001406  4.003985  -0.001  -0.058044  -0.001865  4.025792  -0.001  -0.020379  -0.044861  -0.001175  3.989816  -0.001
C  C32  1  0.88803577  0.68140720  0.29597376  1  -0.070244  -0.001959  3.765408  -0.001  -0.049884  -0.001405  4.003939  -0.001  -0.057962  -0.001869  4.025745  -0.001  -0.020335  -0.04478  -0.001175  3.989769  -0.001
C  C33  1  0.94563449  0.20747352  0.70772712  1  -0.058876  0.002418  3.752056  0.002  -0.083147  0.002938  3.999988  0.003  -0.082077  0.002362  4.019298  0.002  -0.084932  -0.083822  0.004053  3.987181  0.003
C  C34  1  0.05436627  0.79252626  0.29227278  1  -0.058892  0.002457  3.752043  0.002  -0.083175  0.002938  3.999953  0.003  -0.082105  0.002365  4.019261  0.002  -0.084933  -0.083852  0.004054  3.987143  0.003
C  C35  1  0.03407572  0.12874882  0.77895428  1  -0.126995  -0.002035  3.749266  -0.001  -0.143239  -0.001251  3.993141  -0.001  -0.147305  -0.001571  4.013855  -0.001  -0.097034  -0.140522  -0.001315  3.979224  -0.001
C  C36  1  0.96592314  0.87125183  0.22104555  1  -0.126957  -0.002124  3.749229  -0.001  -0.143144  -0.00125  3.993149  -0.001  -0.147205  -0.001575  4.013864  -0.001  -0.096992  -0.140426  -0.001315  3.979226  -0.001
C  C37  1  0.28736761  0.15913425  0.84991259  1  0.076399  0.00234  3.761131  0.002  0.094545  0.002837  3.985574  0.002  0.096164  0.002304  4.008306  0.002  -0.00317  0.093397  0.003962  3.970175  0.003
C  C38  1  0.71263721  0.84086468  0.15008898  1  0.076428  0.002368  3.761056  0.002  0.094396  0.002837  3.98573  0.002  0.096001  0.002306  4.008487  0.002  -0.003183  0.093247  0.003963  3.970332  0.003
C  C39  1  0.45251398  0.27135203  0.84588264  1  -0.124959  -0.002019  3.758246  -0.001  -0.14064  -0.001153  4.004982  -0.001  -0.145185  -0.001513  4.026576  -0.001  -0.093287  -0.137634  -0.00111  3.990505  -0.001
C  C40  1  0.54748196  0.72864687  0.15411928  1  -0.124903  -0.002076  3.758165  -0.001  -0.140516  -0.001152  4.004923  -0.001  -0.145056  -0.001518  4.026519  -0.001  -0.093268  -0.137513  -0.00111  3.990454  -0.001
C  C41  1  0.36765259  0.34955183  0.77355904  1  -0.069393  0.002123  3.758535  0.002  -0.097342  0.002329  4.015648  0.002  -0.096052  0.001917  4.035076  0.002  -0.087707  -0.098161  0.00319  4.002725  0.003
C  C42  1  0.63234595  0.65044795  0.22644077  1  -0.069451  0.002216  3.758608  0.002  -0.097404  0.002325  4.015702  0.002  -0.096114  0.001922  4.03513  0.002  -0.08772  -0.098221  0.00319  4.002775  0.003
C  C43  1  0.37811601  0.86211950  0.58903786  1  -0.073318  7.6e-05  3.614164  0.0  -0.169205  0.000233  3.870162  0.0  -0.162494  0.000112  3.87422  0.0  -0.134436  -0.173597  0.000363  3.867376  0.0
C  C44  1  0.62188065  0.13788114  0.41096187  1  -0.073353  7e-06  3.614054  0.0  -0.169209  0.000232  3.870044  0.0  -0.162498  0.000112  3.874102  0.0  -0.13445  -0.173602  0.000363  3.867263  0.0
C  C45  1  0.52626982  0.83297969  0.76378044  1  0.186531  6.6e-05  3.807585  0.0  0.167326  9.8e-05  4.076652  0.0  0.177801  6.9e-05  4.089516  0.0  0.076186  0.160005  0.000134  4.06808  0.0
C  C46  1  0.47372903  0.16702096  0.23622013  1  0.186639  1.4e-05  3.807466  0.0  0.167432  9.7e-05  4.076571  0.0  0.177908  6.5e-05  4.089431  0.0  0.076247  0.160113  0.000134  4.067987  0.0
C  C47  1  0.43022052  0.93257485  0.79320686  1  -0.247141  2e-06  3.784003  0.0  -0.275705  7.9e-05  4.045965  0.0  -0.280482  3.9e-05  4.064388  0.0  -0.118008  -0.27241  0.00012  4.033582  0.0
C  C48  1  0.56977832  0.06742580  0.20679371  1  -0.247216  8.7e-05  3.784023  0.0  -0.275785  7.8e-05  4.045974  0.0  -0.280561  4.3e-05  4.064394  0.0  -0.118035  -0.272495  0.00012  4.033579  0.0
C  C49  1  0.46113949  0.96841127  0.89632206  1  0.044018  0.000166  3.775762  0.0  0.048429  0.000254  4.020567  0.0  0.048515  0.000185  4.044044  0.0  -0.009856  0.048341  0.000376  4.004655  0.0
C  C50  1  0.53885716  0.03158937  0.10367767  1  0.04395  0.000178  3.775781  0.0  0.048415  0.000254  4.020524  0.0  0.048501  0.000184  4.043999  0.0  -0.009865  0.048337  0.000376  4.00459  0.0
C  C51  1  0.38510211  0.07589036  0.92605368  1  -0.033915  4.6e-05  3.685853  0.0  -0.031155  0.000185  3.925729  0.0  -0.031495  6.7e-05  3.947054  0.0  -0.007935  -0.030854  0.000321  3.911195  0.0
C  C52  1  0.61490049  0.92410856  0.07394780  1  -0.033866  1e-05  3.685733  0.0  -0.031083  0.000184  3.925634  0.0  -0.031418  7e-05  3.946961  0.0  -0.007912  -0.030782  0.000321  3.911096  0.0
C  C53  1  0.41512685  0.10620986  0.02932951  1  0.038409  7.1e-05  3.783419  0.0  0.04343  0.000163  4.027619  0.0  0.043618  0.00012  4.051027  0.0  -0.012501  0.043311  0.00025  4.011705  0.0
C  C54  1  0.58487169  0.89378992  0.97067030  1  0.038336  8.9e-05  3.783469  0.0  0.043397  0.000164  4.027649  0.0  0.043584  0.000119  4.051055  0.0  -0.012519  0.043277  0.00025  4.011743  0.0
C  C55  1  0.30761301  0.20720271  0.06279767  1  -0.253675  -3.1e-05  3.792746  0.0  -0.282844  2.3e-05  4.053851  0.0  -0.287969  -1e-06  4.073543  0.0  -0.11961  -0.279273  3.8e-05  4.040474  0.0
C  C56  1  0.69238774  0.79279707  0.93720223  1  -0.253665  2.2e-05  3.792776  0.0  -0.282846  2.2e-05  4.053857  0.0  -0.287969  1e-06  4.07355  0.0  -0.119606  -0.279267  3.8e-05  4.040484  0.0
C  C57  1  0.66941473  0.76307445  0.83724530  1  0.179625  1.7e-05  3.824174  0.0  0.163839  4.3e-05  4.092301  0.0  0.1732  3.3e-05  4.106741  0.0  0.073784  0.157328  6.8e-05  4.082636  0.0
C  C58  1  0.33058157  0.23692533  0.16275516  1  0.179602  4.6e-05  3.824116  0.0  0.163812  4.4e-05  4.09227  0.0  0.173182  3.3e-05  4.106709  0.0  0.073766  0.157306  6.8e-05  4.082593  0.0
C  C59  1  0.94344284  0.60469908  0.86840418  1  -0.071249  6e-05  3.628553  0.0  -0.163172  0.000103  3.884075  0.0  -0.156384  6.9e-05  3.888481  0.0  -0.137334  -0.167534  0.000141  3.88097  0.0
C  C60  1  0.05655570  0.39530070  0.13159563  1  -0.071305  2.2e-05  3.628581  0.0  -0.163218  0.000103  3.884078  0.0  -0.156421  6.9e-05  3.888489  0.0  -0.137354  -0.167582  0.000141  3.880978  0.0
O  O61  1  0.19569274  0.49799902  0.61829815  1  -0.68539  0.023991  2.039159  0.01  -0.617696  0.031575  2.293656  0.015  -0.645124  0.028217  2.276911  0.012  -0.31408  -0.597571  0.034744  2.304722  0.017
O  O62  1  0.80430550  0.50199989  0.38170090  1  -0.685407  0.023995  2.039177  0.01  -0.617709  0.031578  2.2937  0.015  -0.645136  0.02822  2.276953  0.012  -0.314107  -0.597587  0.034748  2.304767  0.017
O  O63  1  0.18724772  0.35387310  0.42822701  1  -0.835208  0.031428  1.907308  0.02  -0.776676  0.040147  2.118696  0.025  -0.800589  0.036004  2.083983  0.021  -0.571776  -0.758654  0.044072  2.142663  0.028
O  O64  1  0.81275298  0.64612668  0.57177513  1  -0.83519  0.031424  1.907314  0.02  -0.776641  0.040147  2.118697  0.025  -0.800553  0.036004  2.083989  0.021  -0.571768  -0.758618  0.044071  2.142662  0.028
O  O65  1  0.74675922  0.38234064  0.58498676  1  -0.63755  0.034666  2.038324  0.023  -0.57431  0.042933  2.302059  0.028  -0.604017  0.037863  2.290093  0.024  -0.301116  -0.552768  0.048277  2.309882  0.033
O  O66  1  0.25324318  0.61765741  0.41501024  1  -0.637507  0.034666  2.038426  0.023  -0.574253  0.042934  2.302192  0.028  -0.603958  0.037863  2.290228  0.024  -0.301095  -0.552715  0.048277  2.310013  0.033
O  O67  1  0.50799335  0.79443758  0.66693249  1  -0.234931  -0.000161  2.40376  0.0  -0.15118  3e-06  2.637847  0.0  -0.169318  -0.000103  2.640161  0.0  -0.173764  -0.138545  0.000124  2.635992  0.0
O  O68  1  0.49200519  0.20556220  0.33306732  1  -0.234892  -0.000153  2.403662  0.0  -0.151181  3e-06  2.63779  0.0  -0.169316  -0.000103  2.6401  0.0  -0.173754  -0.138549  0.000124  2.635933  0.0
O  O69  1  0.77700488  0.67114739  0.79892968  1  -0.234956  -0.000182  2.370762  0.0  -0.158438  -0.000137  2.608997  0.0  -0.175342  -0.00018  2.610967  0.0  -0.17968  -0.146782  -8.2e-05  2.607454  0.0
O  O70  1  0.22299399  0.32885326  0.20107015  1  -0.234927  -0.000169  2.370751  0.0  -0.158402  -0.000138  2.608974  0.0  -0.175325  -0.00018  2.610957  0.0  -0.179673  -0.146749  -8.2e-05  2.607431  0.0
