# generated using pymatgen
data_InH5C8O5
_symmetry_space_group_name_H-M   'P 1'
_cell_length_a   7.27286666
_cell_length_b   21.95207076
_cell_length_c   21.93320719
_cell_angle_alpha   119.52842816
_cell_angle_beta   89.99957503
_cell_angle_gamma   90.00040585
_symmetry_Int_Tables_number   1
_chemical_formula_structural   InH5C8O5
_chemical_formula_sum   'In6 H30 C48 O30'
_cell_volume   3046.89895480
_cell_formula_units_Z   6
loop_
 _symmetry_equiv_pos_site_id
 _symmetry_equiv_pos_as_xyz
  1  'x, y, z'
loop_
 _atom_site_type_symbol
 _atom_site_label
 _atom_site_symmetry_multiplicity
 _atom_site_fract_x
 _atom_site_fract_y
 _atom_site_fract_z
 _atom_site_occupancy
 _atom_site_pbe_bader_charge
 _atom_site_pbe_bader_spin_density
 _atom_site_pbe_cm5_charge
 _atom_site_pbe_ddec_charge
 _atom_site_pbe_ddec_spin_density
 _atom_site_pbe_ddec_sum_bond_order
 _atom_site_pbe_magmom
In  In0  1  0.00038905  0.00059649  0.49981875  1  1.960306  0  0.773352  1.542418  0  2.806221  0
In  In1  1  0.49960761  0.00059581  0.49981871  1  1.960349  0  0.773374  1.542523  0  2.806204  0
In  In2  1  0.50020271  0.49876468  0.99990434  1  1.962395  0  0.774401  1.545116  0  2.804409  0
In  In3  1  0.99979388  0.49876349  0.99990313  1  1.962332  0  0.774517  1.545124  0  2.804106  0
In  In4  1  0.99986847  0.00195987  0.00162112  1  1.959649  0  0.774552  1.543982  0  2.79876  0
In  In5  1  0.50013017  0.00195792  0.00162077  1  1.959764  0  0.774636  1.543931  0  2.798582  0
H  H6  1  0.54520742  0.20683701  0.68030958  1  0.080921  0  0.105605  0.106698  0  1.006011  0
H  H7  1  0.95487057  0.02959708  0.32058342  1  0.082781  0  0.109258  0.115718  0  0.996466  0
H  H8  1  0.95473713  0.03553000  0.20871905  1  0.079968  0  0.109922  0.115589  0  0.996991  0
H  H9  1  0.04504629  0.79423442  0.31971263  1  0.093879  0  0.106218  0.107538  0  1.004879  0
H  H10  1  0.45500219  0.96950451  0.67763357  1  0.097973  0  0.110166  0.116629  0  0.996196  0
H  H11  1  0.45479877  0.96525011  0.79018051  1  0.07487  0  0.104144  0.105166  0  1.007097  0
H  H12  1  0.95493026  0.32044846  0.79439792  1  0.091866  0  0.110719  0.116432  0  0.996226  0
H  H13  1  0.54505660  0.67846489  0.96960761  1  0.070084  0  0.105377  0.107329  0  1.005079  0
H  H14  1  0.54503860  0.79082179  0.96550756  1  0.100991  0  0.105169  0.106515  0  1.006278  0
H  H15  1  0.45493697  0.67967396  0.20685019  1  0.095122  0  0.105494  0.107823  0  1.004652  0
H  H16  1  0.04517373  0.32019630  0.02878804  1  0.08545  0  0.109792  0.115164  0  0.997813  0
H  H17  1  0.04525771  0.20912962  0.03598495  1  0.083767  0  0.110458  0.116289  0  0.996314  0
H  H18  1  0.45495481  0.79423367  0.31971312  1  0.095425  0  0.106228  0.107547  0  1.00487  0
H  H19  1  0.04498917  0.96950891  0.67763489  1  0.099171  0  0.110144  0.116596  0  0.996183  0
H  H20  1  0.04519824  0.96525452  0.79018274  1  0.07662  0  0.104157  0.105162  0  1.007046  0
H  H21  1  0.95479420  0.20683627  0.68030870  1  0.082426  0  0.105589  0.10671  0  1.005842  0
H  H22  1  0.54512429  0.02959572  0.32058371  1  0.084335  0  0.109259  0.115787  0  0.996346  0
H  H23  1  0.54526035  0.03552917  0.20871915  1  0.081426  0  0.109938  0.115618  0  0.997012  0
H  H24  1  0.04506008  0.67967471  0.20684879  1  0.096675  0  0.105493  0.107821  0  1.004683  0
H  H25  1  0.45482100  0.32019451  0.02878755  1  0.083832  0  0.109769  0.115119  0  0.997773  0
H  H26  1  0.45474136  0.20912731  0.03598285  1  0.085143  0  0.110476  0.116299  0  0.996424  0
H  H27  1  0.54507261  0.32044815  0.79439827  1  0.090402  0  0.11071  0.116415  0  0.996192  0
H  H28  1  0.95493762  0.67846730  0.96960875  1  0.068485  0  0.105384  0.107358  0  1.005242  0
H  H29  1  0.95495949  0.79082314  0.96550773  1  0.099555  0  0.105155  0.106505  0  1.006228  0
H  H30  1  0.24999681  0.53682544  0.10038535  1  0.57166  0  0.32439  0.409051  0  0.883569  0
H  H31  1  0.75000198  0.10026906  0.53500959  1  0.615514  0  0.32504  0.407845  0  0.884832  0
H  H32  1  0.24999663  0.90068005  0.46484701  1  0.61416  0  0.323991  0.406313  0  0.887011  0
H  H33  1  0.74999941  0.53904171  0.93864990  1  0.609422  0  0.323557  0.407689  0  0.885818  0
H  H34  1  0.75000144  0.91944517  0.01007798  1  0.589336  0  0.319254  0.399154  0  0.901474  0
H  H35  1  0.25000408  0.01065108  0.91922996  1  0.593077  0  0.320336  0.401338  0  0.898229  0
C  C36  1  0.41682888  0.23252354  0.70538282  1  -0.053471  0  -0.079932  -0.089684  0  3.972238  0
C  C37  1  0.08294370  0.03112618  0.29559777  1  -0.037962  0  -0.079431  -0.09172  0  3.966184  0
C  C38  1  0.08290592  0.03457979  0.23396496  1  0.034096  0  -0.078905  -0.091793  0  3.966224  0
C  C39  1  0.91674108  0.76823306  0.29493132  1  0.00431  0  -0.079882  -0.089556  0  3.971675  0
C  C40  1  0.58303944  0.96841400  0.70286105  1  -0.000667  0  -0.078452  -0.090248  0  3.963972  0
C  C41  1  0.58322297  0.96611151  0.76509934  1  -0.053697  0  -0.080943  -0.090007  0  3.973852  0
C  C42  1  0.08304986  0.29524752  0.76851507  1  0.012279  0  -0.077818  -0.090023  0  3.962052  0
C  C43  1  0.41671684  0.70335771  0.96828010  1  0.025842  0  -0.080588  -0.090214  0  3.971503  0
C  C44  1  0.41667216  0.76561728  0.96615091  1  -0.079822  0  -0.079471  -0.088432  0  3.970561  0
C  C45  1  0.58327837  0.70484552  0.23246360  1  -0.06139  0  -0.080572  -0.090262  0  3.97152  0
C  C46  1  0.91708823  0.29547059  0.03070911  1  -0.050793  0  -0.078934  -0.091886  0  3.967184  0
C  C47  1  0.91707791  0.23426526  0.03485925  1  0.043327  0  -0.078062  -0.090228  0  3.964246  0
C  C48  1  0.58325635  0.76823177  0.29493063  1  0.004308  0  -0.07988  -0.089551  0  3.971508  0
C  C49  1  0.91695867  0.96841686  0.70286479  1  -0.000534  0  -0.07842  -0.090189  0  3.963798  0
C  C50  1  0.91676545  0.96611491  0.76510061  1  -0.053782  0  -0.080982  -0.090004  0  3.97436  0
C  C51  1  0.08317777  0.23252329  0.70538265  1  -0.05348  0  -0.079945  -0.089761  0  3.972195  0
C  C52  1  0.41704717  0.03112538  0.29559788  1  -0.037947  0  -0.07943  -0.091833  0  3.966337  0
C  C53  1  0.41709602  0.03457899  0.23396507  1  0.034123  0  -0.07892  -0.09178  0  3.966073  0
C  C54  1  0.91672185  0.70484577  0.23246286  1  -0.061487  0  -0.08055  -0.090266  0  3.971517  0
C  C55  1  0.58291876  0.29547034  0.03070895  1  -0.050687  0  -0.078913  -0.091774  0  3.967415  0
C  C56  1  0.58290981  0.23426501  0.03485908  1  0.043593  0  -0.078095  -0.090311  0  3.964195  0
C  C57  1  0.41694296  0.29524724  0.76851543  1  0.012279  0  -0.07784  -0.09005  0  3.962288  0
C  C58  1  0.08326648  0.70335799  0.96828111  1  0.026036  0  -0.080627  -0.090293  0  3.971374  0
C  C59  1  0.08332905  0.76561860  0.96615061  1  -0.08016  0  -0.079497  -0.088468  0  3.970714  0
C  C60  1  0.24999507  0.13058953  0.60824027  1  1.572127  0  0.245779  0.627743  0  4.146835  0
C  C61  1  0.24999921  0.20038188  0.67373017  1  -0.008795  0  -0.011674  -0.033023  0  3.95453  0
C  C62  1  0.24999221  0.02256836  0.39137107  1  1.556578  0  0.241066  0.611731  0  4.17524  0
C  C63  1  0.24999988  0.02896309  0.32647261  1  -0.062246  0  -0.012013  -0.028166  0  3.955026  0
C  C64  1  0.24999583  0.03593279  0.20266352  1  -0.024562  0  -0.011146  -0.029365  0  3.956411  0
C  C65  1  0.25001171  0.03532791  0.13413943  1  1.546074  0  0.243358  0.613133  0  4.16627  0
C  C66  1  0.74999667  0.87053923  0.39168815  1  1.572219  0  0.245363  0.624901  0  4.148522  0
C  C67  1  0.75000352  0.80052542  0.32635506  1  -0.0528  0  -0.009676  -0.027446  0  3.950037  0
C  C68  1  0.75000090  0.97710010  0.60721074  1  1.54871  0  0.240941  0.612484  0  4.174693  0
C  C69  1  0.74999461  0.97041490  0.67194224  1  -0.041185  0  -0.01037  -0.025005  0  3.951257  0
C  C70  1  0.75000416  0.96580303  0.79709657  1  -0.002282  0  -0.012267  -0.030351  0  3.951793  0
C  C71  1  0.74998966  0.96850140  0.86669337  1  1.571382  0  0.24035  0.620633  0  4.159631  0
C  C72  1  0.24999217  0.39159096  0.87099961  1  1.572681  0  0.24614  0.616175  0  4.16202  0
C  C73  1  0.25000601  0.32651758  0.80077057  1  -0.054232  0  -0.008796  -0.025647  0  3.947793  0
C  C74  1  0.24998368  0.60709902  0.97598906  1  1.558  0  0.240313  0.621725  0  4.163556  0
C  C75  1  0.24999956  0.67214177  0.96994228  1  -0.034172  0  -0.011719  -0.028166  0  3.951599  0
C  C76  1  0.24999407  0.79753932  0.96573867  1  -0.0061  0  -0.010228  -0.025067  0  3.945277  0
C  C77  1  0.25000441  0.86705462  0.96825812  1  1.570547  0  0.239664  0.619366  0  4.162619  0
C  C78  1  0.75001188  0.60660126  0.13130584  1  1.559736  0  0.240295  0.620386  0  4.161296  0
C  C79  1  0.74999806  0.67292375  0.20058228  1  -0.018088  0  -0.010512  -0.02649  0  3.948595  0
C  C80  1  0.75002043  0.39010560  0.02046585  1  1.548547  0  0.244559  0.616474  0  4.162193  0
C  C81  1  0.74999491  0.32604275  0.02809593  1  -0.025062  0  -0.010575  -0.029333  0  3.958216  0
C  C82  1  0.75000451  0.20309374  0.03642812  1  -0.046485  0  -0.009671  -0.029198  0  3.956003  0
C  C83  1  0.74999004  0.13462623  0.03583522  1  1.546614  0  0.243703  0.613462  0  4.165782  0
O  O84  1  0.09364956  0.10340396  0.58319988  1  -1.18072  0  -0.289004  -0.588076  0  2.297231  0
O  O85  1  0.09333154  0.01992129  0.41605984  1  -1.171234  0  -0.287642  -0.582377  0  2.320243  0
O  O86  1  0.09372425  0.03449394  0.10741296  1  -1.171054  0  -0.283895  -0.570097  0  2.302359  0
O  O87  1  0.59359892  0.89760450  0.41658168  1  -1.179657  0  -0.288178  -0.585848  0  2.29738  0
O  O88  1  0.59326383  0.97997203  0.58277210  1  -1.17012  0  -0.286932  -0.581493  0  2.318555  0
O  O89  1  0.59341426  0.97010965  0.89375570  1  -1.179986  0  -0.29328  -0.597649  0  2.299256  0
O  O90  1  0.40639951  0.41627683  0.89805479  1  -1.173248  0  -0.284318  -0.571866  0  2.307586  0
O  O91  1  0.40669188  0.58241582  0.97869490  1  -1.182316  0  -0.291534  -0.597302  0  2.30843  0
O  O92  1  0.40662105  0.89392341  0.96977522  1  -1.182633  0  -0.292052  -0.595649  0  2.296941  0
O  O93  1  0.90662691  0.58138296  0.10457282  1  -1.183418  0  -0.291711  -0.59695  0  2.303018  0
O  O94  1  0.90638823  0.41458325  0.01726963  1  -1.171198  0  -0.283768  -0.572597  0  2.312366  0
O  O95  1  0.90625827  0.10789625  0.03495335  1  -1.170468  0  -0.283955  -0.570105  0  2.300332  0
O  O96  1  0.90640130  0.89760367  0.41658317  1  -1.179511  0  -0.288183  -0.585875  0  2.297272  0
O  O97  1  0.90672620  0.97997436  0.58277468  1  -1.17073  0  -0.286929  -0.581461  0  2.318736  0
O  O98  1  0.90659063  0.97011145  0.89375667  1  -1.179831  0  -0.293282  -0.597715  0  2.299002  0
O  O99  1  0.40634744  0.10340210  0.58320039  1  -1.180597  0  -0.289043  -0.588123  0  2.29713  0
O  O100  1  0.40666466  0.01992100  0.41605976  1  -1.171237  0  -0.287627  -0.582455  0  2.319988  0
O  O101  1  0.40626676  0.03449259  0.10741509  1  -1.171215  0  -0.283813  -0.569918  0  2.302936  0
O  O102  1  0.59336391  0.58138273  0.10457082  1  -1.183786  0  -0.291701  -0.597031  0  2.302663  0
O  O103  1  0.59361473  0.41459191  0.01727659  1  -1.171366  0  -0.283913  -0.572804  0  2.311448  0
O  O104  1  0.59375563  0.10789654  0.03495433  1  -1.170845  0  -0.283959  -0.569963  0  2.301004  0
O  O105  1  0.09361776  0.41627976  0.89805024  1  -1.173295  0  -0.284173  -0.57173  0  2.308118  0
O  O106  1  0.09330651  0.58242029  0.97869796  1  -1.182532  0  -0.291456  -0.597143  0  2.309027  0
O  O107  1  0.09336768  0.89392685  0.96977686  1  -1.18247  0  -0.292103  -0.595785  0  2.296684  0
O  O108  1  0.24999814  0.95004813  0.50014189  1  -1.203816  0  -0.522419  -0.87667  0  2.043984  0
O  O109  1  0.74999910  0.05083360  0.49990786  1  -1.203154  0  -0.522295  -0.876608  0  2.042875  0
O  O110  1  0.24999973  0.50099668  0.05117525  1  -1.159498  0  -0.522452  -0.87886  0  2.043047  0
O  O111  1  0.74999750  0.50237790  0.95135636  1  -1.198043  0  -0.522511  -0.878552  0  2.046105  0
O  O112  1  0.25000095  0.02769773  0.96947709  1  -1.177783  0  -0.520281  -0.875743  0  2.058255  0
O  O113  1  0.75000316  0.96970464  0.02750819  1  -1.174885  0  -0.520412  -0.874488  0  2.058891  0
