# generated using pymatgen
data_Zn2H26C33(NO4)2
_symmetry_space_group_name_H-M   'P 1'
_cell_length_a   9.64621544
_cell_length_b   11.02314976
_cell_length_c   13.66038727
_cell_angle_alpha   89.54071170
_cell_angle_beta   112.39731754
_cell_angle_gamma   90.84731130
_symmetry_Int_Tables_number   1
_chemical_formula_structural   Zn2H26C33(NO4)2
_chemical_formula_sum   'Zn2 H26 C33 N2 O8'
_cell_volume   1342.80721113
_cell_formula_units_Z   1
loop_
 _symmetry_equiv_pos_site_id
 _symmetry_equiv_pos_as_xyz
  1  'x, y, z'
loop_
 _atom_site_type_symbol
 _atom_site_label
 _atom_site_symmetry_multiplicity
 _atom_site_fract_x
 _atom_site_fract_y
 _atom_site_fract_z
 _atom_site_occupancy
 _atom_site_pbe_bader_charge
 _atom_site_pbe_bader_spin_density
 _atom_site_pbe_cm5_charge
 _atom_site_pbe_ddec_charge
 _atom_site_pbe_ddec_spin_density
 _atom_site_pbe_ddec_sum_bond_order
 _atom_site_pbe_magmom
Zn  Zn0  1  0.36694076  0.48082090  0.48872798  1  1.296036  0  0.668932  0.852357  0  2.435535  0
Zn  Zn1  1  0.67429282  0.48616648  0.53766241  1  1.292392  0  0.670748  0.857465  0  2.416221  0
H  H2  1  0.80984695  0.64017182  0.85795547  1  0.102443  0  0.106342  0.113318  0  0.990113  0
H  H3  1  0.24670278  0.25779118  0.19376309  1  0.065505  0  0.103971  0.107239  0  0.998834  0
H  H4  1  0.38131148  0.27642050  0.92863878  1  0.105456  0  0.098357  0.098686  0  1.050923  0
H  H5  1  0.24227449  0.17417185  0.02200674  1  0.027945  0  0.102172  0.099641  0  0.991876  0
H  H6  1  0.58829666  0.59479268  0.26942902  1  0.099387  0  0.100313  0.109343  0  1.03736  0
H  H7  1  0.72696197  0.86344664  0.54267485  1  0.091331  0  0.102143  0.10929  0  1.005228  0
H  H8  1  0.06107581  0.87372765  0.22076035  1  -0.004621  0  0.078962  0.099081  0  1.015062  0
H  H9  1  0.14979233  0.99746002  0.18331232  1  0.007504  0  0.083636  0.109125  0  1.008808  0
H  H10  1  0.10960132  0.86152321  0.10811201  1  0.069519  0  0.084717  0.109401  0  1.007266  0
H  H11  1  0.38368726  0.87249243  0.22553479  1  0.014838  0  0.08463  0.072911  0  0.979442  0
H  H12  1  0.29458216  0.74866388  0.26164646  1  0.045819  0  0.087108  0.085228  0  0.991747  0
H  H13  1  0.74391245  0.08932932  0.51817415  1  0.09026  0  0.104853  0.10005  0  0.986179  0
H  H14  1  0.26660028  0.87607788  0.40521364  1  0.046756  0  0.092577  0.092148  0  0.97849  0
H  H15  1  0.35983159  0.99783128  0.36964416  1  0.0128  0  0.090902  0.088643  0  1.005819  0
H  H16  1  0.23276576  0.54692645  0.84344025  1  0.085299  0  0.105499  0.109281  0  0.985477  0
H  H17  1  0.99312152  0.43695527  0.74718636  1  0.092571  0  0.106004  0.117616  0  0.99644  0
H  H18  1  0.99318849  0.24547798  0.65098717  1  0.072372  0  0.101827  0.107823  0  1.007312  0
H  H19  1  0.23488110  0.17137430  0.64538842  1  0.069011  0  0.103269  0.103771  0  0.989668  0
H  H20  1  0.47312758  0.27907233  0.74550356  1  0.060117  0  0.106692  0.113526  0  0.983264  0
H  H21  1  0.43291308  0.07868134  0.53176358  1  0.076703  0  0.106521  0.126196  0  0.996068  0
H  H22  1  0.04440767  0.57171761  0.35488091  1  0.159587  0  0.143644  0.11112  0  0.937338  0
H  H23  1  0.15699599  0.46669253  0.56887056  1  0.45183  0  0.301947  0.269378  0  0.972589  0
H  H24  1  0.82798554  0.62793445  0.41205376  1  0.173901  0  0.138386  0.107111  0  0.96336  0
H  H25  1  0.94689397  0.41847794  0.55064825  1  0.426865  0  0.295447  0.260057  0  0.995157  0
H  H26  1  0.75170516  0.68461662  0.18511111  1  -0.000538  0  0.095553  0.093048  0  1.01097  0
H  H27  1  0.84238810  0.69221025  0.04354362  1  0.065602  0  0.10062  0.10085  0  1.005954  0
C  C28  1  0.55264094  0.25027107  0.54067462  1  1.539189  0  0.203429  0.627311  0  4.197046  0
C  C29  1  0.40068734  0.40123380  0.19777237  1  -0.055489  0  -0.013851  -0.06746  0  3.926451  0
C  C30  1  0.62532881  0.91544630  0.50128761  1  0.015684  0  -0.087707  -0.122122  0  3.983994  0
C  C31  1  0.41964295  0.43216834  0.30887519  1  1.570415  0  0.210956  0.597047  0  4.170184  0
C  C32  1  0.50084153  0.84911804  0.44582844  1  -0.073619  0  -0.01038  -0.015521  0  3.881481  0
C  C33  1  0.63931280  0.04590640  0.51467928  1  -0.055321  0  -0.073172  -0.007642  0  4.009858  0
C  C34  1  0.53680290  0.11691628  0.53000662  1  -0.054372  0  -0.097683  -0.24342  0  3.91171  0
C  C35  1  0.04302772  0.53946888  0.43061848  1  0.673265  0  0.123549  0.174316  0  3.840651  0
C  C36  1  0.90523069  0.55514074  0.45225167  1  0.670761  0  0.119971  0.17708  0  3.841058  0
C  C37  1  0.51140392  0.71433748  0.46361988  1  1.556477  0  0.211978  0.581886  0  4.175313  0
C  C38  1  0.58398193  0.52434537  0.71418632  1  1.581796  0  0.2144  0.597288  0  4.176156  0
C  C39  1  0.46678087  0.42407378  0.04072368  1  0.017895  0  -0.002603  0.032001  0  3.92566  0
C  C40  1  0.75370415  0.62974687  0.99619728  1  -0.086142  0  -0.092624  -0.136708  0  4.018841  0
C  C41  1  0.60987121  0.53295182  0.82969128  1  -0.027811  0  -0.013077  -0.06679  0  3.934703  0
C  C42  1  0.30919794  0.30218094  0.15151101  1  -0.020746  0  -0.086932  -0.099569  0  4.006873  0
C  C43  1  0.30563786  0.25689033  0.05511319  1  0.032033  0  -0.09533  -0.08635  0  4.057904  0
C  C44  1  0.38358004  0.31588910  0.00169735  1  -0.091091  0  -0.090959  -0.122289  0  3.995708  0
C  C45  1  0.35266643  0.89843162  0.37287189  1  -0.017588  0  -0.163903  -0.177944  0  3.973932  0
C  C46  1  0.29995429  0.84830645  0.25943449  1  -0.001509  0  -0.167432  -0.094079  0  3.951727  0
C  C47  1  0.14695037  0.89786350  0.18890172  1  -0.091354  0  -0.244253  -0.348907  0  3.991146  0
C  C48  1  0.36958996  0.41920462  0.80290822  1  -0.033868  0  -0.001819  0.083454  0  3.997264  0
C  C49  1  0.23244812  0.46452685  0.79971953  1  -0.031892  0  -0.08815  -0.129557  0  3.969241  0
C  C50  1  0.48229888  0.46327255  0.14428912  1  -0.012339  0  -0.003347  0.060128  0  3.94663  0
C  C51  1  0.09785790  0.40279413  0.74540069  1  -0.024098  0  -0.096976  -0.097158  0  4.032153  0
C  C52  1  0.09806514  0.29558802  0.69085531  1  -0.121309  0  -0.106073  -0.132969  0  4.056215  0
C  C53  1  0.23334006  0.25312463  0.68932433  1  -0.028222  0  -0.093723  -0.081321  0  4.030934  0
C  C54  1  0.36794974  0.31419316  0.74522081  1  -0.086118  0  -0.086882  -0.118127  0  3.952216  0
C  C55  1  0.54397142  0.49203289  0.98342730  1  -0.016692  0  0.002429  -0.009715  0  3.87263  0
C  C56  1  0.65834106  0.57711756  0.04208668  1  -0.003191  0  -0.009994  0.081483  0  4.039569  0
C  C57  1  0.67123898  0.61247797  0.14573732  1  -0.045119  0  -0.101058  -0.151702  0  4.054773  0
C  C58  1  0.58178007  0.56275893  0.19267319  1  -0.0306  0  -0.096429  -0.130636  0  4.024114  0
C  C59  1  0.51148527  0.48035403  0.87233346  1  -0.039807  0  0.004902  0.010081  0  3.896043  0
C  C60  1  0.73476592  0.60292679  0.89356937  1  0.000977  0  -0.089345  -0.09791  0  4.028108  0
N  N61  1  0.16140993  0.49134881  0.49712322  1  -1.187373  0  -0.436313  -0.368576  0  3.275598  0
N  N62  1  0.87253529  0.48727180  0.51677337  1  -1.182962  0  -0.442441  -0.382968  0  3.291298  0
O  O63  1  0.43283115  0.30594603  0.53191365  1  -1.163401  0  -0.322448  -0.56719  0  2.320211  0
O  O64  1  0.67897302  0.30057227  0.55565946  1  -1.166593  0  -0.324867  -0.551542  0  2.278896  0
O  O65  1  0.30298341  0.43360126  0.33138084  1  -1.158362  0  -0.327195  -0.548484  0  2.248099  0
O  O66  1  0.55325050  0.45039767  0.37464745  1  -1.183421  0  -0.317489  -0.573476  0  2.365452  0
O  O67  1  0.38799721  0.65801592  0.44618356  1  -1.158853  0  -0.31382  -0.54274  0  2.33266  0
O  O68  1  0.64106438  0.66632596  0.49872369  1  -1.180931  0  -0.325504  -0.570315  0  2.3546  0
O  O69  1  0.45082438  0.53468576  0.64714102  1  -1.173052  0  -0.315138  -0.554745  0  2.353633  0
O  O70  1  0.70006146  0.50958949  0.69202608  1  -1.151938  0  -0.318468  -0.547847  0  2.28745  0
