# generated using pymatgen
data_HgH11C9N2Cl2O
_symmetry_space_group_name_H-M   'P 1'
_cell_length_a   7.95731948
_cell_length_b   9.35273818
_cell_length_c   9.52327743
_cell_angle_alpha   71.09087827
_cell_angle_beta   71.61784773
_cell_angle_gamma   66.41197612
_symmetry_Int_Tables_number   1
_chemical_formula_structural   HgH11C9N2Cl2O
_chemical_formula_sum   'Hg2 H22 C18 N4 Cl4 O2'
_cell_volume   600.22026602
_cell_formula_units_Z   2
loop_
 _symmetry_equiv_pos_site_id
 _symmetry_equiv_pos_as_xyz
  1  'x, y, z'
loop_
 _atom_site_type_symbol
 _atom_site_label
 _atom_site_symmetry_multiplicity
 _atom_site_fract_x
 _atom_site_fract_y
 _atom_site_fract_z
 _atom_site_occupancy
 _atom_site_pbe_bader_spin_density
 _atom_site_pbe_cm5_charge
 _atom_site_pbe_ddec_charge
 _atom_site_pbe_ddec_spin_density
 _atom_site_pbe_ddec_sum_bond_order
 _atom_site_pbe_magmom
Hg  Hg0  1  0.69458533  0.33473967  0.88697257  1  0  0.5194  0.56519  0  2.629515  0
Hg  Hg1  1  0.30541519  0.66525745  0.11303110  1  0  0.519389  0.565202  0  2.629432  0
H  H2  1  0.16644688  0.05839689  0.35749902  1  0  0.104944  0.128473  0  1.02506  0
H  H3  1  0.83355459  0.94161836  0.64248944  1  0  0.104957  0.128498  0  1.0251  0
H  H4  1  0.40718414  0.87527952  0.51030536  1  0  0.106838  0.112402  0  0.9876  0
H  H5  1  0.59281803  0.12472736  0.48968337  1  0  0.106791  0.112389  0  0.98765  0
H  H6  1  0.39388391  0.93805969  0.75285886  1  0  0.09584  0.122798  0  1.032377  0
H  H7  1  0.60611627  0.06193874  0.24713504  1  0  0.095849  0.122824  0  1.032457  0
H  H8  1  0.25322664  0.11605993  0.92440596  1  0  0.108158  0.097197  0  1.039352  0
H  H9  1  0.74677142  0.88393364  0.07559416  1  0  0.10813  0.097137  0  1.0394  0
H  H10  1  0.11489094  0.22177080  0.12137430  1  0  0.103716  0.087121  0  0.986386  0
H  H11  1  0.88511442  0.77821442  0.87862547  1  0  0.10368  0.087035  0  0.986438  0
H  H12  1  0.86932740  0.24963790  0.18839109  1  0  0.099371  0.087008  0  1.015833  0
H  H13  1  0.13068104  0.75034609  0.81161143  1  0  0.099357  0.087019  0  1.015795  0
H  H14  1  0.93221071  0.48961877  0.17219870  1  0  0.093859  0.09827  0  1.004013  0
H  H15  1  0.06779942  0.51036396  0.82781008  1  0  0.09386  0.098303  0  1.004046  0
H  H16  1  0.78645327  0.53134178  0.04703141  1  0  0.076928  0.074468  0  1.034962  0
H  H17  1  0.21355336  0.46864340  0.95297226  1  0  0.076945  0.074524  0  1.034936  0
H  H18  1  0.68168044  0.51041084  0.38673192  1  0  0.103113  0.114678  0  1.001618  0
H  H19  1  0.31831757  0.48959585  0.61327157  1  0  0.103089  0.11463  0  1.001664  0
H  H20  1  0.80850125  0.51452424  0.51140496  1  0  0.093184  0.104361  0  1.018001  0
H  H21  1  0.19148907  0.48548838  0.48860076  1  0  0.093237  0.104421  0  1.017966  0
H  H22  1  0.64899321  0.40280554  0.58195841  1  0  0.08405  0.088297  0  1.06639  0
H  H23  1  0.35100094  0.59719752  0.41804716  1  0  0.083976  0.088191  0  1.066511  0
C  C24  1  0.01887093  0.20762068  0.52255290  1  0  0.220977  0.406538  0  4.071793  0
C  C25  1  0.98113113  0.79238609  0.47744429  1  0  0.221058  0.406581  0  4.071842  0
C  C26  1  0.16200228  0.07733870  0.46566051  1  0  -0.08427  -0.212598  0  3.916128  0
C  C27  1  0.83799623  0.92267049  0.53433369  1  0  -0.084335  -0.212657  0  3.916323  0
C  C28  1  0.29579130  0.97746058  0.54989711  1  0  -0.069835  -0.005551  0  3.983456  0
C  C29  1  0.70421562  0.02254748  0.45009427  1  0  -0.069789  -0.005562  0  3.983486  0
C  C30  1  0.28757936  0.01070886  0.68579133  1  0  -0.087594  -0.174828  0  3.941439  0
C  C31  1  0.71242410  0.98929800  0.31419919  1  0  -0.0876  -0.174779  0  3.941361  0
C  C32  1  0.13723861  0.13772750  0.73545152  1  0  0.101031  0.197308  0  4.06638  0
C  C33  1  0.86276631  0.86227210  0.26454609  1  0  0.101048  0.197325  0  4.066514  0
C  C34  1  0.12348371  0.16688466  0.88127485  1  0  0.089939  0.060386  0  3.868711  0
C  C35  1  0.87651657  0.83310648  0.11872860  1  0  0.089893  0.060275  0  3.868837  0
C  C36  1  0.97537590  0.28734652  0.09342913  1  0  -0.069169  -0.051089  0  3.926648  0
C  C37  1  0.02462632  0.71263985  0.90657319  1  0  -0.069082  -0.050966  0  3.926395  0
C  C38  1  0.93047942  0.46807978  0.06607202  1  0  -0.171675  -0.164982  0  3.915324  0
C  C39  1  0.06952767  0.53190418  0.93393295  1  0  -0.171713  -0.165136  0  3.915544  0
C  C40  1  0.74998901  0.44189730  0.48289934  1  0  -0.147323  -0.178576  0  3.868655  0
C  C41  1  0.25001166  0.55810941  0.51710242  1  0  -0.147284  -0.178382  0  3.868567  0
N  N42  1  0.00301557  0.23574450  0.65508442  1  0  -0.327616  -0.395234  0  3.373278  0
N  N43  1  0.99698042  0.76425741  0.34491788  1  0  -0.327646  -0.395262  0  3.373445  0
N  N44  1  0.97153835  0.24833054  0.95849702  1  0  -0.309666  -0.140871  0  3.503673  0
N  N45  1  0.02845612  0.75166173  0.04151070  1  0  -0.309594  -0.140692  0  3.50343  0
Cl  Cl46  1  0.54175567  0.63061405  0.80781791  1  0  -0.271129  -0.413577  0  1.286807  0
Cl  Cl47  1  0.45823829  0.36938307  0.19218426  1  0  -0.271121  -0.413595  0  1.286859  0
Cl  Cl48  1  0.57887539  0.15321803  0.83778526  1  0  -0.292409  -0.43856  0  1.204996  0
Cl  Cl49  1  0.42110846  0.84679835  0.16220520  1  0  -0.292408  -0.438587  0  1.204973  0
O  O50  1  0.89625142  0.30483062  0.43306394  1  0  -0.170671  -0.168602  0  2.573479  0
O  O51  1  0.10375084  0.69518211  0.56693559  1  0  -0.170678  -0.168765  0  2.573461  0
