# generated using pymatgen
data_ZnH13C10N5O4
_symmetry_space_group_name_H-M   'P 1'
_cell_length_a   9.06068103
_cell_length_b   9.58768964
_cell_length_c   10.47967195
_cell_angle_alpha   105.16291195
_cell_angle_beta   90.00021860
_cell_angle_gamma   90.00008668
_symmetry_Int_Tables_number   1
_chemical_formula_structural   ZnH13C10N5O4
_chemical_formula_sum   'Zn2 H26 C20 N10 O8'
_cell_volume   878.68561282
_cell_formula_units_Z   2
loop_
 _symmetry_equiv_pos_site_id
 _symmetry_equiv_pos_as_xyz
  1  'x, y, z'
loop_
 _atom_site_type_symbol
 _atom_site_label
 _atom_site_symmetry_multiplicity
 _atom_site_fract_x
 _atom_site_fract_y
 _atom_site_fract_z
 _atom_site_occupancy
 _atom_site_pbe_bader_spin_density
 _atom_site_pbe_cm5_charge
 _atom_site_pbe_ddec_charge
 _atom_site_pbe_ddec_spin_density
 _atom_site_pbe_ddec_sum_bond_order
 _atom_site_pbe_magmom
Zn  Zn0  1  0.47775303  0.84577556  0.08427504  1  0  0.702927  0.723471  0  2.421899  0
Zn  Zn1  1  0.97775205  0.15422463  0.91572447  1  0  0.702942  0.723493  0  2.421883  0
H  H2  1  0.50354731  0.34844340  0.95128799  1  0  0.300041  0.276168  0  1.015515  0
H  H3  1  0.00354672  0.65155774  0.04871496  1  0  0.300004  0.276027  0  1.015648  0
H  H4  1  0.33607590  0.44286746  0.16716897  1  0  0.10105  0.112027  0  0.967475  0
H  H5  1  0.83607740  0.55713345  0.83283406  1  0  0.101035  0.112017  0  0.96742  0
H  H6  1  0.14330112  0.43182936  0.13105036  1  0  0.101362  0.118884  0  0.994558  0
H  H7  1  0.64330280  0.56816998  0.86894785  1  0  0.101368  0.118914  0  0.99452  0
H  H8  1  0.16449379  0.89579348  0.96641567  1  0  0.118443  0.081181  0  1.070777  0
H  H9  1  0.66449546  0.10420808  0.03358123  1  0  0.118431  0.081152  0  1.070699  0
H  H10  1  0.43067648  0.80649533  0.31902530  1  0  0.296361  0.278153  0  0.942706  0
H  H11  1  0.93067452  0.19350366  0.68097187  1  0  0.296336  0.278106  0  0.942748  0
H  H12  1  0.60989361  0.79310291  0.28697493  1  0  0.289771  0.294945  0  0.995885  0
H  H13  1  0.10989304  0.20689526  0.71302575  1  0  0.289784  0.294965  0  0.995876  0
H  H14  1  0.65716832  0.14865885  0.57169001  1  0  0.317104  0.274773  0  0.948985  0
H  H15  1  0.15716641  0.85134484  0.42831310  1  0  0.31712  0.274812  0  0.948902  0
H  H16  1  0.62631245  0.18646655  0.80077356  1  0  0.114022  0.104618  0  1.012697  0
H  H17  1  0.12631168  0.81352950  0.19922762  1  0  0.114039  0.104636  0  1.012679  0
H  H18  1  0.48932588  0.05013265  0.77026232  1  0  0.123281  0.123492  0  0.951147  0
H  H19  1  0.98932756  0.94986650  0.22973316  1  0  0.123291  0.123507  0  0.951117  0
H  H20  1  0.46626487  0.07646556  0.33756097  1  0  0.111076  0.100161  0  0.992309  0
H  H21  1  0.96626180  0.92353244  0.66243512  1  0  0.111094  0.100162  0  0.99233  0
H  H22  1  0.65328726  0.03080869  0.36344896  1  0  0.117538  0.1179  0  0.993263  0
H  H23  1  0.15328315  0.96918960  0.63654998  1  0  0.117536  0.11788  0  0.993266  0
H  H24  1  0.47120907  0.19722303  0.18064101  1  0  0.114065  0.11303  0  1.015249  0
H  H25  1  0.97120980  0.80277606  0.81935822  1  0  0.114063  0.113029  0  1.015238  0
H  H26  1  0.18541882  0.39382952  0.89646746  1  0  0.117243  0.082138  0  1.003075  0
H  H27  1  0.68541387  0.60617101  0.10353308  1  0  0.117206  0.082076  0  1.003098  0
C  C28  1  0.25234248  0.38866038  0.09508689  1  0  -0.151834  -0.250903  0  3.933815  0
C  C29  1  0.75234439  0.61134032  0.90491486  1  0  -0.151804  -0.25093  0  3.933764  0
C  C30  1  0.29755424  0.59034790  0.98858097  1  0  0.213896  0.576653  0  4.168831  0
C  C31  1  0.79755298  0.40965399  0.01142122  1  0  0.21395  0.576767  0  4.168699  0
C  C32  1  0.21706067  0.99858334  0.01131595  1  0  0.111676  0.131919  0  4.028814  0
C  C33  1  0.71706307  0.00141727  0.98868185  1  0  0.111639  0.131924  0  4.028818  0
C  C34  1  0.52812541  0.14642092  0.74124099  1  0  -0.052454  -0.138037  0  3.920651  0
C  C35  1  0.02812497  0.85357921  0.25875893  1  0  -0.052439  -0.138011  0  3.920582  0
C  C36  1  0.53763559  0.99833856  0.36866885  1  0  -0.069027  -0.134678  0  3.908536  0
C  C37  1  0.03763433  0.00165943  0.63133060  1  0  -0.069023  -0.134607  0  3.908547  0
C  C38  1  0.37338624  0.15495134  0.12393964  1  0  -0.024834  -0.131193  0  4.002781  0
C  C39  1  0.87338618  0.84504751  0.87606016  1  0  -0.024858  -0.131241  0  4.002794  0
C  C40  1  0.26244752  0.23019185  0.08109145  1  0  0.065398  0.174519  0  4.022493  0
C  C41  1  0.76244864  0.76980779  0.91890913  1  0  0.065383  0.174514  0  4.022516  0
C  C42  1  0.49201823  0.00476379  0.51003833  1  0  0.240976  0.511021  0  4.105611  0
C  C43  1  0.99202996  0.99522996  0.48996064  1  0  0.24094  0.510866  0  4.105494  0
C  C44  1  0.40151478  0.25625969  0.77445113  1  0  0.237039  0.496396  0  4.104684  0
C  C45  1  0.90151611  0.74374030  0.22555095  1  0  0.237001  0.496176  0  4.104923  0
C  C46  1  0.28111930  0.42617108  0.96122533  1  0  0.013006  0.030015  0  3.843083  0
C  C47  1  0.78111733  0.57383077  0.03877680  1  0  0.013025  0.030058  0  3.843056  0
N  N48  1  0.40846603  0.34683349  0.89640728  1  0  -0.41838  -0.379944  0  3.581247  0
N  N49  1  0.90846337  0.65316652  0.10359577  1  0  -0.41833  -0.379729  0  3.581347  0
N  N50  1  0.16378251  0.12918825  0.00911597  1  0  -0.377145  -0.355283  0  3.55144  0
N  N51  1  0.66378301  0.87081114  0.99088232  1  0  -0.377097  -0.355242  0  3.551386  0
N  N52  1  0.34395888  0.00844874  0.07987179  1  0  -0.384987  -0.315153  0  3.658699  0
N  N53  1  0.84395815  0.99155003  0.92012694  1  0  -0.384945  -0.315104  0  3.658754  0
N  N54  1  0.51592830  0.85292805  0.28020335  1  0  -0.625918  -0.540243  0  3.406967  0
N  N55  1  0.01592766  0.14706989  0.71979505  1  0  -0.625919  -0.540215  0  3.406966  0
N  N56  1  0.56579332  0.10503434  0.60250639  1  0  -0.417802  -0.33302  0  3.582807  0
N  N57  1  0.06579135  0.89497020  0.39749281  1  0  -0.417813  -0.332945  0  3.583027  0
O  O58  1  0.42912282  0.63857770  0.01866099  1  0  -0.328499  -0.537339  0  2.374892  0
O  O59  1  0.92911915  0.36142345  0.98133859  1  0  -0.328527  -0.537382  0  2.37486  0
O  O60  1  0.18581876  0.66688950  0.98663226  1  0  -0.317903  -0.559479  0  2.211811  0
O  O61  1  0.68581850  0.33310994  0.01337279  1  0  -0.317927  -0.559584  0  2.211765  0
O  O62  1  0.39166232  0.92606283  0.53303366  1  0  -0.318073  -0.529716  0  2.091092  0
O  O63  1  0.89166144  0.07394363  0.46696422  1  0  -0.318093  -0.529751  0  2.090555  0
O  O64  1  0.29814158  0.25211060  0.69497253  1  0  -0.31944  -0.516477  0  2.148733  0
O  O65  1  0.79814216  0.74789021  0.30503131  1  0  -0.319395  -0.516339  0  2.148816  0
