# generated using pymatgen
data_CdH11C14(NO2)2
_symmetry_space_group_name_H-M   'P 1'
_cell_length_a   11.51410216
_cell_length_b   11.51401557
_cell_length_c   11.96969470
_cell_angle_alpha   75.83968698
_cell_angle_beta   75.83990760
_cell_angle_gamma   90.69244165
_symmetry_Int_Tables_number   1
_chemical_formula_structural   CdH11C14(NO2)2
_chemical_formula_sum   'Cd4 H44 C56 N8 O16'
_cell_volume   1487.52479015
_cell_formula_units_Z   4
loop_
 _symmetry_equiv_pos_site_id
 _symmetry_equiv_pos_as_xyz
  1  'x, y, z'
loop_
 _atom_site_type_symbol
 _atom_site_label
 _atom_site_symmetry_multiplicity
 _atom_site_fract_x
 _atom_site_fract_y
 _atom_site_fract_z
 _atom_site_occupancy
 _atom_site_pbe_bader_charge
 _atom_site_pbe_bader_spin_density
 _atom_site_pbe_cm5_charge
 _atom_site_pbe_ddec_charge
 _atom_site_pbe_ddec_spin_density
 _atom_site_pbe_ddec_sum_bond_order
 _atom_site_pbe_magmom
Cd  Cd0  1  0.67018593  0.30624796  0.40683613  1  1.252116  0  0.77094  0.897948  0  2.148159  0
Cd  Cd1  1  0.69375142  0.32982304  0.09316405  1  1.251889  0  0.770932  0.897948  0  2.148231  0
Cd  Cd2  1  0.32982274  0.69375973  0.59315654  1  1.252209  0  0.770965  0.897979  0  2.148101  0
Cd  Cd3  1  0.30624596  0.67017555  0.90683687  1  1.251892  0  0.770943  0.897916  0  2.148148  0
H  H4  1  0.43325565  0.40386218  0.42246805  1  0.501539  0  0.292926  0.301348  0  0.983699  0
H  H5  1  0.44940672  0.28270950  0.36471493  1  0.495342  0  0.290587  0.305034  0  0.994277  0
H  H6  1  0.72217540  0.04790284  0.55668301  1  0.114452  0  0.118063  0.088613  0  0.989656  0
H  H7  1  0.57636367  0.34318569  0.65993274  1  0.13409  0  0.115132  0.090743  0  1.018445  0
H  H8  1  0.67855362  0.92555923  0.76811455  1  0.090707  0  0.100395  0.107799  0  1.050409  0
H  H9  1  0.52436450  0.23392669  0.87473190  1  0.11956  0  0.105292  0.120295  0  1.036384  0
H  H10  1  0.42738114  0.07834080  0.51243101  1  0.140295  0  0.106676  0.126174  0  1.022001  0
H  H11  1  0.23533829  0.28460432  0.82079923  1  0.08571  0  0.102493  0.102576  0  1.014926  0
H  H12  1  0.23003760  0.06072522  0.87175407  1  0.091164  0  0.104143  0.112883  0  1.005609  0
H  H13  1  0.59344368  0.90821537  0.97576135  1  0.033465  0  0.096018  0.09753  0  0.99427  0
H  H14  1  0.62058047  0.04225021  0.01587824  1  0.091503  0  0.100637  0.114206  0  0.987998  0
H  H15  1  0.59613834  0.56675181  0.07753945  1  0.501424  0  0.292962  0.30134  0  0.98349  0
H  H16  1  0.71728664  0.55060027  0.13530054  1  0.495099  0  0.290583  0.305054  0  0.994187  0
H  H17  1  0.95209533  0.27783457  0.94331866  1  0.114571  0  0.118052  0.088643  0  0.989627  0
H  H18  1  0.65680929  0.42362309  0.84006405  1  0.133948  0  0.115124  0.090688  0  1.018548  0
H  H19  1  0.07443833  0.32145513  0.73188760  1  0.089857  0  0.100433  0.107848  0  1.050375  0
H  H20  1  0.76606726  0.47562556  0.62526523  1  0.119467  0  0.105321  0.12031  0  1.036374  0
H  H21  1  0.92166117  0.57261802  0.98758210  1  0.140132  0  0.106679  0.126188  0  1.022004  0
H  H22  1  0.71540437  0.76466757  0.67920863  1  0.085543  0  0.102519  0.102654  0  1.01489  0
H  H23  1  0.93927884  0.76996558  0.62825824  1  0.090885  0  0.104148  0.112864  0  1.005703  0
H  H24  1  0.09177545  0.40654833  0.52423804  1  0.033578  0  0.096059  0.097584  0  0.994326  0
H  H25  1  0.95773818  0.37941221  0.48412620  1  0.091323  0  0.100665  0.114324  0  0.987793  0
H  H26  1  0.56675845  0.59614478  0.57753770  1  0.50138  0  0.292931  0.301284  0  0.983616  0
H  H27  1  0.55060001  0.71729381  0.63529848  1  0.495088  0  0.290612  0.305087  0  0.994116  0
H  H28  1  0.27781880  0.95210368  0.44330256  1  0.114042  0  0.118086  0.088716  0  0.989593  0
H  H29  1  0.42362576  0.65681544  0.34006281  1  0.134069  0  0.11517  0.090784  0  1.018476  0
H  H30  1  0.32144664  0.07444379  0.23187125  1  0.089099  0  0.100417  0.107835  0  1.050416  0
H  H31  1  0.47562827  0.76607089  0.12526203  1  0.1197  0  0.105341  0.120394  0  1.036314  0
H  H32  1  0.57260730  0.92167204  0.48757115  1  0.140059  0  0.10665  0.126199  0  1.021996  0
H  H33  1  0.76467569  0.71540001  0.17921470  1  0.085051  0  0.102535  0.102677  0  1.014883  0
H  H34  1  0.76996100  0.93927792  0.12825215  1  0.090832  0  0.104139  0.112887  0  1.005671  0
H  H35  1  0.40655802  0.09178229  0.02422455  1  0.03353  0  0.096054  0.097554  0  0.994352  0
H  H36  1  0.37941944  0.95774741  0.98410727  1  0.091223  0  0.100668  0.114252  0  0.987877  0
H  H37  1  0.40386782  0.43324336  0.92246687  1  0.501411  0  0.293022  0.301411  0  0.983739  0
H  H38  1  0.28272060  0.44939762  0.86470737  1  0.495278  0  0.290645  0.305124  0  0.994119  0
H  H39  1  0.04789750  0.72217656  0.05668619  1  0.114448  0  0.118074  0.088658  0  0.989614  0
H  H40  1  0.34317972  0.57635738  0.15993490  1  0.133963  0  0.115158  0.090798  0  1.018367  0
H  H41  1  0.92555741  0.67854528  0.26811913  1  0.090007  0  0.100439  0.107817  0  1.050341  0
H  H42  1  0.23392146  0.52435042  0.37473404  1  0.118884  0  0.105276  0.120269  0  1.036354  0
H  H43  1  0.07835192  0.42737449  0.01241400  1  0.140239  0  0.106655  0.126179  0  1.022104  0
H  H44  1  0.28459564  0.23534284  0.32080469  1  0.085771  0  0.102511  0.102584  0  1.014842  0
H  H45  1  0.06071699  0.23003659  0.37174470  1  0.090838  0  0.104165  0.112896  0  1.005712  0
H  H46  1  0.90821491  0.59343935  0.47575969  1  0.033476  0  0.096006  0.097506  0  0.994314  0
H  H47  1  0.04224808  0.62058083  0.51587707  1  0.091508  0  0.100614  0.114181  0  0.98801  0
C  C48  1  0.33075878  0.44224064  0.61181038  1  1.531612  0  0.196443  0.572272  0  4.211201  0
C  C49  1  0.67957282  0.08565039  0.63043134  1  0.505279  0  0.047396  0.103217  0  3.955943  0
C  C50  1  0.59659193  0.25013690  0.68833118  1  0.398577  0  0.041438  0.088126  0  3.987819  0
C  C51  1  0.38585733  0.24957358  0.54918858  1  0.419899  0  0.093856  0.271293  0  4.017863  0
C  C52  1  0.33064963  0.30855606  0.63745276  1  -0.055378  0  -0.030053  -0.155912  0  3.958158  0
C  C53  1  0.65400457  0.01802961  0.74821546  1  -0.058861  0  -0.087595  -0.185244  0  3.929573  0
C  C54  1  0.56764877  0.18824921  0.80756982  1  -0.037577  0  -0.085086  -0.179301  0  3.932513  0
C  C55  1  0.38149897  0.12354167  0.57902130  1  -0.096138  0  -0.096122  -0.210336  0  3.923188  0
C  C56  1  0.27541238  0.23857957  0.75295865  1  -0.071993  0  -0.090618  -0.088429  0  4.034499  0
C  C57  1  0.59680401  0.06920104  0.84010828  1  0.00339  0  0.018518  0.180306  0  3.922824  0
C  C58  1  0.32620838  0.05603072  0.69419833  1  -0.025319  0  -0.013164  -0.001554  0  3.973876  0
C  C59  1  0.27233444  0.11423896  0.78198014  1  -0.009774  0  -0.09869  -0.128812  0  4.012435  0
C  C60  1  0.56725430  0.00066792  0.96886993  1  -0.008454  0  -0.152472  -0.193577  0  3.912869  0
C  C61  1  0.32853049  0.92110491  0.72603289  1  1.563398  0  0.209386  0.587936  0  4.193478  0
C  C62  1  0.55776762  0.66925510  0.88819726  1  1.531581  0  0.196307  0.572035  0  4.211265  0
C  C63  1  0.91434485  0.32043477  0.86956905  1  0.505259  0  0.047435  0.103299  0  3.956109  0
C  C64  1  0.74985680  0.40340396  0.81166549  1  0.398328  0  0.041508  0.088276  0  3.987795  0
C  C65  1  0.75043227  0.61414730  0.95082543  1  0.420291  0  0.093896  0.271389  0  4.017846  0
C  C66  1  0.69144695  0.66935646  0.86255648  1  -0.055763  0  -0.030135  -0.155975  0  3.958248  0
C  C67  1  0.98196644  0.34600246  0.75178573  1  -0.057703  0  -0.087712  -0.185381  0  3.929616  0
C  C68  1  0.81174265  0.43234752  0.69242889  1  -0.037499  0  -0.085158  -0.179339  0  3.932553  0
C  C69  1  0.87645993  0.61850524  0.92098977  1  -0.095776  0  -0.096085  -0.210473  0  3.923258  0
C  C70  1  0.76142533  0.72459352  0.74704852  1  -0.071574  0  -0.090642  -0.088555  0  4.034262  0
C  C71  1  0.93079732  0.40319737  0.65989028  1  0.003333  0  0.018535  0.180265  0  3.92296  0
C  C72  1  0.94397270  0.67378996  0.80581456  1  -0.025786  0  -0.013146  -0.001452  0  3.973839  0
C  C73  1  0.88576666  0.72766939  0.71802996  1  -0.009404  0  -0.098704  -0.128761  0  4.012272  0
C  C74  1  0.99932312  0.43274128  0.53113015  1  -0.008497  0  -0.152523  -0.193756  0  3.912984  0
C  C75  1  0.07889662  0.67146344  0.77397157  1  1.563617  0  0.209489  0.588166  0  4.193046  0
C  C76  1  0.66926281  0.55777011  0.38820518  1  1.5322  0  0.196481  0.572464  0  4.211011  0
C  C77  1  0.32042117  0.91435256  0.36955766  1  0.506077  0  0.047326  0.103042  0  3.956028  0
C  C78  1  0.40340006  0.74986245  0.31166168  1  0.398382  0  0.041399  0.088063  0  3.987685  0
C  C79  1  0.61414552  0.75043953  0.45082090  1  0.420095  0  0.093945  0.27152  0  4.017965  0
C  C80  1  0.66935919  0.69145178  0.36255990  1  -0.055836  0  -0.03023  -0.156187  0  3.958393  0
C  C81  1  0.34599108  0.98197155  0.25177107  1  -0.057087  0  -0.087599  -0.185302  0  3.929506  0
C  C82  1  0.43234476  0.81174655  0.19242102  1  -0.037368  0  -0.085182  -0.179561  0  3.93247  0
C  C83  1  0.61849794  0.87646324  0.42098407  1  -0.095743  0  -0.096109  -0.210596  0  3.923316  0
C  C84  1  0.72459718  0.76142644  0.24704842  1  -0.070854  0  -0.090681  -0.088564  0  4.034332  0
C  C85  1  0.40319248  0.93079923  0.15987742  1  0.002921  0  0.018569  0.180565  0  3.922597  0
C  C86  1  0.67378785  0.94397775  0.30580384  1  -0.025713  0  -0.013065  -0.001293  0  3.973826  0
C  C87  1  0.72766875  0.88576603  0.21802369  1  -0.009311  0  -0.098709  -0.128831  0  4.012375  0
C  C88  1  0.43274556  0.99932882  0.03111831  1  -0.028161  0  -0.152544  -0.19369  0  3.912999  0
C  C89  1  0.67145917  0.07890066  0.27395485  1  1.563412  0  0.209366  0.587992  0  4.193596  0
C  C90  1  0.44223466  0.33074902  0.11181285  1  1.531549  0  0.196511  0.572283  0  4.211285  0
C  C91  1  0.08565008  0.67956740  0.13043412  1  0.505521  0  0.04733  0.103027  0  3.956149  0
C  C92  1  0.25013190  0.59658550  0.18833388  1  0.398666  0  0.041386  0.088094  0  3.987757  0
C  C93  1  0.24957574  0.38584879  0.04918105  1  0.419915  0  0.0939  0.27133  0  4.017843  0
C  C94  1  0.30855407  0.33064223  0.13745190  1  -0.055477  0  -0.03002  -0.155895  0  3.958205  0
C  C95  1  0.01802737  0.65399611  0.24821940  1  -0.058124  0  -0.087675  -0.185191  0  3.929525  0
C  C96  1  0.18824774  0.56764018  0.30757216  1  -0.036602  0  -0.085081  -0.179293  0  3.932604  0
C  C97  1  0.12354629  0.38149166  0.07900860  1  -0.095774  0  -0.096131  -0.210561  0  3.923435  0
C  C98  1  0.23857424  0.27541054  0.25295975  1  -0.072032  0  -0.090771  -0.088602  0  4.034469  0
C  C99  1  0.06919874  0.59679490  0.34010998  1  0.003118  0  0.018512  0.180166  0  3.922967  0
C  C100  1  0.05603160  0.32620512  0.19418304  1  -0.025735  0  -0.013091  -0.001357  0  3.973767  0
C  C101  1  0.11423715  0.27233112  0.28197480  1  -0.0094  0  -0.098685  -0.128789  0  4.012342  0
C  C102  1  0.00066842  0.56725005  0.46887310  1  -0.028133  0  -0.152455  -0.19346  0  3.912959  0
C  C103  1  0.92110976  0.32852265  0.22602101  1  1.563106  0  0.209554  0.588257  0  4.1927  0
N  N104  1  0.65181869  0.20047602  0.60054771  1  -1.248773  0  -0.339301  -0.254371  0  3.533542  0
N  N105  1  0.45349693  0.31548221  0.43642852  1  -1.264643  0  -0.610201  -0.62005  0  3.395861  0
N  N106  1  0.79952348  0.34818245  0.89945140  1  -1.248964  0  -0.339332  -0.254477  0  3.533664  0
N  N107  1  0.68452292  0.54650951  0.06358072  1  -1.264468  0  -0.610253  -0.620048  0  3.395817  0
N  N108  1  0.34817453  0.79952874  0.39944354  1  -1.249006  0  -0.339337  -0.254347  0  3.533548  0
N  N109  1  0.54651095  0.68452557  0.56357769  1  -1.264282  0  -0.610234  -0.620036  0  3.395749  0
N  N110  1  0.20046935  0.65181517  0.10055002  1  -1.249071  0  -0.339188  -0.254183  0  3.53354  0
N  N111  1  0.31548867  0.45348662  0.93642323  1  -1.264371  0  -0.610346  -0.620135  0  3.395961  0
O  O112  1  0.35260797  0.50601014  0.50453496  1  -1.180796  0  -0.320595  -0.562109  0  2.213611  0
O  O113  1  0.30768405  0.49052301  0.69996202  1  -1.161536  0  -0.325998  -0.560301  0  2.270665  0
O  O114  1  0.36692255  0.87162961  0.64152048  1  -1.186752  0  -0.329923  -0.573899  0  2.31231  0
O  O115  1  0.29280434  0.86816532  0.83678028  1  -1.156091  0  -0.330485  -0.55438  0  2.269842  0
O  O116  1  0.49399658  0.64742202  0.99547164  1  -1.180897  0  -0.320501  -0.561944  0  2.213542  0
O  O117  1  0.50948313  0.69231944  0.80004523  1  -1.161235  0  -0.32595  -0.56024  0  2.270532  0
O  O118  1  0.12837550  0.63307157  0.85848315  1  -1.186925  0  -0.330022  -0.574055  0  2.312192  0
O  O119  1  0.13183112  0.70718204  0.66322473  1  -1.156179  0  -0.3305  -0.554467  0  2.269659  0
O  O120  1  0.64743980  0.49400366  0.49547522  1  -1.180995  0  -0.320479  -0.562068  0  2.21354  0
O  O121  1  0.69232470  0.50948392  0.30005003  1  -1.161816  0  -0.326055  -0.560422  0  2.270304  0
O  O122  1  0.63306775  0.12838670  0.35845784  1  -1.18679  0  -0.329961  -0.573963  0  2.312344  0
O  O123  1  0.70717917  0.13182846  0.16320593  1  -1.156067  0  -0.330462  -0.554445  0  2.269933  0
O  O124  1  0.50600428  0.35257400  0.00453993  1  -1.180666  0  -0.32064  -0.562073  0  2.213562  0
O  O125  1  0.49051817  0.30769725  0.19996459  1  -1.161521  0  -0.326055  -0.560301  0  2.27065  0
O  O126  1  0.87163314  0.36690822  0.14150455  1  -1.186535  0  -0.330067  -0.574072  0  2.312134  0
O  O127  1  0.86817149  0.29280129  0.33676692  1  -1.155958  0  -0.330524  -0.554551  0  2.26942  0
