# generated using pymatgen
data_CuH8C6IN2
_symmetry_space_group_name_H-M   'P 1'
_cell_length_a   10.25066154
_cell_length_b   10.95927934
_cell_length_c   14.43298832
_cell_angle_alpha   90.00015109
_cell_angle_beta   90.00027197
_cell_angle_gamma   96.54143004
_symmetry_Int_Tables_number   1
_chemical_formula_structural   CuH8C6IN2
_chemical_formula_sum   'Cu8 H64 C48 I8 N16'
_cell_volume   1610.84419757
_cell_formula_units_Z   8
loop_
 _symmetry_equiv_pos_site_id
 _symmetry_equiv_pos_as_xyz
  1  'x, y, z'
loop_
 _atom_site_type_symbol
 _atom_site_label
 _atom_site_symmetry_multiplicity
 _atom_site_fract_x
 _atom_site_fract_y
 _atom_site_fract_z
 _atom_site_occupancy
 _atom_site_hle17_bader_spin_density
 _atom_site_hle17_ddec_charge
 _atom_site_hle17_ddec_spin_density
 _atom_site_hle17_ddec_sum_bond_order
 _atom_site_hle17_magmom
 _atom_site_hse06_10hf_bader_spin_density
 _atom_site_hse06_10hf_ddec_charge
 _atom_site_hse06_10hf_ddec_spin_density
 _atom_site_hse06_10hf_ddec_sum_bond_order
 _atom_site_hse06_10hf_magmom
 _atom_site_hse06_bader_spin_density
 _atom_site_hse06_ddec_charge
 _atom_site_hse06_ddec_spin_density
 _atom_site_hse06_ddec_sum_bond_order
 _atom_site_hse06_magmom
 _atom_site_pbe_bader_spin_density
 _atom_site_pbe_cm5_charge
 _atom_site_pbe_ddec_charge
 _atom_site_pbe_ddec_spin_density
 _atom_site_pbe_ddec_sum_bond_order
 _atom_site_pbe_magmom
Cu  Cu0  1  0.52086545  0.58225396  0.57543392  1  0  0.247328  0  2.124081  0  0  0.171489  0  2.579138  0  0  0.183616  0  2.526177  0  0  0.253004  0.164581  0  2.614064  0
Cu  Cu1  1  0.02086889  0.08226149  0.92457095  1  0  0.247285  0  2.124134  0  0  0.171432  0  2.579145  0  0  0.183569  0  2.526189  0  0  0.252983  0.164529  0  2.614069  0
Cu  Cu2  1  0.47912695  0.41773462  0.42457442  1  0  0.247331  0  2.124205  0  0  0.171485  0  2.579248  0  0  0.183619  0  2.526291  0  0  0.252983  0.164581  0  2.614179  0
Cu  Cu3  1  0.97913180  0.91773902  0.07543047  1  0  0.247307  0  2.124138  0  0  0.171446  0  2.579149  0  0  0.183585  0  2.526198  0  0  0.252981  0.164545  0  2.614083  0
Cu  Cu4  1  0.62320296  0.45550443  0.70978868  1  0  0.301987  0  2.173166  0  0  0.209026  0  2.653837  0  0  0.207765  0  2.609991  0  0  0.369745  0.213896  0  2.679885  0
Cu  Cu5  1  0.12320611  0.95550391  0.79021728  1  0  0.301942  0  2.173255  0  0  0.209011  0  2.653921  0  0  0.207743  0  2.610085  0  0  0.369732  0.213883  0  2.679974  0
Cu  Cu6  1  0.37679315  0.54449057  0.29021897  1  0  0.301953  0  2.17324  0  0  0.209025  0  2.653906  0  0  0.207764  0  2.610063  0  0  0.369753  0.213898  0  2.679966  0
Cu  Cu7  1  0.87679349  0.04449568  0.20978483  1  0  0.301977  0  2.17313  0  0  0.209031  0  2.65377  0  0  0.207767  0  2.609936  0  0  0.369731  0.213897  0  2.679825  0
H  H8  1  0.08885657  0.76172318  0.65021345  1  0  0.100271  0  0.937458  0  0  0.103811  0  1.010237  0  0  0.107902  0  1.006392  0  0  0.113437  0.099401  0  1.015779  0
H  H9  1  0.58885574  0.26172705  0.84979270  1  0  0.100308  0  0.937473  0  0  0.103853  0  1.010222  0  0  0.107949  0  1.006376  0  0  0.113449  0.099443  0  1.015764  0
H  H10  1  0.91113576  0.23827275  0.34979074  1  0  0.100236  0  0.937546  0  0  0.103806  0  1.010267  0  0  0.107897  0  1.006421  0  0  0.113446  0.099395  0  1.015804  0
H  H11  1  0.41114559  0.73827071  0.15020941  1  0  0.100245  0  0.937481  0  0  0.103803  0  1.010221  0  0  0.107892  0  1.006375  0  0  0.113457  0.099391  0  1.015758  0
H  H12  1  0.40737391  0.90243612  0.81045745  1  0  0.086817  0  0.972244  0  0  0.095269  0  1.038364  0  0  0.098322  0  1.036402  0  0  0.11189  0.09291  0  1.040042  0
H  H13  1  0.90736375  0.40242829  0.68953966  1  0  0.086949  0  0.972146  0  0  0.095387  0  1.038272  0  0  0.09844  0  1.036313  0  0  0.111945  0.093027  0  1.039951  0
H  H14  1  0.59262266  0.09756256  0.18954258  1  0  0.086843  0  0.972196  0  0  0.095283  0  1.038323  0  0  0.098337  0  1.036361  0  0  0.111882  0.092923  0  1.039998  0
H  H15  1  0.09263312  0.59756488  0.31045759  1  0  0.086905  0  0.972118  0  0  0.095352  0  1.038259  0  0  0.098405  0  1.036298  0  0  0.111923  0.092991  0  1.039937  0
H  H16  1  0.55129417  0.76835346  0.72386911  1  0  0.080553  0  0.973073  0  0  0.086945  0  1.042025  0  0  0.090179  0  1.039861  0  0  0.104396  0.084717  0  1.043745  0
H  H17  1  0.05128693  0.26834566  0.77612583  1  0  0.080611  0  0.973094  0  0  0.087  0  1.042054  0  0  0.090234  0  1.039893  0  0  0.104402  0.08478  0  1.043769  0
H  H18  1  0.44869958  0.23164614  0.27612814  1  0  0.080492  0  0.973139  0  0  0.086899  0  1.042064  0  0  0.090134  0  1.039899  0  0  0.104386  0.084681  0  1.043787  0
H  H19  1  0.94871308  0.73164934  0.22387281  1  0  0.080625  0  0.973089  0  0  0.087007  0  1.042051  0  0  0.09024  0  1.039887  0  0  0.104441  0.084769  0  1.043784  0
H  H20  1  0.28748256  0.56616842  0.50573277  1  0  0.065395  0  1.011948  0  0  0.072213  0  1.095666  0  0  0.076886  0  1.090326  0  0  0.069834  0.068525  0  1.099529  0
H  H21  1  0.78748491  0.06616647  0.99427020  1  0  0.065469  0  1.011812  0  0  0.072246  0  1.095566  0  0  0.076917  0  1.090233  0  0  0.069848  0.068555  0  1.099432  0
H  H22  1  0.71251011  0.43383027  0.49426934  1  0  0.06543  0  1.011853  0  0  0.072244  0  1.095576  0  0  0.076918  0  1.090238  0  0  0.069837  0.06855  0  1.099452  0
H  H23  1  0.21251563  0.93382485  0.00573191  1  0  0.065432  0  1.011884  0  0  0.072235  0  1.095606  0  0  0.076908  0  1.090264  0  0  0.069853  0.068545  0  1.09947  0
H  H24  1  0.15326744  0.65499992  0.49951077  1  0  0.088081  0  0.938408  0  0  0.103544  0  1.000807  0  0  0.105119  0  1.000401  0  0  0.094251  0.102767  0  1.000556  0
H  H25  1  0.65326905  0.15499495  0.00049526  1  0  0.088042  0  0.938514  0  0  0.103574  0  1.000829  0  0  0.105151  0  1.00042  0  0  0.094282  0.102793  0  1.000578  0
H  H26  1  0.84672785  0.34500427  0.50049064  1  0  0.088046  0  0.93849  0  0  0.103525  0  1.000877  0  0  0.105101  0  1.000468  0  0  0.094273  0.102748  0  1.000624  0
H  H27  1  0.34673062  0.84499729  0.99950684  1  0  0.08811  0  0.938501  0  0  0.103596  0  1.000846  0  0  0.10517  0  1.000439  0  0  0.094272  0.102816  0  1.000594  0
H  H28  1  0.07832116  0.43382799  0.53460919  1  0  0.098952  0  0.97657  0  0  0.120775  0  1.038303  0  0  0.121814  0  1.039646  0  0  0.080185  0.120091  0  1.037228  0
H  H29  1  0.57832304  0.93382672  0.96539034  1  0  0.099019  0  0.976485  0  0  0.120801  0  1.03828  0  0  0.12184  0  1.039623  0  0  0.080194  0.120118  0  1.037204  0
H  H30  1  0.92166892  0.56617345  0.46538876  1  0  0.099009  0  0.97648  0  0  0.120816  0  1.038245  0  0  0.121861  0  1.039574  0  0  0.080195  0.120135  0  1.037168  0
H  H31  1  0.42167893  0.06616828  0.03460761  1  0  0.098954  0  0.976549  0  0  0.12077  0  1.038309  0  0  0.121812  0  1.039647  0  0  0.080191  0.120086  0  1.037232  0
H  H32  1  0.03814222  0.53101255  0.62689156  1  0  0.081198  0  0.996292  0  0  0.098829  0  1.067209  0  0  0.099969  0  1.067789  0  0  0.072079  0.097711  0  1.067253  0
H  H33  1  0.53814426  0.03101467  0.87311049  1  0  0.081174  0  0.996285  0  0  0.09882  0  1.067184  0  0  0.099958  0  1.067764  0  0  0.072089  0.097699  0  1.06723  0
H  H34  1  0.96184591  0.46898890  0.37310708  1  0  0.08121  0  0.996113  0  0  0.098859  0  1.067054  0  0  0.100001  0  1.067628  0  0  0.072112  0.097743  0  1.067096  0
H  H35  1  0.46185632  0.96898492  0.12689092  1  0  0.081179  0  0.996293  0  0  0.098828  0  1.067199  0  0  0.099967  0  1.067778  0  0  0.072083  0.097706  0  1.067241  0
H  H36  1  0.17435145  0.44263347  0.63712590  1  0  0.089658  0  0.973019  0  0  0.107305  0  1.042071  0  0  0.108772  0  1.042569  0  0  0.072261  0.106091  0  1.042079  0
H  H37  1  0.67435184  0.94263360  0.86287397  1  0  0.089606  0  0.973001  0  0  0.10729  0  1.042022  0  0  0.108757  0  1.04252  0  0  0.072274  0.106075  0  1.04203  0
H  H38  1  0.82563461  0.55736706  0.36287413  1  0  0.089576  0  0.972969  0  0  0.107256  0  1.042021  0  0  0.10873  0  1.042514  0  0  0.072234  0.106043  0  1.04203  0
H  H39  1  0.32564656  0.05736416  0.13712328  1  0  0.089598  0  0.973057  0  0  0.107237  0  1.042135  0  0  0.108702  0  1.042635  0  0  0.072241  0.106017  0  1.042145  0
H  H40  1  0.35048978  0.42817477  0.79624361  1  0  0.084223  0  0.968204  0  0  0.088526  0  1.042763  0  0  0.092111  0  1.040169  0  0  0.099363  0.085397  0  1.045688  0
H  H41  1  0.85049195  0.92817422  0.70375544  1  0  0.08416  0  0.968255  0  0  0.088519  0  1.042778  0  0  0.092106  0  1.040183  0  0  0.099385  0.085392  0  1.045701  0
H  H42  1  0.64950098  0.57183218  0.20375919  1  0  0.084182  0  0.968224  0  0  0.088457  0  1.042815  0  0  0.092043  0  1.040222  0  0  0.099357  0.085331  0  1.045741  0
H  H43  1  0.14951257  0.07183363  0.29623904  1  0  0.084311  0  0.968062  0  0  0.088519  0  1.042699  0  0  0.092152  0  1.040061  0  0  0.099365  0.085382  0  1.04563  0
H  H44  1  0.70633501  0.63441014  0.85497861  1  0  0.082073  0  0.970808  0  0  0.084243  0  1.046467  0  0  0.087972  0  1.044103  0  0  0.099142  0.082067  0  1.047079  0
H  H45  1  0.20634514  0.13439993  0.64502491  1  0  0.082115  0  0.970785  0  0  0.084248  0  1.046496  0  0  0.087978  0  1.044134  0  0  0.099153  0.082077  0  1.047091  0
H  H46  1  0.29366155  0.36558853  0.14502072  1  0  0.082085  0  0.970822  0  0  0.084235  0  1.046494  0  0  0.087963  0  1.044135  0  0  0.099123  0.082063  0  1.047092  0
H  H47  1  0.79366899  0.86559873  0.35498274  1  0  0.08209  0  0.970782  0  0  0.084304  0  1.046389  0  0  0.088036  0  1.044021  0  0  0.099181  0.082125  0  1.047002  0
H  H48  1  0.60387903  0.72728146  0.99267004  1  0  0.074107  0  0.989546  0  0  0.080977  0  1.058096  0  0  0.083952  0  1.056871  0  0  0.095071  0.078738  0  1.059227  0
H  H49  1  0.10389458  0.22727525  0.50733331  1  0  0.074128  0  0.989502  0  0  0.080996  0  1.058059  0  0  0.083973  0  1.056832  0  0  0.095067  0.078761  0  1.059193  0
H  H50  1  0.39611885  0.27271997  0.00733137  1  0  0.07412  0  0.989474  0  0  0.080998  0  1.058029  0  0  0.083972  0  1.056804  0  0  0.095066  0.07876  0  1.05916  0
H  H51  1  0.89612997  0.77272891  0.49267156  1  0  0.074122  0  0.989495  0  0  0.081013  0  1.058027  0  0  0.083924  0  1.056864  0  0  0.095078  0.078766  0  1.059167  0
H  H52  1  0.18903927  0.41161084  0.94952273  1  0  0.079963  0  0.941054  0  0  0.093027  0  1.009017  0  0  0.094105  0  1.009412  0  0  0.086512  0.092158  0  1.008758  0
H  H53  1  0.68904406  0.91161606  0.55047366  1  0  0.079968  0  0.940952  0  0  0.093028  0  1.00894  0  0  0.094108  0  1.009338  0  0  0.086506  0.092158  0  1.008675  0
H  H54  1  0.81095733  0.58839611  0.05048076  1  0  0.080003  0  0.94113  0  0  0.093019  0  1.009099  0  0  0.09409  0  1.009488  0  0  0.086511  0.092153  0  1.00884  0
H  H55  1  0.31097607  0.08839178  0.44951528  1  0  0.080034  0  0.941115  0  0  0.09304  0  1.009135  0  0  0.094115  0  1.009528  0  0  0.086531  0.092177  0  1.008876  0
H  H56  1  0.18640589  0.55484636  0.00695785  1  0  0.084349  0  0.926284  0  0  0.102723  0  0.981408  0  0  0.104004  0  0.981234  0  0  0.095375  0.101747  0  0.981521  0
H  H57  1  0.68641596  0.05485175  0.49303840  1  0  0.084411  0  0.926294  0  0  0.10282  0  0.981389  0  0  0.104102  0  0.981217  0  0  0.095433  0.101814  0  0.981538  0
H  H58  1  0.81358595  0.44516151  0.99304287  1  0  0.084366  0  0.92621  0  0  0.102726  0  0.981315  0  0  0.104003  0  0.981136  0  0  0.095354  0.101753  0  0.981423  0
H  H59  1  0.31359929  0.94515610  0.50695470  1  0  0.084347  0  0.9262  0  0  0.102745  0  0.981297  0  0  0.104027  0  0.981121  0  0  0.095351  0.101774  0  0.981415  0
H  H60  1  0.01192163  0.52573638  0.88261333  1  0  0.095625  0  0.954289  0  0  0.11737  0  1.013915  0  0  0.118531  0  1.014589  0  0  0.08184  0.116845  0  1.012601  0
H  H61  1  0.51192642  0.02574293  0.61737477  1  0  0.095639  0  0.954393  0  0  0.117385  0  1.014002  0  0  0.11854  0  1.014682  0  0  0.08187  0.116877  0  1.012675  0
H  H62  1  0.98807343  0.47426597  0.11738531  1  0  0.095611  0  0.954255  0  0  0.117344  0  1.013908  0  0  0.118503  0  1.014584  0  0  0.081839  0.11683  0  1.012584  0
H  H63  1  0.48808346  0.97425298  0.38261071  1  0  0.095663  0  0.954252  0  0  0.117378  0  1.013918  0  0  0.118533  0  1.0146  0  0  0.081861  0.116867  0  1.01259  0
H  H64  1  0.13439369  0.50975107  0.79787639  1  0  0.084749  0  0.972212  0  0  0.107012  0  1.03649  0  0  0.106955  0  1.038605  0  0  0.079991  0.106965  0  1.03522  0
H  H65  1  0.63439151  0.00975983  0.70211694  1  0  0.084805  0  0.972209  0  0  0.107075  0  1.036448  0  0  0.107017  0  1.038563  0  0  0.079939  0.107028  0  1.03518  0
H  H66  1  0.86560374  0.49024668  0.20212364  1  0  0.084775  0  0.972235  0  0  0.107021  0  1.036514  0  0  0.106963  0  1.038632  0  0  0.080002  0.106974  0  1.035248  0
H  H67  1  0.36561155  0.99023609  0.29787269  1  0  0.084758  0  0.972298  0  0  0.107064  0  1.036494  0  0  0.107006  0  1.03861  0  0  0.079978  0.10702  0  1.035221  0
H  H68  1  0.12895705  0.65217072  0.85582848  1  0  0.095583  0  0.985046  0  0  0.113777  0  1.05111  0  0  0.114658  0  1.052708  0  0  0.072804  0.112991  0  1.050161  0
H  H69  1  0.62895813  0.15217738  0.64416372  1  0  0.095644  0  0.985012  0  0  0.113828  0  1.051079  0  0  0.114709  0  1.052677  0  0  0.07282  0.113045  0  1.050127  0
H  H70  1  0.87103790  0.34783071  0.14416808  1  0  0.095573  0  0.985093  0  0  0.113765  0  1.05116  0  0  0.114646  0  1.052759  0  0  0.0728  0.112983  0  1.050208  0
H  H71  1  0.37104504  0.84781945  0.35582937  1  0  0.095664  0  0.984978  0  0  0.11382  0  1.051084  0  0  0.1147  0  1.052682  0  0  0.07283  0.113033  0  1.050138  0
C  C72  1  0.27046430  0.68741718  0.61926236  1  0  0.23204  0  3.644552  0  0  0.240231  0  3.88218  0  0  0.246126  0  3.899468  0  0  0.129297  0.235693  0  3.871114  0
C  C73  1  0.77046325  0.18741751  0.88074148  1  0  0.231876  0  3.644665  0  0  0.24009  0  3.882241  0  0  0.245987  0  3.899527  0  0  0.129293  0.235542  0  3.871169  0
C  C74  1  0.72952847  0.31258242  0.38073905  1  0  0.231888  0  3.644753  0  0  0.240266  0  3.882118  0  0  0.246162  0  3.899406  0  0  0.129361  0.235722  0  3.871049  0
C  C75  1  0.22953785  0.81257841  0.11926063  1  0  0.231914  0  3.644506  0  0  0.240009  0  3.882262  0  0  0.245905  0  3.899547  0  0  0.129259  0.235465  0  3.871196  0
C  C76  1  0.19244961  0.76289291  0.66760157  1  0  0.036394  0  3.61093  0  0  -0.001572  0  3.872681  0  0  0.00285  0  3.881398  0  0  0.049049  -0.004463  0  3.868112  0
C  C77  1  0.69244614  0.26289211  0.83240147  1  0  0.036228  0  3.611204  0  0  -0.001769  0  3.872938  0  0  0.002643  0  3.881659  0  0  0.048993  -0.004655  0  3.868367  0
C  C78  1  0.80754403  0.23710577  0.33239777  1  0  0.036387  0  3.611094  0  0  -0.001667  0  3.872811  0  0  0.002755  0  3.881527  0  0  0.048982  -0.004549  0  3.868232  0
C  C79  1  0.30755507  0.73710472  0.16759995  1  0  0.036354  0  3.61097  0  0  -0.001609  0  3.872766  0  0  0.002816  0  3.881478  0  0  0.048956  -0.00449  0  3.868187  0
C  C80  1  0.36835623  0.84008712  0.75591560  1  0  0.053366  0  3.677913  0  0  0.022376  0  3.935117  0  0  0.024581  0  3.948607  0  0  0.035199  0.020845  0  3.926384  0
C  C81  1  0.86834721  0.34007769  0.74408264  1  0  0.053263  0  3.677878  0  0  0.022286  0  3.935041  0  0  0.02449  0  3.948531  0  0  0.035026  0.020755  0  3.926312  0
C  C82  1  0.63164154  0.15991339  0.24408373  1  0  0.053282  0  3.677903  0  0  0.022318  0  3.935073  0  0  0.024522  0  3.948565  0  0  0.035191  0.020789  0  3.926337  0
C  C83  1  0.13165258  0.65991548  0.25591531  1  0  0.053225  0  3.677724  0  0  0.02222  0  3.93491  0  0  0.024426  0  3.948398  0  0  0.035048  0.020691  0  3.926177  0
C  C84  1  0.44690611  0.76672443  0.70831637  1  0  0.076732  0  3.685035  0  0  0.047784  0  3.939341  0  0  0.051833  0  3.953903  0  0  0.037591  0.044449  0  3.930377  0
C  C85  1  0.94690167  0.26671795  0.79168268  1  0  0.076618  0  3.685127  0  0  0.047641  0  3.939441  0  0  0.051691  0  3.953998  0  0  0.037625  0.044298  0  3.930471  0
C  C86  1  0.55308753  0.23327425  0.29168366  1  0  0.076821  0  3.684986  0  0  0.047868  0  3.939266  0  0  0.051919  0  3.953829  0  0  0.03757  0.044522  0  3.930284  0
C  C87  1  0.05309943  0.73327797  0.20831596  1  0  0.076649  0  3.685097  0  0  0.047707  0  3.93939  0  0  0.051757  0  3.953949  0  0  0.037582  0.044379  0  3.930435  0
C  C88  1  0.20980800  0.60198053  0.54658076  1  0  -0.146636  0  3.726665  0  0  -0.18098  0  3.962722  0  0  -0.184136  0  3.975618  0  0  -0.170572  -0.178265  0  3.953364  0
C  C89  1  0.70980920  0.10197933  0.95342270  1  0  -0.146579  0  3.726632  0  0  -0.180983  0  3.962791  0  0  -0.184141  0  3.975682  0  0  -0.170582  -0.178261  0  3.953426  0
C  C90  1  0.79018586  0.39801999  0.45342065  1  0  -0.146491  0  3.726612  0  0  -0.180926  0  3.96269  0  0  -0.184082  0  3.975588  0  0  -0.170577  -0.178211  0  3.95333  0
C  C91  1  0.29019190  0.89801659  0.04657732  1  0  -0.146646  0  3.726678  0  0  -0.180981  0  3.962792  0  0  -0.184132  0  3.975679  0  0  -0.170575  -0.178262  0  3.953429  0
C  C92  1  0.11944700  0.49595504  0.58942264  1  0  -0.283741  0  3.701669  0  0  -0.354463  0  3.938876  0  0  -0.358367  0  3.951289  0  0  -0.254587  -0.351106  0  3.930015  0
C  C93  1  0.61944675  0.99595538  0.91057854  1  0  -0.283669  0  3.701542  0  0  -0.354414  0  3.938786  0  0  -0.358314  0  3.951195  0  0  -0.254613  -0.351059  0  3.929922  0
C  C94  1  0.88054394  0.50404548  0.41057601  1  0  -0.283699  0  3.701462  0  0  -0.354455  0  3.938616  0  0  -0.358371  0  3.951036  0  0  -0.254589  -0.351099  0  3.929753  0
C  C95  1  0.38055349  0.00404146  0.08942080  1  0  -0.283603  0  3.701645  0  0  -0.354335  0  3.938819  0  0  -0.358242  0  3.951241  0  0  -0.254558  -0.350971  0  3.929956  0
C  C96  1  0.34846617  0.54754083  0.91732191  1  0  0.213513  0  3.719038  0  0  0.225184  0  3.964787  0  0  0.22848  0  3.985691  0  0  0.125717  0.222579  0  3.95112  0
C  C97  1  0.84847404  0.04754263  0.58267638  1  0  0.213219  0  3.719129  0  0  0.224914  0  3.964904  0  0  0.22821  0  3.985815  0  0  0.125625  0.222309  0  3.951221  0
C  C98  1  0.65152534  0.45246429  0.08268020  1  0  0.213446  0  3.718937  0  0  0.22497  0  3.964817  0  0  0.228252  0  3.985715  0  0  0.125691  0.222366  0  3.951149  0
C  C99  1  0.15153915  0.95246430  0.41731741  1  0  0.213433  0  3.71876  0  0  0.225068  0  3.964525  0  0  0.228359  0  3.985442  0  0  0.125521  0.222465  0  3.950856  0
C  C100  1  0.40633049  0.49578454  0.84075430  1  0  0.023849  0  3.626861  0  0  -0.011379  0  3.878805  0  0  -0.009598  0  3.894468  0  0  0.039933  -0.013239  0  3.86998  0
C  C101  1  0.90633722  0.99578379  0.65924438  1  0  0.024059  0  3.626746  0  0  -0.011227  0  3.878717  0  0  -0.009445  0  3.894382  0  0  0.039966  -0.013081  0  3.86989  0
C  C102  1  0.59366296  0.50422057  0.15924642  1  0  0.024027  0  3.626806  0  0  -0.011085  0  3.878737  0  0  -0.009302  0  3.894403  0  0  0.040043  -0.012939  0  3.869921  0
C  C103  1  0.09367304  0.00422314  0.34075149  1  0  0.023719  0  3.626758  0  0  -0.011366  0  3.878645  0  0  -0.009624  0  3.894287  0  0  0.039965  -0.013219  0  3.869817  0
C  C104  1  0.60363385  0.60877411  0.87340356  1  0  0.051901  0  3.686004  0  0  0.021115  0  3.942487  0  0  0.022534  0  3.958491  0  0  0.031558  0.019594  0  3.932535  0
C  C105  1  0.10364299  0.10876474  0.62659886  1  0  0.051827  0  3.686032  0  0  0.021082  0  3.942498  0  0  0.022499  0  3.958504  0  0  0.031526  0.019569  0  3.932552  0
C  C106  1  0.39635795  0.39122549  0.12659923  1  0  0.051803  0  3.686017  0  0  0.021075  0  3.942496  0  0  0.022493  0  3.958501  0  0  0.031535  0.019569  0  3.932545  0
C  C107  1  0.89637027  0.89123484  0.37340393  1  0  0.051988  0  3.685983  0  0  0.021155  0  3.942491  0  0  0.022573  0  3.958481  0  0  0.031583  0.019635  0  3.932533  0
C  C108  1  0.54581823  0.66047431  0.94855705  1  0  0.071396  0  3.734004  0  0  0.051406  0  3.990242  0  0  0.052715  0  4.008232  0  0  0.038987  0.049951  0  3.979337  0
C  C109  1  0.04582922  0.16046829  0.55144460  1  0  0.071338  0  3.734121  0  0  0.051335  0  3.990382  0  0  0.052642  0  4.008374  0  0  0.03898  0.049872  0  3.979483  0
C  C110  1  0.45417988  0.33952896  0.05144575  1  0  0.071314  0  3.733914  0  0  0.051296  0  3.99017  0  0  0.052606  0  4.008162  0  0  0.038968  0.049838  0  3.979264  0
C  C111  1  0.95418948  0.83953588  0.44855612  1  0  0.071274  0  3.733926  0  0  0.051265  0  3.990192  0  0  0.052623  0  4.008212  0  0  0.038963  0.049816  0  3.97928  0
C  C112  1  0.20634161  0.51208793  0.94036398  1  0  -0.141718  0  3.721456  0  0  -0.178687  0  3.968925  0  0  -0.180197  0  3.981537  0  0  -0.163035  -0.17748  0  3.960458  0
C  C113  1  0.70634857  0.01209147  0.55963306  1  0  -0.141694  0  3.721393  0  0  -0.178713  0  3.968906  0  0  -0.180229  0  3.981531  0  0  -0.163084  -0.177482  0  3.960438  0
C  C114  1  0.79365500  0.48791901  0.05963743  1  0  -0.141866  0  3.721583  0  0  -0.178671  0  3.968913  0  0  -0.180144  0  3.981476  0  0  -0.163018  -0.177469  0  3.960448  0
C  C115  1  0.29366927  0.98791361  0.44035935  1  0  -0.1419  0  3.721707  0  0  -0.178845  0  3.969208  0  0  -0.18035  0  3.981813  0  0  -0.163053  -0.177654  0  3.960756  0
C  C116  1  0.11535878  0.55213675  0.86473712  1  0  -0.276825  0  3.703205  0  0  -0.345725  0  3.935633  0  0  -0.349173  0  3.948805  0  0  -0.251389  -0.343194  0  3.926502  0
C  C117  1  0.61536163  0.05214246  0.63525623  1  0  -0.276948  0  3.703357  0  0  -0.345828  0  3.935788  0  0  -0.349266  0  3.948965  0  0  -0.251358  -0.343316  0  3.926635  0
C  C118  1  0.88463520  0.44786469  0.13526291  1  0  -0.276751  0  3.703331  0  0  -0.345665  0  3.935739  0  0  -0.349121  0  3.948905  0  0  -0.251392  -0.343151  0  3.926606  0
C  C119  1  0.38464458  0.94785529  0.36473548  1  0  -0.276875  0  3.703506  0  0  -0.345743  0  3.935878  0  0  -0.349186  0  3.949052  0  0  -0.251388  -0.343228  0  3.92674  0
I  I120  1  0.76908407  0.64865781  0.64434668  1  0  -0.463191  0  1.380306  0  0  -0.406642  0  1.766688  0  0  -0.423968  0  1.735151  0  0  -0.205845  -0.393858  0  1.788969  0
I  I121  1  0.26908082  0.14866229  0.85565708  1  0  -0.463187  0  1.380426  0  0  -0.406607  0  1.76678  0  0  -0.423946  0  1.735259  0  0  -0.205831  -0.393836  0  1.789071  0
I  I122  1  0.23092060  0.35133534  0.35566167  1  0  -0.463183  0  1.380477  0  0  -0.40661  0  1.766846  0  0  -0.423953  0  1.735329  0  0  -0.205829  -0.393835  0  1.789137  0
I  I123  1  0.73091923  0.85134097  0.14434156  1  0  -0.463211  0  1.380453  0  0  -0.406635  0  1.766817  0  0  -0.423975  0  1.735294  0  0  -0.20584  -0.39385  0  1.78909  0
I  I124  1  0.55495840  0.65582298  0.40078969  1  0  -0.349256  0  1.732825  0  0  -0.292975  0  2.181499  0  0  -0.310098  0  2.141812  0  0  -0.15383  -0.280754  0  2.206712  0
I  I125  1  0.05496468  0.15582360  0.09921740  1  0  -0.349259  0  1.732907  0  0  -0.292957  0  2.181547  0  0  -0.310085  0  2.141878  0  0  -0.153805  -0.280741  0  2.206751  0
I  I126  1  0.44503944  0.34417018  0.59921726  1  0  -0.349256  0  1.732969  0  0  -0.292942  0  2.181603  0  0  -0.310066  0  2.141919  0  0  -0.153791  -0.28072  0  2.206805  0
I  I127  1  0.94504239  0.84417323  0.90078609  1  0  -0.349198  0  1.732877  0  0  -0.292905  0  2.181546  0  0  -0.310033  0  2.141867  0  0  -0.153792  -0.280689  0  2.206755  0
N  N128  1  0.39969747  0.68941746  0.63995061  1  0  -0.260545  0  3.272393  0  0  -0.198084  0  3.549737  0  0  -0.205336  0  3.555704  0  0  -0.338624  -0.19317  0  3.546118  0
N  N129  1  0.89969420  0.18941679  0.86005090  1  0  -0.260516  0  3.272224  0  0  -0.19802  0  3.549527  0  0  -0.205276  0  3.555496  0  0  -0.338675  -0.193099  0  3.545906  0
N  N130  1  0.60029606  0.31058030  0.36005081  1  0  -0.260569  0  3.272541  0  0  -0.198175  0  3.549844  0  0  -0.205433  0  3.555818  0  0  -0.338644  -0.193264  0  3.546231  0
N  N131  1  0.10030713  0.81058097  0.13995051  1  0  -0.260507  0  3.27225  0  0  -0.197991  0  3.549595  0  0  -0.205249  0  3.555573  0  0  -0.338613  -0.193073  0  3.54597  0
N  N132  1  0.23936517  0.83908689  0.73585578  1  0  -0.216218  0  3.36613  0  0  -0.152483  0  3.66434  0  0  -0.154024  0  3.666641  0  0  -0.349862  -0.152121  0  3.661935  0
N  N133  1  0.73935784  0.33908214  0.76414549  1  0  -0.216082  0  3.366136  0  0  -0.152301  0  3.664274  0  0  -0.153843  0  3.666579  0  0  -0.349748  -0.151941  0  3.661868  0
N  N134  1  0.76063064  0.16091362  0.26414355  1  0  -0.216178  0  3.366161  0  0  -0.152443  0  3.664352  0  0  -0.153987  0  3.666656  0  0  -0.349845  -0.152083  0  3.661944  0
N  N135  1  0.26064195  0.66091102  0.23585454  1  0  -0.216137  0  3.365949  0  0  -0.152357  0  3.664106  0  0  -0.153903  0  3.666409  0  0  -0.349744  -0.151994  0  3.6617  0
N  N136  1  0.41892084  0.63121821  0.97089937  1  0  -0.315254  0  3.035323  0  0  -0.285693  0  3.298326  0  0  -0.294172  0  3.315321  0  0  -0.302485  -0.280145  0  3.287464  0
N  N137  1  0.91893188  0.13121703  0.52910278  1  0  -0.315029  0  3.03544  0  0  -0.285461  0  3.298424  0  0  -0.293939  0  3.315421  0  0  -0.302378  -0.279913  0  3.287558  0
N  N138  1  0.58107772  0.36878873  0.02910343  1  0  -0.315094  0  3.03512  0  0  -0.285499  0  3.29818  0  0  -0.293979  0  3.315178  0  0  -0.302444  -0.279949  0  3.287314  0
N  N139  1  0.08108945  0.86879265  0.47089655  1  0  -0.315136  0  3.03524  0  0  -0.285562  0  3.298258  0  0  -0.294038  0  3.315229  0  0  -0.302376  -0.280016  0  3.287391  0
N  N140  1  0.53295712  0.52633613  0.81855471  1  0  -0.226719  0  3.396967  0  0  -0.156304  0  3.682153  0  0  -0.162699  0  3.690925  0  0  -0.348286  -0.152937  0  3.676911  0
N  N141  1  0.03296309  0.02632976  0.68144524  1  0  -0.226766  0  3.397016  0  0  -0.156393  0  3.682299  0  0  -0.162787  0  3.691068  0  0  -0.348351  -0.153038  0  3.677067  0
N  N142  1  0.46703697  0.47366622  0.18144671  1  0  -0.226715  0  3.396863  0  0  -0.156409  0  3.682141  0  0  -0.162804  0  3.69091  0  0  -0.348347  -0.153067  0  3.676921  0
N  N143  1  0.96704564  0.97367258  0.31855410  1  0  -0.226644  0  3.397017  0  0  -0.156249  0  3.682184  0  0  -0.162644  0  3.690973  0  0  -0.348283  -0.152879  0  3.676942  0
