# generated using pymatgen
data_MnH30C20S2(N4O)4
_symmetry_space_group_name_H-M   'P 1'
_cell_length_a   8.65443219
_cell_length_b   8.85398293
_cell_length_c   10.56682814
_cell_angle_alpha   82.63859732
_cell_angle_beta   83.63108837
_cell_angle_gamma   69.89131300
_symmetry_Int_Tables_number   1
_chemical_formula_structural   MnH30C20S2(N4O)4
_chemical_formula_sum   'Mn1 H30 C20 S2 N16 O4'
_cell_volume   752.12466427
_cell_formula_units_Z   1
loop_
 _symmetry_equiv_pos_site_id
 _symmetry_equiv_pos_as_xyz
  1  'x, y, z'
loop_
 _atom_site_type_symbol
 _atom_site_label
 _atom_site_symmetry_multiplicity
 _atom_site_fract_x
 _atom_site_fract_y
 _atom_site_fract_z
 _atom_site_occupancy
 _atom_site_hle17_ddec_charge
 _atom_site_hle17_ddec_spin_density
 _atom_site_hle17_ddec_sum_bond_order
 _atom_site_hle17_magmom
 _atom_site_hse06_10hf_ddec_charge
 _atom_site_hse06_10hf_ddec_spin_density
 _atom_site_hse06_10hf_ddec_sum_bond_order
 _atom_site_hse06_10hf_magmom
 _atom_site_hse06_ddec_charge
 _atom_site_hse06_ddec_spin_density
 _atom_site_hse06_ddec_sum_bond_order
 _atom_site_hse06_magmom
 _atom_site_pbe_cm5_charge
 _atom_site_pbe_ddec_charge
 _atom_site_pbe_ddec_spin_density
 _atom_site_pbe_ddec_sum_bond_order
 _atom_site_pbe_magmom
Mn  Mn0  1  0.00000034  0.49999909  0.00000515  1  0.994283  4.776036  2.087478  4.651  0.816304  4.690134  2.610844  4.492  0.869721  4.739354  2.54959  4.561  0.624326  0.774795  4.641347  2.656534  4.425
H  H1  1  0.32330869  0.99078824  0.13161741  1  0.081756  7.8e-05  0.957  0.0  0.091575  0.000232  1.030699  0.0  0.09137  0.000135  1.031903  0.0  0.106189  0.091705  0.000229  1.029857  0.0
H  H2  1  0.67669515  0.00921248  0.86838145  1  0.081729  7.1e-05  0.957062  0.0  0.091548  0.000232  1.030739  0.0  0.091341  0.000135  1.031944  0.0  0.10618  0.091679  0.000229  1.029897  0.0
H  H3  1  0.43875962  0.78949214  0.18445665  1  0.075828  -3e-05  0.934887  0.0  0.093048  -2.1e-05  0.998501  0.0  0.092974  -2.8e-05  0.999193  0.0  0.112315  0.093135  -3e-06  0.997897  0.0
H  H4  1  0.56123724  0.21050861  0.81554281  1  0.075842  -4.1e-05  0.934886  0.0  0.093055  -2.1e-05  0.998486  0.0  0.09298  -2.8e-05  0.999177  0.0  0.112319  0.093142  -3e-06  0.997884  0.0
H  H5  1  0.39442723  0.97131415  0.35433179  1  0.085372  3.7e-05  0.9429  0.0  0.102459  6.7e-05  1.004654  0.0  0.103499  4.9e-05  1.005096  0.0  0.093978  0.101709  0.000112  1.0041  0.0
H  H6  1  0.60557352  0.02868538  0.64566841  1  0.085386  3.3e-05  0.942857  0.0  0.102463  6.7e-05  1.004658  0.0  0.103517  4.8e-05  1.005084  0.0  0.093982  0.101713  0.000112  1.004102  0.0
H  H7  1  0.17796665  0.03421441  0.34681873  1  0.067243  -4e-06  0.937092  0.0  0.084904  -2e-06  0.998836  0.0  0.085196  -6e-06  0.999978  0.0  0.089372  0.084704  1.6e-05  0.997704  0.0
H  H8  1  0.82203807  0.96578027  0.65317976  1  0.067238  -7e-06  0.937058  0.0  0.084936  -2e-06  0.998791  0.0  0.085229  -5e-06  0.999935  0.0  0.089375  0.084737  1.6e-05  0.997657  0.0
H  H9  1  0.17891348  0.75456164  0.41646137  1  0.078063  -1e-05  0.959346  0.0  0.093537  -3e-06  1.024916  0.0  0.09453  -4e-06  1.025333  0.0  0.092187  0.092933  -1e-06  1.024227  0.0
H  H10  1  0.82108966  0.24543425  0.58353902  1  0.078074  -0.0  0.959374  0.0  0.093536  -3e-06  1.024963  0.0  0.094516  -4e-06  1.025394  0.0  0.092168  0.092934  -1e-06  1.024274  0.0
H  H11  1  0.39697901  0.68364365  0.41778089  1  0.073334  3e-06  0.960436  0.0  0.085307  1.9e-05  1.035403  0.0  0.086806  1e-05  1.034418  0.0  0.090002  0.084114  4e-05  1.036106  0.0
H  H12  1  0.60302292  0.31635586  0.58221637  1  0.073332  1e-05  0.960443  0.0  0.085301  1.9e-05  1.035421  0.0  0.086805  1e-05  1.034426  0.0  0.089985  0.084108  4e-05  1.036123  0.0
H  H13  1  0.38271849  0.84215478  0.59626550  1  0.076247  0.0001  0.946634  0.0  0.08571  0.000223  1.022641  0.0  0.08689  0.000171  1.021542  0.0  0.102558  0.084938  0.000287  1.023283  0.0
H  H14  1  0.61727919  0.15784356  0.40373321  1  0.076227  0.000101  0.946738  0.0  0.085697  0.000223  1.022719  0.0  0.086878  0.000171  1.021618  0.0  0.102546  0.084927  0.000287  1.023359  0.0
H  H15  1  0.16717393  0.93783162  0.58951985  1  0.083215  -3.4e-05  0.916749  0.0  0.098142  -2.2e-05  0.981424  0.0  0.099264  -2.1e-05  0.98071  0.0  0.113303  0.097213  -1.2e-05  0.982235  0.0
H  H16  1  0.83282334  0.06216793  0.41047875  1  0.083277  -3.9e-05  0.916675  0.0  0.098128  -2.2e-05  0.981433  0.0  0.09925  -2.1e-05  0.980719  0.0  0.113285  0.0972  -1.2e-05  0.982242  0.0
H  H17  1  0.82697573  0.87759811  0.11233356  1  0.090248  -0.000236  0.945367  0.0  0.096248  3e-05  1.014836  0.0  0.098712  -6.5e-05  1.011822  0.0  0.127747  0.094388  0.000151  1.017141  0.0
H  H18  1  0.17302181  0.12240748  0.88766721  1  0.090249  -0.000241  0.94536  0.0  0.096218  3e-05  1.014863  0.0  0.098681  -6.4e-05  1.011853  0.0  0.127728  0.09436  0.00015  1.017162  0.0
H  H19  1  0.32786351  0.58955595  0.11041736  1  0.105358  -0.000301  0.933916  0.0  0.112663  -8.8e-05  1.000844  0.0  0.114898  -0.000133  0.998399  0.0  0.140176  0.110994  -2.5e-05  1.002429  0.0
H  H20  1  0.67213488  0.41044721  0.88957981  1  0.105368  -0.000299  0.933944  0.0  0.11267  -8.8e-05  1.000879  0.0  0.114913  -0.000133  0.998414  0.0  0.140183  0.111004  -2.5e-05  1.002463  0.0
H  H21  1  0.30078199  0.33306215  0.76408311  1  0.088541  -0.00022  0.941578  0.0  0.098937  -3.7e-05  1.003774  0.0  0.10067  -8.9e-05  1.001972  0.0  0.132755  0.097494  3.1e-05  1.005346  0.0
H  H22  1  0.69921411  0.66693740  0.23591654  1  0.08853  -0.000215  0.941532  0.0  0.09891  -3.6e-05  1.003768  0.0  0.100644  -8.9e-05  1.001962  0.0  0.132724  0.097466  3.2e-05  1.00534  0.0
H  H23  1  0.04372200  0.82804968  0.78964814  1  0.100926  -0.00024  0.993727  0.0  0.099406  -3.5e-05  1.07533  0.0  0.103746  -9.2e-05  1.070028  0.0  0.132827  0.096029  9.9e-05  1.079292  0.0
H  H24  1  0.95627991  0.17194984  0.21035290  1  0.100904  -0.00025  0.99378  0.0  0.099395  -3.5e-05  1.075362  0.0  0.10373  -9.1e-05  1.070065  0.0  0.132829  0.09602  9.9e-05  1.079323  0.0
H  H25  1  0.13865433  0.46823839  0.35318443  1  0.146926  -0.000196  0.930016  0.0  0.160165  -0.000213  0.994121  0.0  0.163001  -0.00022  0.992748  0.0  0.115397  0.158108  -0.000203  0.995013  0.0
H  H26  1  0.86134677  0.53176355  0.64681548  1  0.146903  -0.000182  0.930007  0.0  0.160145  -0.000213  0.994128  0.0  0.162979  -0.000219  0.992759  0.0  0.115382  0.158083  -0.000203  0.99503  0.0
H  H27  1  0.33358467  0.31002053  0.31853336  1  0.134673  -6e-05  0.974063  0.0  0.148304  -3.1e-05  1.044454  0.0  0.150446  -5e-05  1.043944  0.0  0.10748  0.14703  3e-06  1.044015  0.0
H  H28  1  0.66641644  0.68998142  0.68146655  1  0.134622  -5e-05  0.974082  0.0  0.14825  -3.1e-05  1.044488  0.0  0.150393  -4.9e-05  1.043976  0.0  0.107461  0.146975  3e-06  1.04405  0.0
H  H29  1  0.32434030  0.45262947  0.42720931  1  0.148963  1.1e-05  0.946758  0.0  0.158874  4.8e-05  1.022221  0.0  0.162033  3.1e-05  1.019761  0.0  0.120471  0.156687  7.6e-05  1.023789  0.0
H  H30  1  0.67566238  0.54737125  0.57278965  1  0.148998  1.9e-05  0.946679  0.0  0.158923  4.8e-05  1.022135  0.0  0.162081  3.1e-05  1.019674  0.0  0.1205  0.156737  7.6e-05  1.023702  0.0
C  C31  1  0.32096267  0.88678285  0.19938302  1  -0.017392  0.000271  3.646645  0.0  -0.095724  0.000565  3.907707  0.0  -0.09163  0.000413  3.919633  0.0  -0.050916  -0.098352  0.000854  3.899059  0.001
C  C32  1  0.67903651  0.11321789  0.80061624  1  -0.017426  0.000293  3.646744  0.0  -0.095678  0.000564  3.907742  0.0  -0.091588  0.000411  3.91969  0.0  -0.050888  -0.098308  0.000854  3.899094  0.001
C  C33  1  0.29270779  0.93070130  0.33703018  1  -0.122112  4.8e-05  3.677375  0.0  -0.161138  0.000193  3.937198  0.0  -0.162925  0.000132  3.95137  0.0  -0.165487  -0.159479  0.000251  3.926683  0.0
C  C34  1  0.70729262  0.06929581  0.66296937  1  -0.122045  6.8e-05  3.677308  0.0  -0.161169  0.000193  3.937232  0.0  -0.162966  0.000134  3.951397  0.0  -0.16549  -0.159509  0.000251  3.926714  0.0
C  C35  1  0.28515793  0.78859118  0.43276474  1  -0.135899  4.5e-05  3.688652  0.0  -0.17975  0.000113  3.95371  0.0  -0.181092  7.3e-05  3.966888  0.0  -0.172563  -0.178653  0.000156  3.944125  0.0
C  C36  1  0.71484364  0.21140593  0.56723470  1  -0.135907  1e-05  3.688708  0.0  -0.179734  0.000113  3.95379  0.0  -0.181067  7.2e-05  3.966973  0.0  -0.172501  -0.17864  0.000156  3.94422  0.0
C  C37  1  0.26973559  0.82637399  0.57117952  1  -0.006943  0.000409  3.617644  0.0  -0.080905  0.000633  3.875077  0.0  -0.077312  0.000493  3.88601  0.0  -0.05086  -0.0833  0.000801  3.867827  0.001
C  C38  1  0.73026091  0.17362435  0.42882022  1  -0.00694  0.000416  3.61768  0.0  -0.08085  0.000633  3.875065  0.0  -0.077255  0.000493  3.885993  0.0  -0.050834  -0.083246  0.000802  3.86781  0.001
C  C39  1  0.95847068  0.83499468  0.12441460  1  0.204154  0.000897  3.705723  0.002  0.14793  0.002373  4.002392  0.003  0.160192  0.001794  4.013612  0.002  0.146975  0.139967  0.003203  3.994372  0.004
C  C40  1  0.04152649  0.16501210  0.87558323  1  0.204237  0.000908  3.705742  0.002  0.148027  0.002373  4.002413  0.003  0.160288  0.001792  4.013634  0.002  0.147029  0.140068  0.003202  3.994385  0.004
C  C41  1  0.21100431  0.68646151  0.12210549  1  0.167107  0.002058  3.652061  0.003  0.092767  0.004066  3.914193  0.004  0.106645  0.003174  3.926805  0.003  0.164492  0.084021  0.004784  3.904657  0.005
C  C42  1  0.78899174  0.31354166  0.87789284  1  0.167156  0.002055  3.652055  0.003  0.092811  0.004065  3.9142  0.004  0.106696  0.003175  3.926808  0.003  0.164498  0.084065  0.004783  3.904665  0.005
C  C43  1  0.26019157  0.46354348  0.74523266  1  0.185384  0.001094  3.734159  0.002  0.13077  0.002687  4.028011  0.003  0.141575  0.002041  4.04251  0.003  0.138288  0.123831  0.003246  4.017928  0.004
C  C44  1  0.73980918  0.53645605  0.25476754  1  0.185449  0.00106  3.734125  0.002  0.13084  0.002687  4.027982  0.003  0.141645  0.002043  4.042482  0.003  0.138314  0.1239  0.003247  4.017897  0.004
C  C45  1  0.12450497  0.71205780  0.75945832  1  0.167095  0.001906  3.636384  0.002  0.093021  0.003975  3.902493  0.004  0.10633  0.003117  3.91328  0.003  0.158351  0.084653  0.004891  3.895081  0.005
C  C46  1  0.87549229  0.28794175  0.24054123  1  0.167147  0.001917  3.636375  0.002  0.093048  0.003974  3.902466  0.004  0.106363  0.003123  3.913255  0.003  0.158352  0.084681  0.004892  3.895051  0.005
C  C47  1  0.36392549  0.26369666  0.07982285  1  0.27225  0.019729  4.082742  0.021  0.262343  0.025659  4.375406  0.026  0.28495  0.023014  4.390199  0.024  0.135688  0.246403  0.028743  4.365161  0.029
C  C48  1  0.63608386  0.73629440  0.92018698  1  0.272233  0.019732  4.083084  0.021  0.26232  0.025645  4.375746  0.026  0.284925  0.022999  4.390539  0.024  0.135681  0.246383  0.028727  4.36551  0.029
C  C49  1  0.25438228  0.38756114  0.39020349  1  -0.27901  -8.3e-05  3.514141  0.0  -0.387624  -0.000143  3.758449  0.0  -0.387825  -0.000139  3.759797  0.0  -0.139981  -0.387027  -0.000114  3.75685  0.0
C  C50  1  0.74561917  0.61244321  0.60979613  1  -0.278909  -0.000149  3.514088  0.0  -0.387542  -0.000139  3.758422  0.0  -0.387743  -0.000147  3.759769  0.0  -0.139954  -0.386938  -0.000114  3.756831  0.0
S  S51  1  0.54790144  0.19472618  0.12958930  1  -0.360719  0.013798  2.021064  0.011  -0.347624  0.019606  2.309464  0.014  -0.363543  0.015557  2.306767  0.011  -0.165345  -0.33541  0.023657  2.310406  0.017
S  S52  1  0.45211167  0.80527451  0.87041634  1  -0.360717  0.013796  2.021087  0.011  -0.347608  0.019597  2.309478  0.014  -0.363531  0.015551  2.306783  0.011  -0.165332  -0.335394  0.023646  2.310422  0.017
N  N53  1  0.19428679  0.82860121  0.16424509  1  0.041105  0.000948  3.572183  0.001  0.164859  0.002056  3.752403  0.002  0.154486  0.001581  3.776713  0.002  -0.133806  0.170668  0.002358  3.737477  0.002
N  N54  1  0.80571083  0.17140075  0.83575417  1  0.041075  0.000944  3.572061  0.001  0.164808  0.002056  3.752281  0.002  0.15442  0.001578  3.776612  0.002  -0.133871  0.170622  0.002358  3.737356  0.002
N  N55  1  0.03334061  0.92516895  0.16640406  1  -0.272794  0.000213  2.886348  0.0  -0.26528  0.000942  3.15229  0.001  -0.274783  0.00048  3.165896  0.001  -0.217123  -0.258397  0.00135  3.143034  0.001
N  N56  1  0.96665894  0.07483420  0.83359396  1  -0.272828  0.000215  2.886311  0.0  -0.265302  0.000942  3.152252  0.001  -0.274803  0.000482  3.16586  0.001  -0.217102  -0.258417  0.00135  3.142991  0.001
N  N57  1  0.06319571  0.68623240  0.09605345  1  -0.396067  0.027419  3.175415  0.016  -0.33062  0.034029  3.473092  0.018  -0.35269  0.030783  3.485759  0.016  -0.330314  -0.314777  0.036907  3.463802  0.02
N  N58  1  0.93680069  0.31377318  0.90394552  1  -0.396186  0.027419  3.175532  0.016  -0.330718  0.034033  3.473191  0.018  -0.352783  0.030786  3.485844  0.016  -0.330328  -0.314874  0.036909  3.463902  0.02
N  N59  1  0.23740823  0.69758485  0.65946672  1  0.043241  0.000826  3.562723  0.001  0.164311  0.001761  3.746577  0.002  0.154749  0.001314  3.769592  0.001  -0.133705  0.169909  0.002156  3.732244  0.002
N  N60  1  0.76258829  0.30241349  0.34053113  1  0.043123  0.000818  3.562731  0.001  0.164275  0.001763  3.746503  0.002  0.154704  0.001313  3.769532  0.001  -0.133722  0.169873  0.002157  3.732172  0.002
N  N61  1  0.32631229  0.53894312  0.64879531  1  -0.283529  0.000585  2.874732  0.001  -0.277154  0.001418  3.145718  0.001  -0.286195  0.000932  3.160293  0.001  -0.22476  -0.270881  0.001868  3.136058  0.002
N  N62  1  0.67368496  0.46105643  0.35120519  1  -0.283522  0.000617  2.874768  0.001  -0.277168  0.001419  3.145733  0.001  -0.286207  0.00093  3.160309  0.001  -0.224732  -0.270896  0.001868  3.136073  0.002
N  N63  1  0.13551813  0.56497200  0.81607831  1  -0.401336  0.027872  3.203673  0.016  -0.334658  0.034205  3.500654  0.018  -0.357191  0.030914  3.51454  0.016  -0.334764  -0.318408  0.036896  3.490575  0.02
N  N64  1  0.86448111  0.43502513  0.18392133  1  -0.401368  0.027884  3.203744  0.016  -0.334689  0.03421  3.500732  0.018  -0.357222  0.030913  3.514614  0.016  -0.334781  -0.318439  0.036899  3.490653  0.02
N  N65  1  0.22704815  0.31444630  0.04589802  1  -0.564141  0.015096  2.915131  -0.001  -0.509071  0.020549  3.203382  -0.002  -0.531453  0.015019  3.206117  -0.006  -0.399699  -0.493086  0.026021  3.202163  0.002
N  N66  1  0.77294900  0.68555689  0.95410872  1  -0.564093  0.015081  2.915375  -0.001  -0.509018  0.020558  3.203614  -0.002  -0.531399  0.015032  3.206348  -0.006  -0.399698  -0.493024  0.026028  3.202374  0.002
N  N67  1  0.21652409  0.27961799  0.49941761  1  0.544603  3.2e-05  3.927081  0.0  0.595252  8.3e-05  4.214856  0.0  0.614269  4e-06  4.22574  0.0  0.044969  0.582324  0.000282  4.207789  0.0
N  N68  1  0.78347626  0.72038274  0.50058155  1  0.544405  4.2e-05  3.927337  0.0  0.595096  8e-05  4.215094  0.0  0.614104  9e-06  4.225983  0.0  0.044929  0.582169  0.000282  4.208022  0.0
O  O69  1  0.07020912  0.29241221  0.52952710  1  -0.362017  1.5e-05  1.756623  0.0  -0.356231  2.2e-05  1.961811  0.0  -0.368843  0.0  1.960383  0.0  -0.134183  -0.348322  0.000139  1.96315  0.0
O  O70  1  0.92979163  0.70758732  0.47047215  1  -0.361971  2.9e-05  1.756707  0.0  -0.3562  2.3e-05  1.96188  0.0  -0.368808  9e-06  1.960455  0.0  -0.134192  -0.348297  0.000139  1.963226  0.0
O  O71  1  0.33466100  0.18094120  0.55472308  1  -0.356818  -7.7e-05  1.758055  0.0  -0.34293  -2.7e-05  1.962124  0.0  -0.356634  -5.8e-05  1.960751  0.0  -0.124198  -0.334299  8.1e-05  1.963604  0.0
O  O72  1  0.66534017  0.81905712  0.44527532  1  -0.35673  -0.000101  1.758166  0.0  -0.34285  -2.7e-05  1.962215  0.0  -0.356548  -7e-05  1.960841  0.0  -0.124172  -0.334224  8.1e-05  1.963701  0.0
