# generated using pymatgen
data_CaH5C7NO5
_symmetry_space_group_name_H-M   'P 1'
_cell_length_a   7.87904561
_cell_length_b   9.99386609
_cell_length_c   11.28860848
_cell_angle_alpha   90.00033312
_cell_angle_beta   104.31480172
_cell_angle_gamma   90.00007635
_symmetry_Int_Tables_number   1
_chemical_formula_structural   CaH5C7NO5
_chemical_formula_sum   'Ca4 H20 C28 N4 O20'
_cell_volume   861.29071391
_cell_formula_units_Z   4
loop_
 _symmetry_equiv_pos_site_id
 _symmetry_equiv_pos_as_xyz
  1  'x, y, z'
loop_
 _atom_site_type_symbol
 _atom_site_label
 _atom_site_symmetry_multiplicity
 _atom_site_fract_x
 _atom_site_fract_y
 _atom_site_fract_z
 _atom_site_occupancy
 _atom_site_hle17_bader_spin_density
 _atom_site_hle17_ddec_charge
 _atom_site_hle17_ddec_spin_density
 _atom_site_hle17_ddec_sum_bond_order
 _atom_site_hle17_magmom
 _atom_site_hse06_10hf_bader_spin_density
 _atom_site_hse06_10hf_ddec_charge
 _atom_site_hse06_10hf_ddec_spin_density
 _atom_site_hse06_10hf_ddec_sum_bond_order
 _atom_site_hse06_10hf_magmom
 _atom_site_hse06_bader_spin_density
 _atom_site_hse06_ddec_charge
 _atom_site_hse06_ddec_spin_density
 _atom_site_hse06_ddec_sum_bond_order
 _atom_site_hse06_magmom
 _atom_site_pbe_bader_spin_density
 _atom_site_pbe_cm5_charge
 _atom_site_pbe_ddec_charge
 _atom_site_pbe_ddec_spin_density
 _atom_site_pbe_ddec_sum_bond_order
 _atom_site_pbe_magmom
Ca  Ca0  1  0.51596246  0.84364075  0.89932762  1  0  1.553761  0  1.093514  0  0  1.423233  0  1.442572  0  0  1.467886  0  1.396256  0  0  0.913011  1.389515  0  1.475803  0
Ca  Ca1  1  0.98404051  0.34364065  0.10067296  1  0  1.553759  0  1.093483  0  0  1.423236  0  1.442522  0  0  1.467888  0  1.396206  0  0  0.913004  1.389519  0  1.475753  0
Ca  Ca2  1  0.48403854  0.15635850  0.10067316  1  0  1.553764  0  1.093522  0  0  1.423237  0  1.442578  0  0  1.467889  0  1.396262  0  0  0.913012  1.389519  0  1.475809  0
Ca  Ca3  1  0.01595919  0.65636061  0.89932671  1  0  1.553749  0  1.093486  0  0  1.423167  0  1.442618  0  0  1.467818  0  1.396305  0  0  0.912984  1.389449  0  1.475848  0
H  H4  1  0.81611754  0.93703198  0.53524749  1  0  0.073122  0  0.954472  0  0  0.07955  0  1.025361  0  0  0.082393  0  1.022819  0  0  0.114025  0.07719  0  1.027633  0
H  H5  1  0.68387662  0.43703298  0.46474672  1  0  0.07311  0  0.954533  0  0  0.07954  0  1.025414  0  0  0.082379  0  1.022879  0  0  0.114023  0.07718  0  1.027686  0
H  H6  1  0.18388085  0.06296827  0.46475196  1  0  0.073093  0  0.954505  0  0  0.079556  0  1.025354  0  0  0.082397  0  1.022813  0  0  0.114015  0.077196  0  1.027627  0
H  H7  1  0.31612046  0.56296727  0.53525161  1  0  0.073114  0  0.954537  0  0  0.079558  0  1.025403  0  0  0.0824  0  1.022864  0  0  0.114031  0.077198  0  1.027676  0
H  H8  1  0.50503675  0.27558694  0.48891443  1  0  0.076409  0  0.945204  0  0  0.083311  0  1.01315  0  0  0.086268  0  1.010376  0  0  0.114906  0.081081  0  1.01529  0
H  H9  1  0.99496334  0.77558897  0.51108885  1  0  0.076418  0  0.945144  0  0  0.083316  0  1.013093  0  0  0.086273  0  1.010321  0  0  0.114895  0.081085  0  1.015234  0
H  H10  1  0.49496164  0.72441231  0.51108501  1  0  0.076417  0  0.945177  0  0  0.083316  0  1.01313  0  0  0.086273  0  1.010357  0  0  0.114906  0.081086  0  1.015269  0
H  H11  1  0.00503636  0.22441128  0.48891082  1  0  0.076415  0  0.945169  0  0  0.083311  0  1.013125  0  0  0.086268  0  1.010352  0  0  0.114891  0.08108  0  1.015268  0
H  H12  1  0.53136973  0.29319250  0.71462473  1  0  0.1152  0  0.946947  0  0  0.12314  0  1.007229  0  0  0.126414  0  1.00684  0  0  0.113795  0.120645  0  1.007964  0
H  H13  1  0.96863174  0.79319300  0.28537888  1  0  0.115206  0  0.947005  0  0  0.123146  0  1.007284  0  0  0.126419  0  1.006895  0  0  0.113802  0.120651  0  1.008021  0
H  H14  1  0.46862997  0.70680775  0.28537494  1  0  0.115197  0  0.946963  0  0  0.12313  0  1.007251  0  0  0.126404  0  1.006862  0  0  0.113798  0.120636  0  1.007985  0
H  H15  1  0.03136796  0.20680525  0.71462168  1  0  0.115218  0  0.946957  0  0  0.123164  0  1.007233  0  0  0.126438  0  1.006843  0  0  0.113817  0.120669  0  1.00797  0
H  H16  1  0.19131782  0.91460554  0.73055347  1  0  0.424556  0  0.877289  0  0  0.395155  0  0.938765  0  0  0.40609  0  0.922661  0  0  0.294754  0.387403  0  0.950186  0
H  H17  1  0.30868087  0.41460638  0.26944611  1  0  0.424576  0  0.877263  0  0  0.395174  0  0.938739  0  0  0.406108  0  0.922636  0  0  0.294763  0.387422  0  0.950159  0
H  H18  1  0.80868188  0.08539471  0.26944620  1  0  0.424556  0  0.877296  0  0  0.395154  0  0.938773  0  0  0.406088  0  0.92267  0  0  0.294757  0.387402  0  0.950193  0
H  H19  1  0.69131882  0.58539387  0.73055445  1  0  0.424566  0  0.877277  0  0  0.395168  0  0.938747  0  0  0.406102  0  0.922643  0  0  0.294766  0.387416  0  0.950166  0
H  H20  1  0.32754046  0.91584310  0.64667479  1  0  0.380537  0  0.946352  0  0  0.337653  0  1.030495  0  0  0.348677  0  1.014964  0  0  0.278116  0.329984  0  1.04128  0
H  H21  1  0.17245954  0.41584434  0.35332502  1  0  0.38055  0  0.946327  0  0  0.337664  0  1.030472  0  0  0.348688  0  1.014941  0  0  0.278122  0.329995  0  1.041259  0
H  H22  1  0.67245792  0.08415615  0.35332466  1  0  0.38055  0  0.946335  0  0  0.337651  0  1.030493  0  0  0.348677  0  1.014961  0  0  0.278103  0.329983  0  1.04128  0
H  H23  1  0.82754016  0.58415691  0.64667376  1  0  0.380529  0  0.946357  0  0  0.337643  0  1.030501  0  0  0.348667  0  1.01497  0  0  0.278113  0.329974  0  1.041288  0
C  C24  1  0.71897876  0.13122484  0.89249730  1  0  0.715597  0  3.889498  0  0  0.664821  0  4.187808  0  0  0.700378  0  4.175021  0  0  0.255879  0.640413  0  4.195763  0
C  C25  1  0.78103259  0.63122596  0.10750455  1  0  0.715615  0  3.889453  0  0  0.664778  0  4.187847  0  0  0.70032  0  4.175088  0  0  0.255909  0.640371  0  4.195803  0
C  C26  1  0.28102224  0.86877541  0.10750260  1  0  0.715661  0  3.889408  0  0  0.664807  0  4.187844  0  0  0.700374  0  4.175038  0  0  0.255908  0.640399  0  4.195799  0
C  C27  1  0.21896842  0.36877429  0.89249535  1  0  0.715671  0  3.889351  0  0  0.664852  0  4.187704  0  0  0.7004  0  4.174934  0  0  0.25594  0.640445  0  4.19566  0
C  C28  1  0.76873114  0.01109756  0.70368260  1  0  -0.138625  0  3.72742  0  0  -0.120263  0  3.963807  0  0  -0.130071  0  3.983476  0  0  -0.002615  -0.114222  0  3.950993  0
C  C29  1  0.73127191  0.51109588  0.29631632  1  0  -0.138711  0  3.727383  0  0  -0.120324  0  3.963793  0  0  -0.13013  0  3.98346  0  0  -0.002637  -0.114281  0  3.950979  0
C  C30  1  0.23126724  0.98890269  0.29631773  1  0  -0.13862  0  3.727392  0  0  -0.120252  0  3.963789  0  0  -0.130058  0  3.983461  0  0  -0.002604  -0.114211  0  3.950977  0
C  C31  1  0.26872779  0.48890337  0.70368424  1  0  -0.138824  0  3.727333  0  0  -0.120438  0  3.963762  0  0  -0.130246  0  3.98343  0  0  -0.002669  -0.114394  0  3.950945  0
C  C32  1  0.68950280  0.11414490  0.75575249  1  0  0.006894  0  3.659313  0  0  0.012551  0  3.895631  0  0  0.015627  0  3.910105  0  0  0.031327  0.010148  0  3.886518  0
C  C33  1  0.81050194  0.61414396  0.24424812  1  0  0.006899  0  3.659221  0  0  0.012631  0  3.895479  0  0  0.015707  0  3.909959  0  0  0.031317  0.010225  0  3.886366  0
C  C34  1  0.31049689  0.88585635  0.24424718  1  0  0.006871  0  3.659301  0  0  0.012555  0  3.895619  0  0  0.015621  0  3.910102  0  0  0.031321  0.010152  0  3.886505  0
C  C35  1  0.18949776  0.38585530  0.75575155  1  0  0.006958  0  3.659147  0  0  0.012673  0  3.89541  0  0  0.015748  0  3.90989  0  0  0.031348  0.010267  0  3.886295  0
C  C36  1  0.86282195  0.89555637  0.77564230  1  0  0.676817  0  3.921591  0  0  0.626014  0  4.212861  0  0  0.660931  0  4.204501  0  0  0.225494  0.602221  0  4.217835  0
C  C37  1  0.63717991  0.39555472  0.22435392  1  0  0.67687  0  3.921613  0  0  0.625942  0  4.213051  0  0  0.660859  0  4.204695  0  0  0.22547  0.602147  0  4.218025  0
C  C38  1  0.13717644  0.10444489  0.22435803  1  0  0.67684  0  3.921737  0  0  0.626011  0  4.213043  0  0  0.660928  0  4.204684  0  0  0.225491  0.602217  0  4.218018  0
C  C39  1  0.36282109  0.60444454  0.77564598  1  0  0.676885  0  3.921561  0  0  0.625954  0  4.213005  0  0  0.660871  0  4.204646  0  0  0.225448  0.602158  0  4.217978  0
C  C40  1  0.75336082  0.01456626  0.57762120  1  0  0.114261  0  3.717581  0  0  0.075343  0  3.973595  0  0  0.0824  0  3.990215  0  0  0.052653  0.071246  0  3.962181  0
C  C41  1  0.74663831  0.51456844  0.42237793  1  0  0.114286  0  3.717703  0  0  0.075356  0  3.973736  0  0  0.082413  0  3.990357  0  0  0.052674  0.071259  0  3.962322  0
C  C42  1  0.24663888  0.98543299  0.42237936  1  0  0.11423  0  3.717671  0  0  0.075288  0  3.973701  0  0  0.082342  0  3.990321  0  0  0.052634  0.071191  0  3.962287  0
C  C43  1  0.25336007  0.48543082  0.57762240  1  0  0.114331  0  3.717724  0  0  0.075391  0  3.973743  0  0  0.08245  0  3.990366  0  0  0.052679  0.071294  0  3.962328  0
C  C44  1  0.58154541  0.20315476  0.55282664  1  0  0.12354  0  3.718295  0  0  0.088714  0  3.986527  0  0  0.095427  0  4.002852  0  0  0.048557  0.08472  0  3.975434  0
C  C45  1  0.91845311  0.70315429  0.44717334  1  0  0.123518  0  3.718323  0  0  0.088704  0  3.986554  0  0  0.095415  0  4.00288  0  0  0.04859  0.084711  0  3.975458  0
C  C46  1  0.41845429  0.79684549  0.44717303  1  0  0.123513  0  3.718227  0  0  0.088695  0  3.986467  0  0  0.095403  0  4.002791  0  0  0.048549  0.084702  0  3.975371  0
C  C47  1  0.08154528  0.29684496  0.55282610  1  0  0.123468  0  3.718334  0  0  0.088647  0  3.986569  0  0  0.095359  0  4.002895  0  0  0.048536  0.084653  0  3.975474  0
C  C48  1  0.59394892  0.21144827  0.67770197  1  0  -0.115935  0  3.681654  0  0  -0.135732  0  3.933943  0  0  -0.14144  0  3.952498  0  0  -0.068876  -0.132447  0  3.922349  0
C  C49  1  0.90605356  0.71144895  0.32229963  1  0  -0.115982  0  3.681745  0  0  -0.135785  0  3.933985  0  0  -0.14149  0  3.952537  0  0  -0.068891  -0.132499  0  3.922388  0
C  C50  1  0.40605077  0.78855198  0.32229770  1  0  -0.115931  0  3.681657  0  0  -0.13572  0  3.93394  0  0  -0.141425  0  3.952497  0  0  -0.068875  -0.132435  0  3.922345  0
C  C51  1  0.09394614  0.28855030  0.67770005  1  0  -0.115982  0  3.681694  0  0  -0.135794  0  3.933949  0  0  -0.141499  0  3.9525  0  0  -0.068905  -0.132508  0  3.922353  0
N  N52  1  0.66219372  0.10745994  0.50299092  1  0  -0.315421  0  3.186583  0  0  -0.254878  0  3.442142  0  0  -0.26853  0  3.458126  0  0  -0.307562  -0.245691  0  3.430819  0
N  N53  1  0.83780051  0.60745971  0.49700696  1  0  -0.315343  0  3.186621  0  0  -0.25481  0  3.442193  0  0  -0.268457  0  3.458175  0  0  -0.307569  -0.245624  0  3.430867  0
N  N54  1  0.33780466  0.89254131  0.49700853  1  0  -0.315341  0  3.186569  0  0  -0.254817  0  3.442156  0  0  -0.268459  0  3.458135  0  0  -0.307529  -0.24563  0  3.43083  0
N  N55  1  0.16219656  0.39253954  0.50299226  1  0  -0.315348  0  3.186601  0  0  -0.254807  0  3.442168  0  0  -0.268459  0  3.458154  0  0  -0.307548  -0.245621  0  3.430843  0
O  O56  1  0.80028227  0.84631541  0.86030381  1  0  -0.728542  0  1.999783  0  0  -0.666169  0  2.2434  0  0  -0.694794  0  2.233654  0  0  -0.373272  -0.64584  0  2.249554  0
O  O57  1  0.69972071  0.34631026  0.13969590  1  0  -0.7286  0  1.999921  0  0  -0.666181  0  2.243564  0  0  -0.694794  0  2.233793  0  0  -0.373289  -0.645851  0  2.249719  0
O  O58  1  0.19971743  0.15368384  0.13969674  1  0  -0.728573  0  1.999907  0  0  -0.666198  0  2.243541  0  0  -0.694815  0  2.233776  0  0  -0.373277  -0.645866  0  2.249692  0
O  O59  1  0.30028029  0.65368699  0.86030488  1  0  -0.728603  0  1.999931  0  0  -0.666157  0  2.24354  0  0  -0.694776  0  2.23378  0  0  -0.373273  -0.645827  0  2.249694  0
O  O60  1  0.99591509  0.84583084  0.74737820  1  0  -0.675164  0  1.974164  0  0  -0.615849  0  2.201005  0  0  -0.642332  0  2.190278  0  0  -0.324845  -0.597095  0  2.20798  0
O  O61  1  0.50408265  0.34583224  0.25261529  1  0  -0.675127  0  1.974116  0  0  -0.615773  0  2.20101  0  0  -0.642255  0  2.190279  0  0  -0.324808  -0.597019  0  2.207984  0
O  O62  1  0.00408460  0.15416941  0.25262147  1  0  -0.675154  0  1.974225  0  0  -0.615834  0  2.20108  0  0  -0.642318  0  2.190354  0  0  -0.324834  -0.597082  0  2.208059  0
O  O63  1  0.49591704  0.65416701  0.74738350  1  0  -0.675128  0  1.974112  0  0  -0.615774  0  2.201003  0  0  -0.642255  0  2.190274  0  0  -0.324794  -0.597022  0  2.20798  0
O  O64  1  0.61932508  0.07007147  0.94800877  1  0  -0.739596  0  1.989354  0  0  -0.6748  0  2.238011  0  0  -0.704892  0  2.224983  0  0  -0.381154  -0.652712  0  2.245925  0
O  O65  1  0.88067164  0.57007232  0.05199023  1  0  -0.739598  0  1.989563  0  0  -0.674773  0  2.238237  0  0  -0.704861  0  2.225223  0  0  -0.381133  -0.652686  0  2.24615  0
O  O66  1  0.38067854  0.92992879  0.05199247  1  0  -0.739622  0  1.989351  0  0  -0.674811  0  2.238066  0  0  -0.704907  0  2.225033  0  0  -0.381167  -0.652723  0  2.245979  0
O  O67  1  0.11932937  0.42992793  0.94800967  1  0  -0.739631  0  1.989519  0  0  -0.67482  0  2.238184  0  0  -0.704909  0  2.225168  0  0  -0.381132  -0.652734  0  2.246097  0
O  O68  1  0.84131291  0.20963917  0.93942557  1  0  -0.652507  0  1.93584  0  0  -0.599617  0  2.17026  0  0  -0.627363  0  2.159181  0  0  -0.34074  -0.579438  0  2.1772  0
O  O69  1  0.65870004  0.70965285  0.06057872  1  0  -0.652515  0  1.935657  0  0  -0.599625  0  2.170119  0  0  -0.627368  0  2.159051  0  0  -0.340775  -0.579443  0  2.177058  0
O  O70  1  0.15868941  0.79036109  0.06057279  1  0  -0.652516  0  1.935789  0  0  -0.599582  0  2.170245  0  0  -0.627328  0  2.159159  0  0  -0.340758  -0.579403  0  2.177184  0
O  O71  1  0.34130228  0.29034840  0.93942229  1  0  -0.652551  0  1.935656  0  0  -0.599644  0  2.170085  0  0  -0.62739  0  2.159014  0  0  -0.3408  -0.579464  0  2.177025  0
O  O72  1  0.31344375  0.93831815  0.73074970  1  0  -0.894901  0  1.813282  0  0  -0.842169  0  2.002286  0  0  -0.863065  0  1.970824  0  0  -0.643454  -0.827113  0  2.024312  0
O  O73  1  0.18655634  0.43831886  0.26925113  1  0  -0.894908  0  1.813233  0  0  -0.842187  0  2.002272  0  0  -0.863082  0  1.970809  0  0  -0.64345  -0.827131  0  2.024297  0
O  O74  1  0.68655726  0.06168210  0.26925020  1  0  -0.894907  0  1.813264  0  0  -0.842167  0  2.002313  0  0  -0.863064  0  1.970851  0  0  -0.643442  -0.82711  0  2.024338  0
O  O75  1  0.81344336  0.56168240  0.73074854  1  0  -0.89489  0  1.813262  0  0  -0.842151  0  2.002283  0  0  -0.863045  0  1.97082  0  0  -0.643456  -0.827095  0  2.024308  0
