# generated using pymatgen
data_TbH10C14NO7
_symmetry_space_group_name_H-M   'P 1'
_cell_length_a   9.45475462
_cell_length_b   12.26903867
_cell_length_c   14.76047145
_cell_angle_alpha   90.00011019
_cell_angle_beta   90.00027707
_cell_angle_gamma   90.00004489
_symmetry_Int_Tables_number   1
_chemical_formula_structural   TbH10C14NO7
_chemical_formula_sum   'Tb4 H40 C56 N4 O28'
_cell_volume   1712.22576068
_cell_formula_units_Z   4
loop_
 _symmetry_equiv_pos_site_id
 _symmetry_equiv_pos_as_xyz
  1  'x, y, z'
loop_
 _atom_site_type_symbol
 _atom_site_label
 _atom_site_symmetry_multiplicity
 _atom_site_fract_x
 _atom_site_fract_y
 _atom_site_fract_z
 _atom_site_occupancy
 _atom_site_pbe_bader_charge
 _atom_site_pbe_bader_spin_density
 _atom_site_pbe_cm5_charge
 _atom_site_pbe_ddec_charge
 _atom_site_pbe_ddec_spin_density
 _atom_site_pbe_ddec_sum_bond_order
 _atom_site_pbe_magmom
Tb  Tb0  1  0.49318077  0.77933324  0.54738092  1  2.226352  0  1.552228  2.173726  0  2.184122  0
Tb  Tb1  1  0.00682543  0.22066364  0.04737943  1  2.226587  0  1.552206  2.173629  0  2.184101  0
Tb  Tb2  1  0.99317749  0.72066121  0.45261910  1  2.22649  0  1.552219  2.173668  0  2.184181  0
Tb  Tb3  1  0.50682385  0.27933774  0.95261896  1  2.226381  0  1.55219  2.173782  0  2.18393  0
H  H4  1  0.81565128  0.97339055  0.22752594  1  0.091657  0  0.110277  0.123439  0  0.999829  0
H  H5  1  0.68435260  0.02661928  0.72751511  1  0.091758  0  0.1103  0.123394  0  0.999904  0
H  H6  1  0.31564859  0.52662824  0.77248166  1  0.091772  0  0.11032  0.123412  0  0.999933  0
H  H7  1  0.18435189  0.47339769  0.27246621  1  0.091737  0  0.110261  0.123473  0  0.999789  0
H  H8  1  0.41411484  0.05753777  0.10994840  1  0.103074  0  0.115003  0.124024  0  1.007033  0
H  H9  1  0.08588654  0.94246088  0.60994617  1  0.103045  0  0.115024  0.123955  0  1.007054  0
H  H10  1  0.91411401  0.44246141  0.89004990  1  0.103129  0  0.115012  0.123992  0  1.006989  0
H  H11  1  0.58588474  0.55753902  0.39005123  1  0.103088  0  0.11498  0.123962  0  1.007037  0
H  H12  1  0.43772423  0.81354020  0.32029530  1  0.1099  0  0.111213  0.111505  0  1.033493  0
H  H13  1  0.06228083  0.18645405  0.82029992  1  0.10972  0  0.111208  0.111485  0  1.033486  0
H  H14  1  0.93771629  0.68645991  0.67969981  1  0.109766  0  0.111219  0.111488  0  1.033528  0
H  H15  1  0.56227560  0.31353513  0.17970812  1  0.109821  0  0.111234  0.11153  0  1.033602  0
H  H16  1  0.20020190  0.94299180  0.15046712  1  0.088499  0  0.123637  0.115947  0  0.97401  0
H  H17  1  0.29980084  0.05700124  0.65047228  1  0.088557  0  0.12366  0.116027  0  0.973982  0
H  H18  1  0.70020038  0.55700735  0.84953063  1  0.088541  0  0.123654  0.115983  0  0.973994  0
H  H19  1  0.79980019  0.44298320  0.34953108  1  0.088445  0  0.123567  0.115886  0  0.974063  0
H  H20  1  0.21149598  0.84811733  0.24270057  1  0.069438  0  0.115112  0.099544  0  0.984375  0
H  H21  1  0.28851273  0.15187267  0.74270855  1  0.069526  0  0.115138  0.099644  0  0.984246  0
H  H22  1  0.71149070  0.65187858  0.75729315  1  0.069436  0  0.115091  0.099555  0  0.984305  0
H  H23  1  0.78850072  0.34811828  0.25729410  1  0.069401  0  0.115119  0.099534  0  0.984366  0
H  H24  1  0.35143730  0.06128570  0.37112560  1  0.085835  0  0.114353  0.082704  0  0.953937  0
H  H25  1  0.14857132  0.93870215  0.87112762  1  0.085464  0  0.114387  0.08278  0  0.953907  0
H  H26  1  0.85142499  0.43869959  0.62887522  1  0.085588  0  0.114395  0.082773  0  0.953961  0
H  H27  1  0.64856334  0.56128475  0.12887810  1  0.085456  0  0.114371  0.082669  0  0.953934  0
H  H28  1  0.04382195  0.06125715  0.43539949  1  0.080003  0  0.106073  0.109658  0  0.97527  0
H  H29  1  0.45618293  0.93873574  0.93540586  1  0.079969  0  0.106091  0.109771  0  0.975209  0
H  H30  1  0.54381339  0.43874669  0.56459766  1  0.079802  0  0.10609  0.10975  0  0.975313  0
H  H31  1  0.95617870  0.56126276  0.06460421  1  0.080034  0  0.106076  0.109664  0  0.975343  0
H  H32  1  0.17854479  0.15709685  0.46406146  1  0.031612  0  0.101974  0.106622  0  0.970979  0
H  H33  1  0.32146770  0.84289774  0.96406184  1  0.031617  0  0.101964  0.106582  0  0.971053  0
H  H34  1  0.67852112  0.34290382  0.53593949  1  0.031471  0  0.101964  0.106615  0  0.97094  0
H  H35  1  0.82145489  0.65709660  0.03594239  1  0.031662  0  0.101969  0.106623  0  0.970933  0
H  H36  1  0.97761950  0.19832347  0.32548722  1  0.061075  0  0.113479  0.130578  0  0.962791  0
H  H37  1  0.52240521  0.80167192  0.82549473  1  0.061192  0  0.113385  0.130472  0  0.96281  0
H  H38  1  0.47758145  0.30168961  0.67450925  1  0.062049  0  0.113395  0.13043  0  0.962672  0
H  H39  1  0.02238022  0.69833284  0.17451602  1  0.061035  0  0.113448  0.130565  0  0.962748  0
H  H40  1  0.15223371  0.24874199  0.31584942  1  0.106339  0  0.110284  0.131823  0  0.986305  0
H  H41  1  0.34778402  0.75125144  0.81585042  1  0.106077  0  0.110258  0.131778  0  0.986293  0
H  H42  1  0.65219730  0.25125296  0.68414671  1  0.106222  0  0.110299  0.131816  0  0.986263  0
H  H43  1  0.84775654  0.74874129  0.18415660  1  0.10623  0  0.110297  0.131826  0  0.986264  0
C  C44  1  0.71217677  0.83143252  0.35790429  1  1.549504  0  0.229412  0.646573  0  4.165879  0
C  C45  1  0.78782174  0.16856049  0.85789943  1  1.549907  0  0.229393  0.646549  0  4.16578  0
C  C46  1  0.21217959  0.66856746  0.64210230  1  1.54997  0  0.229455  0.646711  0  4.165793  0
C  C47  1  0.28782308  0.33143290  0.14209577  1  1.549915  0  0.229398  0.646475  0  4.165891  0
C  C48  1  0.63439978  0.88796251  0.28225081  1  -0.035656  0  -0.018322  -0.040954  0  3.973344  0
C  C49  1  0.86560346  0.11203766  0.78224610  1  -0.035814  0  -0.0183  -0.040937  0  3.973285  0
C  C50  1  0.13439676  0.61204068  0.71774809  1  -0.035654  0  -0.018314  -0.04097  0  3.973223  0
C  C51  1  0.36560014  0.38796556  0.21774528  1  -0.035697  0  -0.01824  -0.040739  0  3.973184  0
C  C52  1  0.70181329  0.96051338  0.22312142  1  -0.048441  0  -0.075024  -0.105191  0  3.91699  0
C  C53  1  0.79818738  0.03949236  0.72311503  1  -0.048629  0  -0.075044  -0.105077  0  3.916849  0
C  C54  1  0.20181382  0.53950045  0.77688379  1  -0.04858  0  -0.075063  -0.105102  0  3.917011  0
C  C55  1  0.29818881  0.46051734  0.27687139  1  -0.048599  0  -0.075051  -0.105316  0  3.916917  0
C  C56  1  0.62208550  0.01967999  0.15979940  1  -0.024314  0  -0.018983  -0.043949  0  3.972441  0
C  C57  1  0.87791259  0.98033049  0.65979137  1  -0.024392  0  -0.019031  -0.044119  0  3.972676  0
C  C58  1  0.12208694  0.48033042  0.84020341  1  -0.024168  0  -0.018984  -0.044059  0  3.972727  0
C  C59  1  0.37791827  0.51968344  0.34019677  1  -0.024165  0  -0.018977  -0.043833  0  3.972271  0
C  C60  1  0.69044351  0.10225610  0.09852917  1  1.560098  0  0.237134  0.66781  0  4.153421  0
C  C61  1  0.80955623  0.89775180  0.59852825  1  1.560456  0  0.237103  0.667773  0  4.153918  0
C  C62  1  0.19044216  0.39775517  0.90147521  1  1.560485  0  0.237112  0.667808  0  4.153723  0
C  C63  1  0.30955717  0.60225720  0.40146984  1  1.559496  0  0.237169  0.667754  0  4.153556  0
C  C64  1  0.47513825  0.00659661  0.15630741  1  -0.042386  0  -0.077581  -0.135418  0  3.917904  0
C  C65  1  0.02486030  0.99340053  0.65630710  1  -0.042339  0  -0.077559  -0.135219  0  3.917963  0
C  C66  1  0.97514030  0.49340506  0.84368973  1  -0.042435  0  -0.077563  -0.135259  0  3.917963  0
C  C67  1  0.52486445  0.50659934  0.34368536  1  -0.042341  0  -0.077593  -0.13535  0  3.917995  0
C  C68  1  0.40763215  0.93183703  0.21315581  1  -0.037348  0  -0.017006  0.076916  0  4.009087  0
C  C69  1  0.09237000  0.06815942  0.71315628  1  -0.037312  0  -0.017007  0.076875  0  4.00909  0
C  C70  1  0.90763229  0.56816225  0.78684123  1  -0.037284  0  -0.017025  0.076799  0  4.009227  0
C  C71  1  0.59237203  0.43183549  0.28684576  1  -0.037538  0  -0.017035  0.076771  0  4.009223  0
C  C72  1  0.48812730  0.87180553  0.27479010  1  -0.072334  0  -0.079103  -0.142065  0  3.937024  0
C  C73  1  0.01187848  0.12818780  0.77479448  1  -0.071904  0  -0.079024  -0.141908  0  3.936775  0
C  C74  1  0.98812387  0.62819543  0.72520516  1  -0.072355  0  -0.079048  -0.14195  0  3.936853  0
C  C75  1  0.51187365  0.37180543  0.22520596  1  -0.07223  0  -0.079122  -0.142151  0  3.93694  0
C  C76  1  0.24827425  0.92726124  0.21691967  1  0.345434  0  -0.048416  -0.103197  0  3.906968  0
C  C77  1  0.25172687  0.07273277  0.71692199  1  0.345203  0  -0.048456  -0.103456  0  3.906894  0
C  C78  1  0.74827331  0.57273632  0.78307823  1  0.345477  0  -0.048414  -0.103257  0  3.906881  0
C  C79  1  0.75172676  0.42725816  0.28307987  1  0.345644  0  -0.048384  -0.103072  0  3.906983  0
C  C80  1  0.24389774  0.02664481  0.37066810  1  0.303609  0  0.017864  -0.033002  0  3.827907  0
C  C81  1  0.25610876  0.97334875  0.87067526  1  0.303841  0  0.017756  -0.033209  0  3.828085  0
C  C82  1  0.74389182  0.47335345  0.62932425  1  0.303799  0  0.017715  -0.03325  0  3.828129  0
C  C83  1  0.75610287  0.52664148  0.12933351  1  0.303762  0  0.017865  -0.032862  0  3.8278  0
C  C84  1  0.24686409  0.91976130  0.42368474  1  1.615129  0  0.243101  0.660834  0  4.145257  0
C  C85  1  0.25313964  0.08023156  0.92368640  1  1.614999  0  0.243162  0.660757  0  4.145415  0
C  C86  1  0.74686584  0.58023707  0.57631452  1  1.615027  0  0.243213  0.660876  0  4.145156  0
C  C87  1  0.75314326  0.41976263  0.07631682  1  1.615074  0  0.24316  0.660845  0  4.145428  0
C  C88  1  0.13416689  0.10788672  0.40904007  1  -0.036194  0  -0.146415  -0.165653  0  3.890864  0
C  C89  1  0.36583567  0.89211263  0.90904609  1  -0.036137  0  -0.146416  -0.165693  0  3.89093  0
C  C90  1  0.63415637  0.39212044  0.59095600  1  -0.035862  0  -0.146386  -0.165747  0  3.890917  0
C  C91  1  0.86583168  0.60788826  0.09096234  1  -0.036016  0  -0.146411  -0.165674  0  3.890941  0
C  C92  1  0.08935635  0.17420395  0.32571006  1  -0.053921  0  -0.145768  -0.279669  0  3.907693  0
C  C93  1  0.41066145  0.82579032  0.82572086  1  -0.053417  0  -0.145661  -0.279578  0  3.907331  0
C  C94  1  0.58932947  0.32579829  0.67428181  1  -0.054539  0  -0.145703  -0.27948  0  3.907083  0
C  C95  1  0.91064123  0.67420734  0.17428975  1  -0.05374  0  -0.145774  -0.279765  0  3.907576  0
C  C96  1  0.11922882  0.09826882  0.24731418  1  1.410888  0  0.264737  0.521143  0  4.036153  0
C  C97  1  0.38078945  0.90172282  0.74731890  1  1.410479  0  0.264717  0.521154  0  4.03589  0
C  C98  1  0.61920894  0.40172936  0.75268524  1  1.410729  0  0.264824  0.521248  0  4.036042  0
C  C99  1  0.88077080  0.59827075  0.25268754  1  1.410907  0  0.26482  0.521405  0  4.035901  0
N  N100  1  0.19510923  0.01254415  0.27727533  1  -1.175917  0  -0.259972  -0.104071  0  3.577199  0
N  N101  1  0.30490292  0.98744593  0.77727860  1  -1.175733  0  -0.259951  -0.103882  0  3.576643  0
N  N102  1  0.69509768  0.48745000  0.72272161  1  -1.175906  0  -0.259971  -0.103979  0  3.576829  0
N  N103  1  0.80489877  0.51254270  0.22272625  1  -1.175984  0  -0.259966  -0.104179  0  3.577075  0
O  O104  1  0.63721576  0.79012779  0.42079035  1  -1.215307  0  -0.402811  -0.712074  0  2.366493  0
O  O105  1  0.86277265  0.20986619  0.92079120  1  -1.215604  0  -0.402858  -0.712153  0  2.366366  0
O  O106  1  0.13723084  0.70987296  0.57920856  1  -1.215744  0  -0.402916  -0.712223  0  2.366226  0
O  O107  1  0.36277665  0.29012562  0.07920761  1  -1.215729  0  -0.402813  -0.71207  0  2.366404  0
O  O108  1  0.84649014  0.82767758  0.35482533  1  -1.133406  0  -0.385214  -0.662212  0  2.252086  0
O  O109  1  0.65350942  0.17232358  0.85482209  1  -1.133456  0  -0.385226  -0.662252  0  2.252183  0
O  O110  1  0.34648981  0.67232574  0.64517694  1  -1.133432  0  -0.3852  -0.662237  0  2.252197  0
O  O111  1  0.15350866  0.32768033  0.14517472  1  -1.133398  0  -0.385242  -0.662226  0  2.252082  0
O  O112  1  0.82421325  0.10946453  0.10024072  1  -1.154002  0  -0.399504  -0.677869  0  2.296086  0
O  O113  1  0.67579602  0.89054990  0.60022310  1  -1.154356  0  -0.399418  -0.67778  0  2.296567  0
O  O114  1  0.32420871  0.39055171  0.89977289  1  -1.154384  0  -0.399464  -0.677857  0  2.29634  0
O  O115  1  0.17579061  0.60946555  0.39975425  1  -1.153876  0  -0.399469  -0.67784  0  2.296308  0
O  O116  1  0.60867392  0.16046188  0.05047575  1  -1.208047  0  -0.417502  -0.70244  0  2.384389  0
O  O117  1  0.89132863  0.83954346  0.55046957  1  -1.207969  0  -0.417547  -0.702471  0  2.384279  0
O  O118  1  0.10866970  0.33954445  0.94952567  1  -1.208105  0  -0.417533  -0.702481  0  2.384378  0
O  O119  1  0.39133211  0.66045500  0.44953149  1  -1.207439  0  -0.417558  -0.702489  0  2.384506  0
O  O120  1  0.34748562  0.90714020  0.47920276  1  -1.198412  0  -0.397728  -0.686855  0  2.291948  0
O  O121  1  0.15250477  0.09285769  0.97918990  1  -1.198255  0  -0.397777  -0.686759  0  2.292145  0
O  O122  1  0.84750600  0.59285172  0.52081171  1  -1.198274  0  -0.397844  -0.686835  0  2.291969  0
O  O123  1  0.65251537  0.40714052  0.02080284  1  -1.19824  0  -0.397775  -0.686873  0  2.292078  0
O  O124  1  0.14686352  0.85382536  0.40857254  1  -1.211961  0  -0.405224  -0.685481  0  2.3429  0
O  O125  1  0.35313798  0.14616991  0.90857259  1  -1.211849  0  -0.405195  -0.685464  0  2.34274  0
O  O126  1  0.64687179  0.64617621  0.59142775  1  -1.211819  0  -0.405211  -0.685466  0  2.342796  0
O  O127  1  0.85313742  0.35382352  0.09142958  1  -1.212065  0  -0.405234  -0.685485  0  2.343002  0
O  O128  1  0.08383998  0.11033649  0.16667511  1  -1.190994  0  -0.371283  -0.602671  0  2.396482  0
O  O129  1  0.41619143  0.88966148  0.66667721  1  -1.191077  0  -0.371295  -0.602776  0  2.396488  0
O  O130  1  0.58382175  0.38966167  0.83332623  1  -1.191151  0  -0.371324  -0.602791  0  2.396653  0
O  O131  1  0.91616494  0.61033374  0.33332731  1  -1.191063  0  -0.371306  -0.602785  0  2.396474  0
