# generated using pymatgen
data_TbH6(CO3)3
_symmetry_space_group_name_H-M   'P 1'
_cell_length_a   9.21628727
_cell_length_b   9.91424285
_cell_length_c   11.19758460
_cell_angle_alpha   114.39344799
_cell_angle_beta   89.99989655
_cell_angle_gamma   89.99990291
_symmetry_Int_Tables_number   1
_chemical_formula_structural   TbH6(CO3)3
_chemical_formula_sum   'Tb4 H24 C12 O36'
_cell_volume   931.81560205
_cell_formula_units_Z   4
loop_
 _symmetry_equiv_pos_site_id
 _symmetry_equiv_pos_as_xyz
  1  'x, y, z'
loop_
 _atom_site_type_symbol
 _atom_site_label
 _atom_site_symmetry_multiplicity
 _atom_site_fract_x
 _atom_site_fract_y
 _atom_site_fract_z
 _atom_site_occupancy
 _atom_site_hle17_bader_spin_density
 _atom_site_hle17_ddec_charge
 _atom_site_hle17_ddec_spin_density
 _atom_site_hle17_ddec_sum_bond_order
 _atom_site_hle17_magmom
 _atom_site_hse06_10hf_bader_spin_density
 _atom_site_hse06_10hf_ddec_charge
 _atom_site_hse06_10hf_ddec_spin_density
 _atom_site_hse06_10hf_ddec_sum_bond_order
 _atom_site_hse06_10hf_magmom
 _atom_site_hse06_bader_spin_density
 _atom_site_hse06_ddec_charge
 _atom_site_hse06_ddec_spin_density
 _atom_site_hse06_ddec_sum_bond_order
 _atom_site_hse06_magmom
 _atom_site_pbe_bader_spin_density
 _atom_site_pbe_cm5_charge
 _atom_site_pbe_ddec_charge
 _atom_site_pbe_ddec_spin_density
 _atom_site_pbe_ddec_sum_bond_order
 _atom_site_pbe_magmom
Tb  Tb0  1  0.04191443  0.33745987  0.19705623  1  0  2.244895  0  1.570572  0  0  2.080553  0  2.051569  0  0  2.21008  0  1.852774  0  0  1.459342  2.045463  0  2.08132  0
Tb  Tb1  1  0.54191346  0.16253801  0.80294761  1  0  2.244863  0  1.570651  0  0  2.08055  0  2.051595  0  0  2.210036  0  1.852855  0  0  1.459327  2.045465  0  2.081364  0
Tb  Tb2  1  0.95808499  0.66253941  0.80294831  1  0  2.244869  0  1.570636  0  0  2.080553  0  2.051602  0  0  2.210053  0  1.852845  0  0  1.459339  2.045473  0  2.081359  0
Tb  Tb3  1  0.45808704  0.83745879  0.19705592  1  0  2.244919  0  1.570566  0  0  2.08062  0  2.051513  0  0  2.210113  0  1.852776  0  0  1.459367  2.045537  0  2.081277  0
H  H4  1  0.29329664  0.17002369  0.24908146  1  0  0.448228  0  0.845973  0  0  0.416702  0  0.909882  0  0  0.428607  0  0.892467  0  0  0.312092  0.408401  0  0.922199  0
H  H5  1  0.79329444  0.32998339  0.75091700  1  0  0.44821  0  0.84601  0  0  0.416679  0  0.909927  0  0  0.428588  0  0.892505  0  0  0.312113  0.408377  0  0.92224  0
H  H6  1  0.70669952  0.82998597  0.75091929  1  0  0.448144  0  0.84608  0  0  0.416621  0  0.909991  0  0  0.428528  0  0.892572  0  0  0.312118  0.408324  0  0.9223  0
H  H7  1  0.20670281  0.67002259  0.24907786  1  0  0.448248  0  0.845929  0  0  0.416736  0  0.90981  0  0  0.42864  0  0.892399  0  0  0.312122  0.408441  0  0.922122  0
H  H8  1  0.36456616  0.31447266  0.11687784  1  0  0.449425  0  0.848725  0  0  0.41859  0  0.910269  0  0  0.430942  0  0.892331  0  0  0.303456  0.410343  0  0.922238  0
H  H9  1  0.86457256  0.18552800  0.88312233  1  0  0.449402  0  0.848766  0  0  0.418569  0  0.910307  0  0  0.430921  0  0.89237  0  0  0.303443  0.410324  0  0.922275  0
H  H10  1  0.63542458  0.68552787  0.88312281  1  0  0.449355  0  0.848821  0  0  0.418555  0  0.91032  0  0  0.430893  0  0.892401  0  0  0.303437  0.41033  0  0.922263  0
H  H11  1  0.13543337  0.81447253  0.11687832  1  0  0.449421  0  0.84873  0  0  0.418602  0  0.910253  0  0  0.430949  0  0.892321  0  0  0.303449  0.410355  0  0.922222  0
H  H12  1  0.32359497  0.48688857  0.21000091  1  0  0.438856  0  0.852866  0  0  0.413133  0  0.90682  0  0  0.424025  0  0.890902  0  0  0.308331  0.405671  0  0.917836  0
H  H13  1  0.82360186  0.01311956  0.78999554  1  0  0.438853  0  0.852874  0  0  0.413126  0  0.906835  0  0  0.424017  0  0.890917  0  0  0.308338  0.405665  0  0.917852  0
H  H14  1  0.67639794  0.51311874  0.78999689  1  0  0.438812  0  0.85293  0  0  0.413084  0  0.906892  0  0  0.423974  0  0.890975  0  0  0.308321  0.40562  0  0.917913  0
H  H15  1  0.17640624  0.98688711  0.20999640  1  0  0.438871  0  0.852852  0  0  0.413135  0  0.906827  0  0  0.424027  0  0.890911  0  0  0.308374  0.405675  0  0.917841  0
H  H16  1  0.74920252  0.40374610  0.12823399  1  0  0.441246  0  0.853231  0  0  0.410383  0  0.916124  0  0  0.421915  0  0.89942  0  0  0.304814  0.402459  0  0.927693  0
H  H17  1  0.24919361  0.09625248  0.87175667  1  0  0.441126  0  0.853394  0  0  0.410333  0  0.916183  0  0  0.421864  0  0.899481  0  0  0.304762  0.40241  0  0.927752  0
H  H18  1  0.25080774  0.59625011  0.87175490  1  0  0.441172  0  0.853331  0  0  0.410372  0  0.916128  0  0  0.4219  0  0.899431  0  0  0.304764  0.40245  0  0.927692  0
H  H19  1  0.75080256  0.90374856  0.12823618  1  0  0.441291  0  0.853153  0  0  0.410439  0  0.916035  0  0  0.42197  0  0.899334  0  0  0.30482  0.402516  0  0.9276  0
H  H20  1  0.19917939  0.20336132  0.37449878  1  0  0.458479  0  0.781911  0  0  0.439813  0  0.832705  0  0  0.449315  0  0.822463  0  0  0.340665  0.433274  0  0.840148  0
H  H21  1  0.69917537  0.29664952  0.62550093  1  0  0.458448  0  0.781858  0  0  0.439684  0  0.83283  0  0  0.449173  0  0.822601  0  0  0.340657  0.433153  0  0.840259  0
H  H22  1  0.80081894  0.79664733  0.62550196  1  0  0.458371  0  0.781991  0  0  0.439695  0  0.832823  0  0  0.449186  0  0.822587  0  0  0.340635  0.433163  0  0.840261  0
H  H23  1  0.30081754  0.70336274  0.37449888  1  0  0.458513  0  0.781867  0  0  0.439846  0  0.832666  0  0  0.449348  0  0.822422  0  0  0.340692  0.433313  0  0.840106  0
H  H24  1  0.77965054  0.54629123  0.25176942  1  0  0.4543  0  0.793359  0  0  0.435161  0  0.847024  0  0  0.444746  0  0.833166  0  0  0.331978  0.428581  0  0.856715  0
H  H25  1  0.27964894  0.95370653  0.74822646  1  0  0.454275  0  0.793398  0  0  0.435138  0  0.847053  0  0  0.444722  0  0.833198  0  0  0.331986  0.428567  0  0.856731  0
H  H26  1  0.22035322  0.45370417  0.74822434  1  0  0.454258  0  0.793456  0  0  0.435141  0  0.847055  0  0  0.44472  0  0.833206  0  0  0.332022  0.42857  0  0.856731  0
H  H27  1  0.72035265  0.04629267  0.25177125  1  0  0.454245  0  0.793477  0  0  0.435126  0  0.847075  0  0  0.444706  0  0.833225  0  0  0.331996  0.428552  0  0.856756  0
C  C28  1  0.02563020  0.57395609  0.05355585  1  0  0.588275  0  3.875429  0  0  0.538647  0  4.175186  0  0  0.569964  0  4.169474  0  0  0.233787  0.517513  0  4.182284  0
C  C29  1  0.52561654  0.92602835  0.94643853  1  0  0.588383  0  3.875578  0  0  0.538906  0  4.175191  0  0  0.570221  0  4.16948  0  0  0.233776  0.517786  0  4.182273  0
C  C30  1  0.97438007  0.42603062  0.94643879  1  0  0.588459  0  3.87554  0  0  0.538934  0  4.175156  0  0  0.570248  0  4.169442  0  0  0.233897  0.517816  0  4.182243  0
C  C31  1  0.47437094  0.07396375  0.05355909  1  0  0.588282  0  3.875672  0  0  0.538644  0  4.17542  0  0  0.569958  0  4.169708  0  0  0.23376  0.51752  0  4.182504  0
C  C32  1  0.05196024  0.56249657  0.50164213  1  0  0.550699  0  3.963591  0  0  0.510962  0  4.260102  0  0  0.540324  0  4.259614  0  0  0.207433  0.49082  0  4.26519  0
C  C33  1  0.55196932  0.93751524  0.49835934  1  0  0.550638  0  3.963648  0  0  0.5109  0  4.26016  0  0  0.540267  0  4.25967  0  0  0.20752  0.490753  0  4.265249  0
C  C34  1  0.94803375  0.43751253  0.49835960  1  0  0.550652  0  3.963852  0  0  0.510905  0  4.260377  0  0  0.540269  0  4.259892  0  0  0.207479  0.490743  0  4.265481  0
C  C35  1  0.44804312  0.06250050  0.50164149  1  0  0.550579  0  3.963822  0  0  0.510853  0  4.260316  0  0  0.540217  0  4.259826  0  0  0.207254  0.490699  0  4.265415  0
C  C36  1  0.92571112  0.00263162  0.03273009  1  0  0.551553  0  3.934432  0  0  0.505698  0  4.234159  0  0  0.535532  0  4.232198  0  0  0.216857  0.485267  0  4.239571  0
C  C37  1  0.42570677  0.49736743  0.96728454  1  0  0.551596  0  3.934348  0  0  0.505708  0  4.234103  0  0  0.535542  0  4.232135  0  0  0.216898  0.48529  0  4.239509  0
C  C38  1  0.07429481  0.99736424  0.96728025  1  0  0.551599  0  3.934384  0  0  0.505703  0  4.234155  0  0  0.535537  0  4.232192  0  0  0.216879  0.485279  0  4.239566  0
C  C39  1  0.57429047  0.50263167  0.03273072  1  0  0.551596  0  3.934492  0  0  0.505715  0  4.234235  0  0  0.535547  0  4.232273  0  0  0.216847  0.485286  0  4.239641  0
O  O40  1  0.06057255  0.57443380  0.16276200  1  0  -0.645901  0  2.0998  0  0  -0.591265  0  2.33533  0  0  -0.623634  0  2.322923  0  0  -0.328824  -0.574107  0  2.341986  0
O  O41  1  0.56056132  0.92555555  0.83724113  1  0  -0.645834  0  2.100027  0  0  -0.591258  0  2.335476  0  0  -0.623621  0  2.323072  0  0  -0.328737  -0.5741  0  2.34212  0
O  O42  1  0.93943554  0.42555298  0.83723947  1  0  -0.645916  0  2.09999  0  0  -0.591275  0  2.335437  0  0  -0.623638  0  2.323032  0  0  -0.328779  -0.574117  0  2.342085  0
O  O43  1  0.43942941  0.07443517  0.16276232  1  0  -0.645952  0  2.09993  0  0  -0.591314  0  2.335466  0  0  -0.62368  0  2.323059  0  0  -0.328834  -0.574157  0  2.342116  0
O  O44  1  0.02860965  0.68342462  0.02256883  1  0  -0.663698  0  2.135358  0  0  -0.606641  0  2.371893  0  0  -0.641502  0  2.360494  0  0  -0.339941  -0.588627  0  2.37726  0
O  O45  1  0.52859610  0.81655822  0.97742649  1  0  -0.663835  0  2.13532  0  0  -0.606827  0  2.371806  0  0  -0.641687  0  2.360404  0  0  -0.340004  -0.588827  0  2.377178  0
O  O46  1  0.97140061  0.31655581  0.97742085  1  0  -0.663944  0  2.135274  0  0  -0.606871  0  2.371732  0  0  -0.641739  0  2.360329  0  0  -0.34005  -0.588862  0  2.377106  0
O  O47  1  0.47138705  0.18342025  0.02256999  1  0  -0.663687  0  2.135533  0  0  -0.606595  0  2.372053  0  0  -0.641453  0  2.360652  0  0  -0.339883  -0.588592  0  2.377424  0
O  O48  1  0.10986331  0.54422026  0.39302356  1  0  -0.677878  0  2.057071  0  0  -0.629438  0  2.300249  0  0  -0.662786  0  2.285755  0  0  -0.383832  -0.612621  0  2.307478  0
O  O49  1  0.60986451  0.95579101  0.60698361  1  0  -0.677806  0  2.05725  0  0  -0.62937  0  2.300415  0  0  -0.662714  0  2.285922  0  0  -0.383825  -0.612555  0  2.307649  0
O  O50  1  0.89013720  0.45579106  0.60698307  1  0  -0.677769  0  2.057237  0  0  -0.62932  0  2.3004  0  0  -0.662665  0  2.285909  0  0  -0.383775  -0.612504  0  2.307641  0
O  O51  1  0.39014142  0.04422234  0.39302304  1  0  -0.677788  0  2.057156  0  0  -0.629352  0  2.300325  0  0  -0.662697  0  2.285835  0  0  -0.383746  -0.612532  0  2.307562  0
O  O52  1  0.06986203  0.67108101  0.61055211  1  0  -0.634032  0  2.02417  0  0  -0.59131  0  2.261052  0  0  -0.622146  0  2.247073  0  0  -0.369142  -0.576056  0  2.26845  0
O  O53  1  0.56986502  0.82893176  0.38944933  1  0  -0.634016  0  2.024138  0  0  -0.591287  0  2.261011  0  0  -0.622125  0  2.247038  0  0  -0.36919  -0.576027  0  2.268402  0
O  O54  1  0.93013414  0.32893810  0.38945169  1  0  -0.634031  0  2.02431  0  0  -0.591302  0  2.261188  0  0  -0.62214  0  2.247214  0  0  -0.369194  -0.576035  0  2.26858  0
O  O55  1  0.43013222  0.17107778  0.61055338  1  0  -0.633983  0  2.024273  0  0  -0.591271  0  2.261146  0  0  -0.622105  0  2.247167  0  0  -0.369039  -0.576006  0  2.268543  0
O  O56  1  0.88933184  0.12323187  0.12565206  1  0  -0.64013  0  2.022836  0  0  -0.592811  0  2.26652  0  0  -0.625382  0  2.252428  0  0  -0.363627  -0.577002  0  2.273276  0
O  O57  1  0.38932682  0.37675479  0.87435959  1  0  -0.640275  0  2.022634  0  0  -0.592943  0  2.266322  0  0  -0.625514  0  2.252226  0  0  -0.363693  -0.57713  0  2.273083  0
O  O58  1  0.11066974  0.87676164  0.87435533  1  0  -0.640231  0  2.022802  0  0  -0.592874  0  2.266474  0  0  -0.625446  0  2.252383  0  0  -0.363657  -0.577067  0  2.273238  0
O  O59  1  0.61067369  0.62322668  0.12564572  1  0  -0.64008  0  2.022959  0  0  -0.592762  0  2.266651  0  0  -0.625328  0  2.252563  0  0  -0.363544  -0.576951  0  2.273408  0
O  O60  1  0.85223178  0.88356841  0.98851433  1  0  -0.644078  0  2.088048  0  0  -0.582629  0  2.318778  0  0  -0.616263  0  2.310414  0  0  -0.335533  -0.564807  0  2.322549  0
O  O61  1  0.35223896  0.61642649  0.01149108  1  0  -0.643977  0  2.088124  0  0  -0.582551  0  2.318948  0  0  -0.616181  0  2.310586  0  0  -0.335543  -0.564737  0  2.322727  0
O  O62  1  0.14776764  0.11642490  0.01148818  1  0  -0.643959  0  2.08801  0  0  -0.582566  0  2.318866  0  0  -0.616201  0  2.310505  0  0  -0.335528  -0.564744  0  2.322641  0
O  O63  1  0.64776806  0.38356410  0.98851432  1  0  -0.644167  0  2.087914  0  0  -0.582677  0  2.318612  0  0  -0.616308  0  2.310242  0  0  -0.335582  -0.564852  0  2.32239  0
O  O64  1  0.28594545  0.38510095  0.16657920  1  0  -0.92764  0  1.882028  0  0  -0.878146  0  2.080453  0  0  -0.907839  0  2.03898  0  0  -0.663414  -0.864483  0  2.103596  0
O  O65  1  0.78594882  0.11490241  0.83342217  1  0  -0.927578  0  1.882022  0  0  -0.878084  0  2.080419  0  0  -0.90777  0  2.038956  0  0  -0.663384  -0.864416  0  2.103558  0
O  O66  1  0.71404854  0.61490149  0.83342342  1  0  -0.927506  0  1.882098  0  0  -0.878052  0  2.080493  0  0  -0.907727  0  2.039054  0  0  -0.663371  -0.864403  0  2.103594  0
O  O67  1  0.21405385  0.88510129  0.16657657  1  0  -0.927639  0  1.881981  0  0  -0.878151  0  2.080385  0  0  -0.907836  0  2.038924  0  0  -0.663444  -0.86449  0  2.103526  0
O  O68  1  0.79984209  0.44018869  0.21455046  1  0  -0.891699  0  1.828669  0  0  -0.847303  0  2.010886  0  0  -0.875591  0  1.971858  0  0  -0.631386  -0.834396  0  2.032267  0
O  O69  1  0.29983235  0.05981119  0.78544108  1  0  -0.891531  0  1.828838  0  0  -0.847178  0  2.010942  0  0  -0.875456  0  1.971919  0  0  -0.631306  -0.834267  0  2.032318  0
O  O70  1  0.20016709  0.55980739  0.78544039  1  0  -0.891543  0  1.8288  0  0  -0.847201  0  2.010935  0  0  -0.875475  0  1.971914  0  0  -0.631334  -0.83429  0  2.032312  0
O  O71  1  0.70016056  0.94019231  0.21455278  1  0  -0.891686  0  1.828648  0  0  -0.847317  0  2.010879  0  0  -0.875595  0  1.971857  0  0  -0.631411  -0.834415  0  2.032263  0
O  O72  1  0.19138244  0.18932568  0.28326091  1  0  -0.900961  0  1.91739  0  0  -0.850211  0  2.111565  0  0  -0.880414  0  2.077068  0  0  -0.603142  -0.835842  0  2.131296  0
O  O73  1  0.69137819  0.31068316  0.71673879  1  0  -0.900879  0  1.917333  0  0  -0.850051  0  2.111667  0  0  -0.880237  0  2.077181  0  0  -0.603142  -0.835664  0  2.131399  0
O  O74  1  0.80861589  0.81068297  0.71673983  1  0  -0.900781  0  1.917475  0  0  -0.850037  0  2.111676  0  0  -0.880225  0  2.077195  0  0  -0.603128  -0.835658  0  2.131407  0
O  O75  1  0.30861689  0.68932606  0.28326098  1  0  -0.900994  0  1.917316  0  0  -0.850272  0  2.111523  0  0  -0.880466  0  2.07702  0  0  -0.60318  -0.835908  0  2.131258  0
