# generated using pymatgen
data_CuH23C23N3O4
_symmetry_space_group_name_H-M   'P 1'
_cell_length_a   8.15926495
_cell_length_b   10.63919806
_cell_length_c   14.17599334
_cell_angle_alpha   73.44825603
_cell_angle_beta   83.73108115
_cell_angle_gamma   70.20084418
_symmetry_Int_Tables_number   1
_chemical_formula_structural   CuH23C23N3O4
_chemical_formula_sum   'Cu2 H46 C46 N6 O8'
_cell_volume   1109.75692544
_cell_formula_units_Z   2
loop_
 _symmetry_equiv_pos_site_id
 _symmetry_equiv_pos_as_xyz
  1  'x, y, z'
loop_
 _atom_site_type_symbol
 _atom_site_label
 _atom_site_symmetry_multiplicity
 _atom_site_fract_x
 _atom_site_fract_y
 _atom_site_fract_z
 _atom_site_occupancy
 _atom_site_hle17_ddec_charge
 _atom_site_hle17_ddec_spin_density
 _atom_site_hle17_ddec_sum_bond_order
 _atom_site_hle17_magmom
 _atom_site_hse06_10hf_ddec_charge
 _atom_site_hse06_10hf_ddec_spin_density
 _atom_site_hse06_10hf_ddec_sum_bond_order
 _atom_site_hse06_10hf_magmom
 _atom_site_hse06_ddec_charge
 _atom_site_hse06_ddec_spin_density
 _atom_site_hse06_ddec_sum_bond_order
 _atom_site_hse06_magmom
 _atom_site_pbe_cm5_charge
 _atom_site_pbe_ddec_charge
 _atom_site_pbe_ddec_spin_density
 _atom_site_pbe_ddec_sum_bond_order
 _atom_site_pbe_magmom
Cu  Cu0  1  0.58855726  0.58205241  0.71398494  1  0.797717  0.753664  2.062244  0.522  0.764999  0.825615  2.48291  0.628  0.844403  0.901869  2.413665  0.717  0.791163  0.722219  0.766465  2.526057  0.566
Cu  Cu1  1  0.41144167  0.41794595  0.28601824  1  0.797906  -0.753655  2.062154  -0.522  0.765177  -0.825612  2.48291  -0.628  0.844661  -0.901865  2.413539  -0.717  0.791225  0.722401  -0.766489  2.526081  -0.566
H  H2  1  0.86986600  0.57918642  0.83928467  1  0.099611  0.001592  0.90573  0.002  0.110042  0.001395  0.959087  0.002  0.11264  0.00098  0.956697  0.001  0.130392  0.107491  0.001739  0.961622  0.002
H  H3  1  0.13011249  0.42083891  0.16073006  1  0.099418  -0.001592  0.905849  -0.002  0.109942  -0.001395  0.959112  -0.002  0.11254  -0.00098  0.956722  -0.001  0.130376  0.107392  -0.001739  0.961649  -0.002
H  H4  1  0.09080411  0.70584873  0.81411534  1  0.119569  0.000495  0.931875  0.0  0.131533  0.000529  0.982994  0.001  0.134528  0.000358  0.982572  0.0  0.118183  0.128935  0.000664  0.983917  0.001
H  H5  1  0.90918234  0.29416103  0.18589522  1  0.119613  -0.000495  0.931632  0.0  0.131513  -0.000529  0.982863  -0.001  0.134511  -0.000358  0.982435  0.0  0.118137  0.128913  -0.000664  0.983787  -0.001
H  H6  1  0.10119550  0.87578901  0.65394332  1  0.113433  0.000209  0.959651  0.0  0.122171  -3.9e-05  1.020164  0.0  0.125977  -3.9e-05  1.016632  0.0  0.10979  0.119163  -2.8e-05  1.022989  0.0
H  H7  1  0.89882491  0.12420220  0.34605959  1  0.113381  -0.000208  0.959754  0.0  0.122122  3.9e-05  1.02026  0.0  0.125927  3.9e-05  1.016726  0.0  0.10975  0.119115  2.8e-05  1.023084  0.0
H  H8  1  0.88819140  0.91786618  0.52139052  1  0.111938  0.000865  0.937881  0.001  0.127159  0.000788  0.988086  0.001  0.129426  0.000535  0.988409  0.001  0.113932  0.125403  0.001003  0.988182  0.001
H  H9  1  0.11181193  0.08213326  0.47861432  1  0.111857  -0.000865  0.938114  -0.001  0.127139  -0.000788  0.988239  -0.001  0.129395  -0.000535  0.988578  -0.001  0.113923  0.125384  -0.001003  0.988341  -0.001
H  H10  1  0.67630431  0.94505348  0.41450943  1  0.137288  0.00065  0.967041  0.001  0.143501  0.00058  1.029453  0.001  0.148496  0.000407  1.025708  0.001  0.112921  0.139733  0.00071  1.032042  0.001
H  H11  1  0.32371676  0.05493569  0.58549882  1  0.137133  -0.00065  0.967189  -0.001  0.143482  -0.00058  1.029475  -0.001  0.148489  -0.000407  1.025737  -0.001  0.11292  0.139708  -0.00071  1.03207  -0.001
H  H12  1  0.44735918  0.93729371  0.32184715  1  0.099554  0.000107  0.966641  0.0  0.110193  -5.8e-05  1.027745  0.0  0.11287  -5e-05  1.025822  0.0  0.109855  0.107827  -5.5e-05  1.029638  0.0
H  H13  1  0.55267087  0.06269235  0.67815354  1  0.099447  -0.000107  0.966662  0.0  0.110084  5.8e-05  1.027755  0.0  0.112758  5e-05  1.02584  0.0  0.109848  0.107718  5.5e-05  1.029651  0.0
H  H14  1  0.28558991  0.76658885  0.39036001  1  0.133297  0.000663  0.974289  0.001  0.141959  0.000589  1.034529  0.001  0.146278  0.000416  1.032214  0.001  0.110937  0.138575  0.000722  1.036573  0.001
H  H15  1  0.71445116  0.23338370  0.60963028  1  0.133241  -0.000663  0.974222  -0.001  0.14184  -0.00059  1.034552  -0.001  0.146158  -0.000416  1.032236  -0.001  0.110836  0.138388  -0.000722  1.036687  -0.001
H  H16  1  0.18130597  0.59436648  0.46993020  1  0.126569  0.000792  0.970783  0.001  0.134092  0.000745  1.036736  0.001  0.137895  0.000519  1.033928  0.001  0.110682  0.131096  0.000926  1.039032  0.001
H  H17  1  0.81872359  0.40561849  0.53006298  1  0.126768  -0.000792  0.970594  -0.001  0.134251  -0.000745  1.036631  -0.001  0.138054  -0.000518  1.033823  -0.001  0.110637  0.131238  -0.000926  1.038921  -0.001
H  H18  1  0.04679614  0.42271350  0.58553931  1  0.102429  0.000193  0.950837  0.0  0.114318  -7.6e-05  1.010115  0.0  0.116637  -6.9e-05  1.008378  0.0  0.109438  0.112326  -6.3e-05  1.011889  0.0
H  H19  1  0.95321231  0.57728690  0.41444956  1  0.102565  -0.000193  0.95072  0.0  0.114441  7.6e-05  1.009993  0.0  0.116762  6.9e-05  1.008248  0.0  0.109447  0.112441  6.3e-05  1.011772  0.0
H  H20  1  0.14809075  0.31923445  0.75704261  1  0.109834  0.000515  0.955561  0.001  0.121242  0.000526  1.011751  0.001  0.123956  0.000363  1.011347  0.0  0.112651  0.118857  0.000655  1.0127  0.001
H  H21  1  0.85189560  0.68077105  0.24295334  1  0.109921  -0.000515  0.955588  -0.001  0.121343  -0.000526  1.011759  -0.001  0.124061  -0.000362  1.011348  0.0  0.11267  0.118953  -0.000655  1.01271  -0.001
H  H22  1  0.38432820  0.38644692  0.81241279  1  0.098989  0.001613  0.914066  0.002  0.108558  0.00142  0.970556  0.002  0.110985  0.000998  0.968115  0.001  0.12988  0.105999  0.001767  0.973322  0.002
H  H23  1  0.61565966  0.61355758  0.18758683  1  0.0989  -0.001614  0.914214  -0.002  0.108487  -0.001421  0.97072  -0.002  0.110913  -0.000998  0.968284  -0.001  0.129875  0.105931  -0.001767  0.973486  -0.002
H  H24  1  0.85454847  0.19655588  0.93381052  1  0.093889  -0.00026  0.95031  0.0  0.108052  1.3e-05  1.011975  0.0  0.110491  4e-06  1.010466  0.0  0.09192  0.106196  3.4e-05  1.013113  0.0
H  H25  1  0.14546018  0.80344042  0.06618626  1  0.093861  0.00026  0.950308  0.0  0.107995  -1.3e-05  1.012021  0.0  0.110432  -4e-06  1.010514  0.0  0.091922  0.106136  -3.4e-05  1.013161  0.0
H  H26  1  0.03296437  0.14442062  0.85368868  1  0.090155  0.000372  0.960991  0.0  0.105183  0.000277  1.025088  0.0  0.105926  0.000142  1.02559  0.0  0.093993  0.104895  0.00043  1.02453  0.0
H  H27  1  0.96703013  0.85557142  0.14630689  1  0.090108  -0.000372  0.96096  0.0  0.105156  -0.000277  1.025042  0.0  0.105901  -0.000142  1.025541  0.0  0.093987  0.104858  -0.00043  1.024495  0.0
H  H28  1  0.88380249  0.02360334  0.78842084  1  0.060676  -5.1e-05  0.938215  0.0  0.07957  -2.3e-05  0.999868  0.0  0.079948  -1.8e-05  1.00087  0.0  0.085443  0.079477  -3.9e-05  0.999058  0.0
H  H29  1  0.11616701  0.97640725  0.21157347  1  0.060653  5e-05  0.938276  0.0  0.079551  2.3e-05  0.999912  0.0  0.079919  1.8e-05  1.000939  0.0  0.085457  0.079459  3.9e-05  0.999102  0.0
H  H30  1  0.88956144  0.96314021  0.91815088  1  0.054883  0.000555  0.936807  0.001  0.074676  0.000258  0.997874  0.0  0.07502  0.000142  0.99846  0.0  0.085727  0.074302  0.000366  0.997579  0.0
H  H31  1  0.11042722  0.03686009  0.08184182  1  0.054881  -0.000555  0.936813  -0.001  0.074657  -0.000258  0.997906  0.0  0.075008  -0.000142  0.998483  0.0  0.085678  0.074281  -0.000366  0.997614  0.0
H  H32  1  0.57919458  0.13295483  0.92269300  1  0.061526  1.8e-05  0.94923  0.0  0.083462  2.3e-05  1.008394  0.0  0.083894  1.3e-05  1.009149  0.0  0.088264  0.082923  2.8e-05  1.008111  0.0
H  H33  1  0.42079631  0.86705076  0.07731188  1  0.061494  -1.8e-05  0.949139  0.0  0.083422  -2.3e-05  1.008262  0.0  0.083856  -1.3e-05  1.009007  0.0  0.088245  0.082885  -2.8e-05  1.007978  0.0
H  H34  1  0.57769032  0.16934170  0.79391235  1  0.050672  -3.5e-05  0.963813  0.0  0.070727  -1e-05  1.028734  0.0  0.070289  -1.1e-05  1.030726  0.0  0.083208  0.071395  -6e-06  1.026922  0.0
H  H35  1  0.42228498  0.83066276  0.20609426  1  0.050769  3.5e-05  0.963623  0.0  0.070698  1e-05  1.028655  0.0  0.070267  1.1e-05  1.030638  0.0  0.083189  0.071369  6e-06  1.026842  0.0
H  H36  1  0.62488623  0.88354434  0.93879374  1  0.055252  -4e-06  0.936973  0.0  0.075465  -5e-06  0.996999  0.0  0.076467  -2e-06  0.996756  0.0  0.084826  0.074575  -5e-06  0.997388  0.0
H  H37  1  0.37508807  0.11646222  0.06121600  1  0.055318  4e-06  0.936968  0.0  0.075494  5e-06  0.997039  0.0  0.076495  2e-06  0.996794  0.0  0.084815  0.074609  5e-06  0.997421  0.0
H  H38  1  0.63555084  0.91299957  0.81050088  1  0.056628  -3.5e-05  0.950433  0.0  0.076593  -2.6e-05  1.011142  0.0  0.076507  -2.2e-05  1.013119  0.0  0.083859  0.076824  -2.9e-05  1.009683  0.0
H  H39  1  0.36444411  0.08699880  0.18950955  1  0.056511  3.5e-05  0.950499  0.0  0.076543  2.6e-05  1.011124  0.0  0.076452  2.2e-05  1.013109  0.0  0.083787  0.076775  2.9e-05  1.009667  0.0
H  H40  1  0.32851313  0.07410189  0.79637598  1  0.055169  2.1e-05  0.95537  0.0  0.072767  2.3e-05  1.023701  0.0  0.073484  2.2e-05  1.023664  0.0  0.084518  0.072666  2e-05  1.023213  0.0
H  H41  1  0.67149641  0.92590476  0.20361221  1  0.05515  -2.1e-05  0.9554  0.0  0.072749  -2.3e-05  1.023736  0.0  0.073466  -2.2e-05  1.023694  0.0  0.084552  0.072625  -2e-05  1.023276  0.0
H  H42  1  0.31755308  0.05349478  0.92490083  1  0.05081  0.000162  0.949138  0.0  0.071322  7.9e-05  1.012249  0.0  0.071544  3.3e-05  1.013093  0.0  0.083434  0.071327  0.000146  1.011508  0.0
H  H43  1  0.68242865  0.94652521  0.07508805  1  0.050744  -0.000162  0.94915  0.0  0.071326  -7.9e-05  1.012223  0.0  0.071555  -3.3e-05  1.013055  0.0  0.08335  0.071336  -0.000146  1.011477  0.0
H  H44  1  0.36787805  0.79552633  0.95000636  1  0.096027  -5.9e-05  0.940062  0.0  0.113239  -2e-06  0.995961  0.0  0.11629  -2e-06  0.993258  0.0  0.092862  0.111094  2e-06  0.997781  0.0
H  H45  1  0.63210042  0.20449474  0.04999163  1  0.095863  5.9e-05  0.94024  0.0  0.113118  2e-06  0.99608  0.0  0.116176  1e-06  0.993378  0.0  0.092839  0.110971  -2e-06  0.997905  0.0
H  H46  1  0.17434432  0.90646461  0.88620518  1  0.085357  3.2e-05  0.962422  0.0  0.103232  3.7e-05  1.024241  0.0  0.104189  1.6e-05  1.02474  0.0  0.093191  0.102775  6.5e-05  1.023741  0.0
H  H47  1  0.82564104  0.09355231  0.11378699  1  0.085291  -3.3e-05  0.962227  0.0  0.103114  -3.7e-05  1.024128  0.0  0.104078  -1.6e-05  1.024629  0.0  0.093134  0.102659  -6.5e-05  1.023618  0.0
C  C48  1  0.88067195  0.65519875  0.77058921  1  0.136281  -0.008831  3.689162  -0.01  0.106068  -0.001879  3.949261  -0.003  0.116149  -0.002758  3.96555  -0.004  0.059401  0.099158  -0.001113  3.940147  -0.003
C  C49  1  0.11931816  0.34480794  0.22942394  1  0.136454  0.008833  3.688789  0.01  0.10614  0.00188  3.948879  0.003  0.116222  0.002759  3.965169  0.004  0.059442  0.099221  0.001114  3.939775  0.003
C  C50  1  0.00048935  0.72636227  0.75614743  1  -0.105344  0.009874  3.693591  0.01  -0.119518  0.004111  3.948277  0.005  -0.125803  0.003716  3.967383  0.004  -0.073323  -0.116098  0.004474  3.936798  0.005
C  C51  1  0.99950346  0.27363818  0.24386408  1  -0.105276  -0.009871  3.693292  -0.01  -0.119432  -0.004112  3.948031  -0.005  -0.125717  -0.003718  3.967133  -0.004  -0.073252  -0.116009  -0.004474  3.936549  -0.005
C  C52  1  0.00499509  0.82193401  0.66561249  1  -0.00107  -0.009226  3.695396  -0.008  -0.022957  -0.00333  3.950272  -0.003  -0.017942  -0.003256  3.966064  -0.003  -0.064134  -0.026525  -0.003432  3.940363  -0.003
C  C53  1  0.99500475  0.17806537  0.33438760  1  -0.00107  0.009223  3.695623  0.008  -0.022943  0.00333  3.950484  0.003  -0.017924  0.003258  3.96627  0.003  -0.064146  -0.02651  0.003432  3.940573  0.003
C  C54  1  0.88873109  0.84398718  0.59275859  1  -0.141805  0.006823  3.704277  0.007  -0.158499  0.002622  3.948201  0.003  -0.166061  0.00249  3.969758  0.002  -0.075565  -0.153477  0.002859  3.933884  0.003
C  C55  1  0.11126535  0.15600495  0.40724956  1  -0.141829  -0.006825  3.704257  -0.007  -0.158633  -0.002623  3.948124  -0.003  -0.166186  -0.002492  3.969675  -0.002  -0.07566  -0.15362  -0.00286  3.933814  -0.003
C  C56  1  0.77259610  0.76849987  0.61157717  1  0.175843  -0.003504  3.736498  -0.004  0.173349  0.000836  3.979864  0.0  0.180598  -0.000205  4.000303  -0.001  0.121743  0.168599  0.001608  3.966866  0.001
C  C57  1  0.22741338  0.23149649  0.38842943  1  0.175653  0.003503  3.736322  0.004  0.17334  -0.000836  3.979545  0.0  0.18059  0.000205  3.999981  0.001  0.121829  0.168603  -0.001607  3.966533  -0.001
C  C58  1  0.64413957  0.77966065  0.54172037  1  0.18838  -0.003359  3.76223  -0.004  0.18322  -0.00052  4.009721  -0.002  0.193848  -0.000974  4.026  -0.002  0.122423  0.175803  -1.8e-05  3.999802  -0.001
C  C59  1  0.35587177  0.22032534  0.45828762  1  0.188525  0.00336  3.761895  0.004  0.1832  0.000521  4.009668  0.002  0.193828  0.000974  4.025955  0.002  0.122306  0.175773  1.9e-05  3.999752  0.001
C  C60  1  0.60830028  0.87048732  0.44792447  1  -0.129468  0.004159  3.649164  0.004  -0.149209  0.002546  3.897778  0.003  -0.156004  0.002221  3.914131  0.002  -0.071426  -0.14445  0.002698  3.886401  0.003
C  C61  1  0.39172150  0.12950077  0.55207691  1  -0.129152  -0.004155  3.649221  -0.004  -0.14906  -0.002545  3.89801  -0.003  -0.155875  -0.002221  3.914378  -0.002  -0.071332  -0.144292  -0.002698  3.88663  -0.003
C  C62  1  0.47719728  0.86582506  0.39454519  1  0.003918  -0.00637  3.695194  -0.006  -0.017794  -0.003154  3.95226  -0.003  -0.010762  -0.002778  3.966929  -0.003  -0.06626  -0.022894  -0.0034  3.942536  -0.003
C  C63  1  0.52282158  0.13415882  0.60545017  1  0.003957  0.006368  3.694916  0.006  -0.017697  0.003154  3.952028  0.003  -0.010662  0.002778  3.966693  0.003  -0.066228  -0.022795  0.003401  3.942293  0.003
C  C64  1  0.38560836  0.77232138  0.43294801  1  -0.135784  0.004293  3.642428  0.004  -0.153119  0.002576  3.884942  0.003  -0.160191  0.002254  3.90252  0.002  -0.075018  -0.148565  0.002734  3.873801  0.003
C  C65  1  0.61442301  0.22765943  0.56704385  1  -0.135599  -0.004293  3.642031  -0.004  -0.15287  -0.002577  3.884525  -0.003  -0.159937  -0.002255  3.9021  -0.002  -0.074964  -0.148274  -0.002734  3.873431  -0.003
C  C66  1  0.42877816  0.68409605  0.52728910  1  0.187399  -0.003648  3.764574  -0.004  0.181686  -0.000682  4.013302  -0.002  0.192057  -0.001129  4.030303  -0.002  0.120409  0.174693  -0.000205  4.002439  -0.001
C  C67  1  0.57124336  0.31589305  0.47270785  1  0.187041  0.003646  3.764579  0.004  0.181367  0.000682  4.013349  0.002  0.191732  0.001128  4.030357  0.002  0.12034  0.174377  0.000204  4.00247  0.001
C  C68  1  0.34664162  0.58115892  0.58346927  1  0.169364  -0.003749  3.741572  -0.004  0.16717  0.000747  3.986354  0.0  0.174179  -0.000289  4.007068  -0.001  0.119178  0.162892  0.001564  3.972537  0.001
C  C69  1  0.65337427  0.41883220  0.41652400  1  0.169575  0.003749  3.741397  0.004  0.167285  -0.000747  3.986299  0.0  0.174301  0.000289  4.006992  0.001  0.119199  0.163017  -0.001564  3.972468  -0.001
C  C70  1  0.21929587  0.54742861  0.54684887  1  -0.140899  0.007236  3.676294  0.007  -0.160872  0.002861  3.925258  0.003  -0.168163  0.002668  3.946091  0.003  -0.078047  -0.15564  0.003128  3.911008  0.003
C  C71  1  0.78073160  0.45256153  0.45314191  1  -0.141068  -0.007236  3.676254  -0.007  -0.160979  -0.00286  3.925117  -0.003  -0.16828  -0.002668  3.945948  -0.003  -0.077992  -0.155713  -0.003128  3.910833  -0.003
C  C72  1  0.14746279  0.45201409  0.60973258  1  0.007913  -0.0096  3.695296  -0.009  -0.013848  -0.003448  3.947042  -0.003  -0.009183  -0.003357  3.965301  -0.003  -0.06524  -0.016865  -0.00353  3.935096  -0.003
C  C73  1  0.85254898  0.54798426  0.39025655  1  0.007654  0.009597  3.69525  0.009  -0.014039  0.003447  3.946954  0.003  -0.009379  0.003356  3.965229  0.003  -0.065278  -0.017054  0.003529  3.934995  0.003
C  C74  1  0.20386301  0.39298663  0.70674479  1  -0.109456  0.010031  3.713123  0.01  -0.122045  0.004209  3.963459  0.005  -0.128474  0.003793  3.983222  0.004  -0.076215  -0.119348  0.004608  3.951921  0.005
C  C75  1  0.79613635  0.60701477  0.29324573  1  -0.109552  -0.010031  3.713093  -0.01  -0.122148  -0.004209  3.963452  -0.005  -0.128578  -0.003794  3.983213  -0.004  -0.076256  -0.119443  -0.004607  3.951908  -0.005
C  C76  1  0.33348927  0.42916865  0.73791415  1  0.132708  -0.009041  3.692536  -0.01  0.102609  -0.001924  3.952818  -0.003  0.112592  -0.002788  3.968999  -0.004  0.057201  0.095644  -0.00112  3.944434  -0.003
C  C77  1  0.66650526  0.57083173  0.26208530  1  0.132956  0.00904  3.69256  0.01  0.102746  0.001924  3.952938  0.003  0.112718  0.002787  3.969121  0.004  0.05723  0.095787  0.00112  3.94456  0.003
C  C78  1  0.81090985  0.30575083  0.78112860  1  0.673532  -0.003305  3.87606  -0.006  0.637348  -7.5e-05  4.187097  -0.002  0.672564  -0.00028  4.181802  -0.001  0.192653  0.613507  0.000293  4.189236  -0.002
C  C79  1  0.18908193  0.69424433  0.21887139  1  0.673194  0.003304  3.87619  0.006  0.637137  7.6e-05  4.187049  0.002  0.672351  0.000283  4.181765  0.001  0.192591  0.613308  -0.000293  4.189164  0.002
C  C80  1  0.89042683  0.17390142  0.86213008  1  -0.263443  0.009878  3.671868  0.01  -0.302087  0.004581  3.920384  0.005  -0.308402  0.002781  3.929675  0.003  -0.17126  -0.297439  0.006195  3.913535  0.007
C  C81  1  0.10957519  0.82609588  0.13786823  1  -0.263282  -0.009879  3.671932  -0.01  -0.30196  -0.00458  3.920469  -0.005  -0.308272  -0.002781  3.929764  -0.003  -0.171247  -0.297303  -0.006195  3.913599  -0.007
C  C82  1  0.83148243  0.05380094  0.85659235  1  -0.0757  0.000507  3.688747  0.0  -0.116396  0.000353  3.951932  0.0  -0.116908  0.000188  3.967385  0.0  -0.165038  -0.115887  0.000551  3.941013  0.0
C  C83  1  0.16850432  0.94620043  0.14340657  1  -0.075676  -0.000505  3.688917  0.0  -0.116403  -0.000353  3.952049  0.0  -0.116921  -0.000188  3.967503  0.0  -0.164972  -0.115895  -0.000551  3.941124  0.0
C  C84  1  0.63375151  0.08776489  0.86059706  1  -0.115797  -1.4e-05  3.69644  0.0  -0.155806  1.8e-05  3.956796  0.0  -0.157001  -6e-06  3.972757  0.0  -0.171759  -0.154707  6.3e-05  3.94538  0.0
C  C85  1  0.36623737  0.91223965  0.13940744  1  -0.115842  1.3e-05  3.696314  0.0  -0.155611  -1.8e-05  3.956402  0.0  -0.156806  7e-06  3.972365  0.0  -0.171761  -0.154516  -6.3e-05  3.944992  0.0
C  C86  1  0.57515020  0.96293144  0.86978514  1  -0.111861  -5e-05  3.699655  0.0  -0.150561  -2.2e-05  3.96371  0.0  -0.151981  -1.9e-05  3.979268  0.0  -0.170043  -0.149481  -1.8e-05  3.952821  0.0
C  C87  1  0.42484032  0.03707207  0.13022019  1  -0.111775  4.9e-05  3.699718  0.0  -0.150564  2.2e-05  3.963798  0.0  -0.151981  1.8e-05  3.979357  0.0  -0.169879  -0.149491  1.8e-05  3.952913  0.0
C  C88  1  0.37727952  0.00004679  0.86734389  1  -0.088123  0.000232  3.7153  0.0  -0.13131  0.000165  3.979177  0.0  -0.131613  7.9e-05  3.994053  0.0  -0.169407  -0.131006  0.000313  3.968379  0.0
C  C89  1  0.62270560  0.99996182  0.13265005  1  -0.088099  -0.000232  3.715051  0.0  -0.131365  -0.000165  3.978999  0.0  -0.131654  -7.8e-05  3.99387  0.0  -0.169416  -0.131045  -0.000314  3.968227  0.0
C  C90  1  0.31751122  0.87433184  0.88145238  1  -0.268154  0.002481  3.684593  0.003  -0.305074  0.001095  3.929827  0.001  -0.310915  0.000518  3.938356  0.001  -0.173501  -0.300622  0.001893  3.923149  0.002
C  C91  1  0.68247034  0.12568196  0.11854488  1  -0.267856  -0.002481  3.684458  -0.003  -0.304734  -0.001096  3.929609  -0.001  -0.310622  -0.000519  3.938203  -0.001  -0.173373  -0.300291  -0.001894  3.922926  -0.002
C  C92  1  0.37352667  0.80670739  0.79600616  1  0.678127  -0.00131  3.895046  -0.002  0.641357  -0.000337  4.19817  -0.001  0.675202  -0.000354  4.193456  -0.001  0.186646  0.618398  -0.000208  4.198996  -0.001
C  C93  1  0.62647005  0.19330237  0.20399331  1  0.678045  0.001311  3.895328  0.002  0.641291  0.000338  4.198417  0.001  0.675143  0.000355  4.193714  0.001  0.186706  0.618353  0.000208  4.199206  0.001
N  N94  1  0.77138291  0.67513743  0.69990009  1  -0.302029  0.088791  3.300464  0.108  -0.262028  0.063496  3.59215  0.083  -0.290454  0.050434  3.611531  0.069  -0.33354  -0.246532  0.0716  3.581711  0.09
N  N95  1  0.22862265  0.32486516  0.30010821  1  -0.301944  -0.088791  3.300378  -0.108  -0.261927  -0.063496  3.592028  -0.083  -0.290362  -0.050435  3.611401  -0.069  -0.33354  -0.246437  -0.071593  3.581596  -0.089
N  N96  1  0.55407319  0.69090706  0.57792498  1  -0.3515  0.073945  3.407976  0.091  -0.318361  0.057313  3.713025  0.076  -0.343282  0.047839  3.724616  0.067  -0.35593  -0.305517  0.061436  3.707529  0.078
N  N97  1  0.44594141  0.30908309  0.42208056  1  -0.351528  -0.073952  3.407792  -0.091  -0.318386  -0.057318  3.712968  -0.076  -0.343333  -0.047842  3.724577  -0.067  -0.355871  -0.305536  -0.061437  3.707476  -0.078
N  N98  1  0.40352640  0.52000386  0.67737915  1  -0.30161  0.089858  3.310817  0.109  -0.262894  0.064073  3.606173  0.083  -0.291035  0.050849  3.625131  0.07  -0.336516  -0.248121  0.072604  3.596332  0.091
N  N99  1  0.59648017  0.47999451  0.32261730  1  -0.301744  -0.08985  3.310916  -0.109  -0.262905  -0.064067  3.606307  -0.083  -0.291035  -0.050845  3.625228  -0.07  -0.336494  -0.248157  -0.072592  3.59649  -0.091
O  O100  1  0.70844614  0.40836885  0.81289229  1  -0.59928  0.080665  2.010126  0.104  -0.577927  0.041419  2.287472  0.059  -0.619086  0.02866  2.277726  0.043  -0.342787  -0.549662  0.050508  2.292549  0.069
O  O101  1  0.29154870  0.59162740  0.18711224  1  -0.599217  -0.080652  2.01033  -0.104  -0.577904  -0.041417  2.28762  -0.059  -0.619087  -0.028663  2.277887  -0.043  -0.342805  -0.549644  -0.050498  2.292694  -0.069
O  O102  1  0.84643942  0.30736477  0.69231584  1  -0.658262  1.3e-05  1.913003  0.001  -0.626535  -0.00084  2.155409  0.0  -0.650833  -0.001132  2.14342  -0.001  -0.345671  -0.608445  -0.000322  2.162338  0.001
O  O103  1  0.15353303  0.69263236  0.30768540  1  -0.658049  -1.4e-05  1.912792  -0.001  -0.626399  0.00084  2.155165  0.0  -0.650696  0.001133  2.143181  0.001  -0.345605  -0.608336  0.000322  2.162103  -0.001
O  O104  1  0.34308813  0.88192544  0.70905152  1  -0.664433  -0.000209  1.907836  0.0  -0.618648  -0.000397  2.137291  0.0  -0.644655  -0.000398  2.129407  0.0  -0.350543  -0.598691  -0.000346  2.141046  0.0
O  O105  1  0.65691157  0.11808328  0.29094590  1  -0.66441  0.000208  1.907931  0.0  -0.618603  0.000397  2.137346  0.0  -0.644601  0.000399  2.129457  0.0  -0.350522  -0.598655  0.000345  2.141084  0.0
O  O106  1  0.44798397  0.67480516  0.82139594  1  -0.65077  0.019234  1.986049  0.026  -0.611434  0.008533  2.240852  0.013  -0.646639  0.004108  2.229555  0.007  -0.359501  -0.584833  0.013992  2.2457  0.02
O  O107  1  0.55200946  0.32520665  0.17860256  1  -0.650832  -0.019248  1.986095  -0.026  -0.611526  -0.008538  2.240929  -0.013  -0.646749  -0.004113  2.229626  -0.007  -0.359646  -0.584927  -0.013995  2.245768  -0.02
