# generated using pymatgen
data_SnH9C4ClO2
_symmetry_space_group_name_H-M   'P 1'
_cell_length_a   7.63330761
_cell_length_b   9.32329418
_cell_length_c   10.73255633
_cell_angle_alpha   90.00651929
_cell_angle_beta   89.99825047
_cell_angle_gamma   90.00109253
_symmetry_Int_Tables_number   1
_chemical_formula_structural   SnH9C4ClO2
_chemical_formula_sum   'Sn4 H36 C16 Cl4 O8'
_cell_volume   763.80997500
_cell_formula_units_Z   4
loop_
 _symmetry_equiv_pos_site_id
 _symmetry_equiv_pos_as_xyz
  1  'x, y, z'
loop_
 _atom_site_type_symbol
 _atom_site_label
 _atom_site_symmetry_multiplicity
 _atom_site_fract_x
 _atom_site_fract_y
 _atom_site_fract_z
 _atom_site_occupancy
 _atom_site_pbe_bader_spin_density
 _atom_site_pbe_cm5_charge
 _atom_site_pbe_ddec_charge
 _atom_site_pbe_ddec_spin_density
 _atom_site_pbe_ddec_sum_bond_order
 _atom_site_pbe_magmom
Sn  Sn0  1  0.24994378  0.58991321  0.68223119  1  0  0.555889  1.256912  0  3.395294  0
Sn  Sn1  1  0.75005712  0.91019499  0.18224268  1  0  0.555691  1.25675  0  3.395644  0
Sn  Sn2  1  0.75012153  0.41013406  0.31773990  1  0  0.555773  1.256966  0  3.395969  0
Sn  Sn3  1  0.24993613  0.08986837  0.81775264  1  0  0.555775  1.25667  0  3.394755  0
H  H4  1  0.56865615  0.64448121  0.78067742  1  0  0.086387  0.179126  0  1.041525  0
H  H5  1  0.43140487  0.85552973  0.28069548  1  0  0.086281  0.179076  0  1.041396  0
H  H6  1  0.06871055  0.35557948  0.21931732  1  0  0.086443  0.179232  0  1.041737  0
H  H7  1  0.93134201  0.14442152  0.71931345  1  0  0.086329  0.179099  0  1.041749  0
H  H8  1  0.43129911  0.35553710  0.21931230  1  0  0.08626  0.178969  0  1.041319  0
H  H9  1  0.56862769  0.14450037  0.71932685  1  0  0.086386  0.179146  0  1.041662  0
H  H10  1  0.93136523  0.64448281  0.78068825  1  0  0.086438  0.179147  0  1.041706  0
H  H11  1  0.06866303  0.85552384  0.28065391  1  0  0.086435  0.179223  0  1.041447  0
H  H12  1  0.58557616  0.50676246  0.66315899  1  0  0.091775  0.187577  0  1.052237  0
H  H13  1  0.41443863  0.99324450  0.16320653  1  0  0.091777  0.187607  0  1.051923  0
H  H14  1  0.08556490  0.49323519  0.33681487  1  0  0.091817  0.187601  0  1.052358  0
H  H15  1  0.91441731  0.00674941  0.83680185  1  0  0.091768  0.187546  0  1.052387  0
H  H16  1  0.41444985  0.49324942  0.33686801  1  0  0.091686  0.187437  0  1.052251  0
H  H17  1  0.58556904  0.00681242  0.83683724  1  0  0.091741  0.187548  0  1.052371  0
H  H18  1  0.91442967  0.50678848  0.66318603  1  0  0.091864  0.187714  0  1.052221  0
H  H19  1  0.08562573  0.99321312  0.16316458  1  0  0.09171  0.187533  0  1.052387  0
H  H20  1  0.50020190  0.46409719  0.81495398  1  0  0.086198  0.168706  0  1.068413  0
H  H21  1  0.49977465  0.03593811  0.31502170  1  0  0.086047  0.168577  0  1.068335  0
H  H22  1  0.00025692  0.53590242  0.18504324  1  0  0.086237  0.168757  0  1.068431  0
H  H23  1  0.99973600  0.96405277  0.68501737  1  0  0.086213  0.168763  0  1.068578  0
H  H24  1  0.49980183  0.53594685  0.18503668  1  0  0.086033  0.168485  0  1.068303  0
H  H25  1  0.50023563  0.96407484  0.68503511  1  0  0.086101  0.168495  0  1.068337  0
H  H26  1  0.99977564  0.46411374  0.81495674  1  0  0.086211  0.168685  0  1.068463  0
H  H27  1  0.00033192  0.03593228  0.31497235  1  0  0.086209  0.168673  0  1.068282  0
H  H28  1  0.13381644  0.11559991  0.49944053  1  0  0.099904  0.156484  0  1.019666  0
H  H29  1  0.86606472  0.38438938  0.99942397  1  0  0.099949  0.156741  0  1.020002  0
H  H30  1  0.63388433  0.88432981  0.50053970  1  0  0.100034  0.156763  0  1.019919  0
H  H31  1  0.36610705  0.61560703  0.00054917  1  0  0.099955  0.156705  0  1.019697  0
H  H32  1  0.86605367  0.88438944  0.50055852  1  0  0.099945  0.156649  0  1.01975  0
H  H33  1  0.13393509  0.61565252  0.00055830  1  0  0.099968  0.156619  0  1.020024  0
H  H34  1  0.36598316  0.11555013  0.49942300  1  0  0.099924  0.156653  0  1.019509  0
H  H35  1  0.63388227  0.38435335  0.99945546  1  0  0.100027  0.156807  0  1.019949  0
H  H36  1  0.24991915  0.21598026  0.38375866  1  0  0.104737  0.170415  0  0.984335  0
H  H37  1  0.74996548  0.28393772  0.88379654  1  0  0.10481  0.17045  0  0.984715  0
H  H38  1  0.74998109  0.78391470  0.61620404  1  0  0.10479  0.170462  0  0.984431  0
H  H39  1  0.25004611  0.71604519  0.11623418  1  0  0.104804  0.170381  0  0.984334  0
C  C40  1  0.51021973  0.54657936  0.74272993  1  0  -0.325006  -0.730724  0  3.71316  0
C  C41  1  0.48981142  0.95345009  0.24277568  1  0  -0.324705  -0.730504  0  3.71274  0
C  C42  1  0.01023174  0.45343649  0.25725028  1  0  -0.325095  -0.730863  0  3.714875  0
C  C43  1  0.98973673  0.04652992  0.75723380  1  0  -0.32483  -0.730515  0  3.714102  0
C  C44  1  0.48979056  0.45343681  0.25726631  1  0  -0.324721  -0.730312  0  3.712306  0
C  C45  1  0.51024996  0.04659182  0.75725784  1  0  -0.32494  -0.730477  0  3.712969  0
C  C46  1  0.98976414  0.54658825  0.74275249  1  0  -0.325085  -0.730755  0  3.714127  0
C  C47  1  0.01027094  0.95344226  0.24273822  1  0  -0.324955  -0.730671  0  3.713679  0
C  C48  1  0.24999115  0.30805987  0.56787487  1  0  0.239365  0.697582  0  4.068997  0
C  C49  1  0.75004803  0.19190363  0.06788304  1  0  0.239147  0.696955  0  4.069143  0
C  C50  1  0.75001914  0.69189730  0.43211765  1  0  0.238892  0.696636  0  4.069524  0
C  C51  1  0.24995964  0.80807392  0.93212625  1  0  0.239146  0.697112  0  4.069243  0
C  C52  1  0.24993112  0.18188190  0.48119979  1  0  -0.240374  -0.54217  0  3.881835  0
C  C53  1  0.74998616  0.31811566  0.98120648  1  0  -0.240566  -0.542421  0  3.882442  0
C  C54  1  0.74997305  0.81808492  0.51878528  1  0  -0.240467  -0.542219  0  3.882598  0
C  C55  1  0.25002413  0.68191659  0.01878231  1  0  -0.240406  -0.542125  0  3.882703  0
Cl  Cl56  1  0.24995457  0.77211594  0.52201905  1  0  -0.193106  -0.40628  0  1.085373  0
Cl  Cl57  1  0.75004247  0.72790531  0.02210150  1  0  -0.193188  -0.406251  0  1.085335  0
Cl  Cl58  1  0.74999545  0.22793239  0.47792595  1  0  -0.193191  -0.406282  0  1.08525  0
Cl  Cl59  1  0.24997961  0.27209906  0.97799351  1  0  -0.19325  -0.406385  0  1.085221  0
O  O60  1  0.24989802  0.43525540  0.52219477  1  0  -0.268609  -0.523556  0  2.238871  0
O  O61  1  0.75004479  0.06469767  0.02215621  1  0  -0.268295  -0.523145  0  2.239259  0
O  O62  1  0.74998519  0.56469104  0.47782477  1  0  -0.2682  -0.523068  0  2.238997  0
O  O63  1  0.25006244  0.93533137  0.97784469  1  0  -0.268458  -0.523415  0  2.23799  0
O  O64  1  0.24998850  0.29087107  0.68570617  1  0  -0.276416  -0.575468  0  2.310082  0
O  O65  1  0.75004056  0.20909539  0.18571880  1  0  -0.276331  -0.575273  0  2.31058  0
O  O66  1  0.75001786  0.70907215  0.31425653  1  0  -0.276426  -0.575287  0  2.309622  0
O  O67  1  0.25002867  0.79091863  0.81430168  1  0  -0.276249  -0.575267  0  2.311105  0
