# generated using pymatgen
data_Na5MnH24(C4O11)2
_symmetry_space_group_name_H-M   'P 1'
_cell_length_a   6.76344504
_cell_length_b   9.55584854
_cell_length_c   10.48698732
_cell_angle_alpha   110.92690635
_cell_angle_beta   108.81605087
_cell_angle_gamma   89.98812485
_symmetry_Int_Tables_number   1
_chemical_formula_structural   Na5MnH24(C4O11)2
_chemical_formula_sum   'Na5 Mn1 H24 C8 O22'
_cell_volume   594.14814833
_cell_formula_units_Z   1
loop_
 _symmetry_equiv_pos_site_id
 _symmetry_equiv_pos_as_xyz
  1  'x, y, z'
loop_
 _atom_site_type_symbol
 _atom_site_label
 _atom_site_symmetry_multiplicity
 _atom_site_fract_x
 _atom_site_fract_y
 _atom_site_fract_z
 _atom_site_occupancy
 _atom_site_hle17_ddec_charge
 _atom_site_hle17_ddec_spin_density
 _atom_site_hle17_ddec_sum_bond_order
 _atom_site_hle17_magmom
 _atom_site_hse06_10hf_ddec_charge
 _atom_site_hse06_10hf_ddec_spin_density
 _atom_site_hse06_10hf_ddec_sum_bond_order
 _atom_site_hse06_10hf_magmom
 _atom_site_hse06_ddec_charge
 _atom_site_hse06_ddec_spin_density
 _atom_site_hse06_ddec_sum_bond_order
 _atom_site_hse06_magmom
 _atom_site_pbe_cm5_charge
 _atom_site_pbe_ddec_charge
 _atom_site_pbe_ddec_spin_density
 _atom_site_pbe_ddec_sum_bond_order
 _atom_site_pbe_magmom
Na  Na0  1  0.28857657  0.49579610  0.47047839  1  0.897731  -4.4e-05  0.384725  0.0  0.857041  -5.2e-05  0.535351  0.0  0.866638  -5.5e-05  0.513579  0.0  0.658138  0.850032  -3.6e-05  0.550934  0.0
Na  Na1  1  0.81801384  0.50424639  0.52933976  1  0.8977  -4.3e-05  0.384804  0.0  0.85672  -5e-05  0.535912  0.0  0.866313  -5.3e-05  0.514142  0.0  0.657836  0.849579  -3.6e-05  0.551678  0.0
Na  Na2  1  0.00147502  0.27668307  0.03963829  1  0.892121  -0.00053  0.398008  0.0  0.847352  -0.000528  0.55008  0.0  0.857829  -0.000641  0.528531  0.0  0.686229  0.83964  -0.000386  0.56539  0.0
Na  Na3  1  0.96182930  0.72331095  0.96032253  1  0.892335  -0.000532  0.397165  0.0  0.847423  -0.000534  0.549331  0.0  0.8579  -0.000644  0.527789  0.0  0.68543  0.839716  -0.000387  0.564573  0.0
Na  Na4  1  0.46184435  0.49994068  0.00004288  1  0.894462  1.7e-05  0.34114  0.0  0.845136  8e-06  0.487749  0.0  0.856283  1.3e-05  0.46572  0.0  0.6291  0.837551  -1.3e-05  0.502283  0.0
Mn  Mn5  1  0.31245512  0.99999364  0.00002404  1  1.251753  4.041584  2.35731  3.95  1.165933  3.824297  2.870145  3.696  1.280346  3.900939  2.778491  3.792  0.75454  1.08206  3.753292  2.936077  3.609
H  H6  1  0.30314769  0.95416768  0.63626849  1  0.08639  -0.002708  0.90173  -0.002  0.093305  -0.001711  0.961463  -0.001  0.096501  -0.001763  0.958233  -0.001  0.115374  0.090141  -0.001658  0.965302  -0.001
H  H7  1  0.66725819  0.04585709  0.36377043  1  0.085736  -0.002721  0.901554  -0.002  0.092342  -0.001731  0.961671  -0.001  0.095615  -0.001749  0.958384  -0.001  0.115122  0.089426  -0.001657  0.964977  -0.001
H  H8  1  0.93157342  0.99281998  0.65559083  1  0.077932  -0.002152  0.885969  -0.002  0.089591  -0.000629  0.939051  -0.001  0.091127  -0.000972  0.93738  -0.001  0.117576  0.088022  -0.000211  0.940973  0.0
H  H9  1  0.27637528  0.00704140  0.34445916  1  0.079092  -0.002114  0.885454  -0.002  0.090296  -0.000573  0.938296  0.0  0.091804  -0.000953  0.936632  -0.001  0.117893  0.088524  -0.000214  0.940714  0.0
H  H10  1  0.77277324  0.08342484  0.14503519  1  0.413156  -0.000247  0.899899  0.0  0.381211  -8.3e-05  0.965237  0.0  0.392385  -0.000277  0.949123  0.0  0.292524  0.373412  0.000125  0.976452  0.001
H  H11  1  0.62753525  0.91671023  0.85480310  1  0.412163  -0.000246  0.901273  0.0  0.381088  -7.9e-05  0.965294  0.0  0.392278  -0.000273  0.949147  0.0  0.292514  0.373328  0.000128  0.976442  0.001
H  H12  1  0.00950564  0.06708281  0.15053750  1  0.401537  -0.00022  0.92135  0.0  0.369713  8e-05  0.988522  0.0  0.381303  -0.000139  0.971702  0.0  0.286975  0.361681  0.000311  1.000126  0.001
H  H13  1  0.85878844  0.93297775  0.84936540  1  0.402412  -0.000229  0.920216  0.0  0.370269  7.3e-05  0.987981  0.0  0.381874  -0.000145  0.971139  0.0  0.287073  0.362225  0.00031  0.99962  0.001
H  H14  1  0.93037166  0.51843958  0.24709179  1  0.435638  2.7e-05  0.857985  0.0  0.410468  4.6e-05  0.911931  0.0  0.419902  3.2e-05  0.897976  0.0  0.301466  0.403844  4.7e-05  0.921742  0.0
H  H15  1  0.68345004  0.48155645  0.75278706  1  0.435605  1.6e-05  0.85802  0.0  0.410077  5.5e-05  0.912524  0.0  0.41955  3.8e-05  0.898521  0.0  0.301104  0.403434  4.7e-05  0.922357  0.0
H  H16  1  0.12130580  0.57683399  0.20917171  1  0.421828  1.7e-05  0.881218  0.0  0.39311  2.7e-05  0.94165  0.0  0.402996  2.4e-05  0.926957  0.0  0.296981  0.386252  2.1e-05  0.951781  0.0
H  H17  1  0.91232698  0.42316507  0.79072867  1  0.421381  1.3e-05  0.881978  0.0  0.392946  2.4e-05  0.942201  0.0  0.40288  2.2e-05  0.927428  0.0  0.296744  0.38609  2.1e-05  0.952321  0.0
H  H18  1  0.55909977  0.18369866  0.89519743  1  0.422666  -0.000397  0.885107  0.0  0.38997  -6e-05  0.951883  0.0  0.401596  -0.000233  0.934974  0.0  0.29263  0.381925  0.000115  0.963596  0.0
H  H19  1  0.66393241  0.81634867  0.10478733  1  0.424121  -0.000387  0.883114  0.0  0.390851  -6.4e-05  0.950963  0.0  0.40249  -0.000236  0.934043  0.0  0.292663  0.382841  0.000113  0.962604  0.0
H  H20  1  0.60164235  0.27450319  0.80788685  1  0.417063  1.8e-05  0.843337  0.0  0.402058  4.5e-05  0.897038  0.0  0.409596  2.5e-05  0.887986  0.0  0.317365  0.396584  2.9e-05  0.903543  0.0
H  H21  1  0.79379126  0.72564227  0.19220981  1  0.416284  1.8e-05  0.843569  0.0  0.401375  2.7e-05  0.897152  0.0  0.408928  1.4e-05  0.88846  0.0  0.317046  0.396012  2.9e-05  0.903455  0.0
H  H22  1  0.97703224  0.25024153  0.33723366  1  0.43009  2e-06  0.876635  0.0  0.401701  -9e-06  0.935537  0.0  0.412177  -8e-06  0.920376  0.0  0.284491  0.394338  -1.5e-05  0.946183  0.0
H  H23  1  0.63966361  0.74984996  0.66275195  1  0.429876  -4e-06  0.877051  0.0  0.401583  -1.1e-05  0.935736  0.0  0.412055  -8e-06  0.920588  0.0  0.284386  0.394235  -1.5e-05  0.946353  0.0
H  H24  1  0.06547554  0.26355075  0.50355013  1  0.424435  3e-06  0.879671  0.0  0.396093  1.6e-05  0.939931  0.0  0.406047  9e-06  0.925065  0.0  0.289858  0.389074  1.8e-05  0.950438  0.0
H  H25  1  0.56179608  0.73645451  0.49643539  1  0.42451  4e-06  0.879871  0.0  0.396058  1.4e-05  0.940168  0.0  0.406041  7e-06  0.925279  0.0  0.289927  0.389061  1.8e-05  0.950626  0.0
H  H26  1  0.30981752  0.39855604  0.70982942  1  0.40573  5.5e-05  0.909786  0.0  0.372088  8.8e-05  0.97967  0.0  0.383611  5.9e-05  0.962571  0.0  0.29006  0.364064  8.9e-05  0.991493  0.0
H  H27  1  0.59993767  0.60146492  0.29032820  1  0.405246  3.7e-05  0.910431  0.0  0.371717  7.3e-05  0.98013  0.0  0.383209  5e-05  0.963086  0.0  0.290164  0.363699  8.9e-05  0.99194  0.0
H  H28  1  0.33696292  0.58196300  0.77252918  1  0.417107  9.8e-05  0.889171  0.0  0.386463  0.000329  0.953418  0.0  0.397865  0.000157  0.93643  0.0  0.297675  0.378681  0.000414  0.964868  0.0
H  H29  1  0.56423014  0.41805428  0.22759113  1  0.417638  7e-05  0.8881  0.0  0.386313  0.000292  0.953586  0.0  0.397744  0.000131  0.936582  0.0  0.297631  0.378491  0.000415  0.965097  0.0
C  C30  1  0.19120318  0.78746743  0.70328626  1  0.645264  -0.00156  3.878956  -0.001  0.59905  0.001072  4.183337  0.0  0.631669  4.7e-05  4.175973  0.0  0.208831  0.576396  0.002197  4.187982  0.001
C  C31  1  0.48792470  0.21252672  0.29675757  1  0.643888  -0.001544  3.883497  -0.001  0.59808  0.00119  4.187015  0.001  0.630736  0.000128  4.179737  0.0  0.209019  0.575394  0.002207  4.191561  0.001
C  C32  1  0.25994639  0.95201697  0.72806643  1  0.042024  0.001221  3.647182  0.002  0.013794  0.003755  3.898336  0.004  0.015346  0.002802  3.909098  0.003  -0.016229  0.012601  0.004853  3.891377  0.004
C  C33  1  0.53219418  0.04801132  0.27199703  1  0.042991  0.001321  3.646872  0.003  0.014973  0.003743  3.896434  0.004  0.016305  0.002788  3.907459  0.003  -0.016163  0.013965  0.004844  3.889174  0.004
C  C34  1  0.07936701  0.04528433  0.74891046  1  0.066091  0.005181  3.658919  0.007  0.043858  0.005766  3.913132  0.006  0.047389  0.004458  3.922965  0.006  -0.010044  0.041549  0.007139  3.906157  0.007
C  C35  1  0.33081455  0.95462212  0.25111228  1  0.062695  0.005158  3.660151  0.007  0.042343  0.005815  3.911844  0.007  0.045962  0.004505  3.921567  0.006  -0.010358  0.039804  0.007164  3.905333  0.007
C  C36  1  0.13002939  0.20634480  0.75585978  1  0.650984  0.001039  3.867475  0.001  0.59689  0.001538  4.179746  0.002  0.629108  0.000994  4.171253  0.001  0.210573  0.575009  0.002014  4.184698  0.002
C  C37  1  0.37444959  0.79350035  0.24409245  1  0.651288  0.00105  3.867672  0.001  0.596435  0.001515  4.180095  0.002  0.628654  0.000977  4.171658  0.001  0.21044  0.574534  0.00202  4.18531  0.002
O  O38  1  0.09377771  0.69544238  0.57668214  1  -0.701711  0.00232  1.934447  0.003  -0.662005  0.004505  2.172782  0.005  -0.682266  0.003144  2.158748  0.004  -0.412298  -0.648227  0.005828  2.182553  0.006
O  O39  1  0.51703894  0.30456843  0.42335512  1  -0.700921  0.002326  1.936463  0.003  -0.661364  0.004486  2.174227  0.005  -0.681612  0.003127  2.160208  0.004  -0.412219  -0.647574  0.005837  2.1841  0.006
O  O40  1  0.23812919  0.75771760  0.81983829  1  -0.682693  0.038138  1.967416  0.035  -0.627299  0.046674  2.210973  0.044  -0.658628  0.04119  2.197501  0.04  -0.313025  -0.604281  0.051397  2.218841  0.047
O  O41  1  0.41824323  0.24224440  0.18019657  1  -0.682531  0.038086  1.968938  0.035  -0.626894  0.046615  2.212042  0.044  -0.658212  0.041152  2.198552  0.039  -0.313252  -0.603868  0.051416  2.219997  0.047
O  O42  1  0.43187486  0.01962697  0.86324539  1  -0.632202  -0.030762  2.055475  -0.036  -0.565763  0.009255  2.307148  0.0  -0.603898  -0.002763  2.302121  -0.011  -0.362893  -0.538581  0.019835  2.31049  0.01
O  O43  1  0.56893914  0.98048039  0.13678643  1  -0.63224  -0.031043  2.0545  -0.037  -0.565438  0.009047  2.306644  0.0  -0.603456  -0.002932  2.301536  -0.011  -0.362719  -0.538686  0.019808  2.310051  0.01
O  O44  1  0.05783532  0.04563799  0.87967314  1  -0.685163  -0.029588  2.080954  -0.035  -0.63708  0.014765  2.362848  0.005  -0.673975  0.002078  2.35608  -0.007  -0.434348  -0.611022  0.026418  2.367374  0.016
O  O45  1  0.17844692  0.95434178  0.12038316  1  -0.683986  -0.028982  2.081726  -0.034  -0.637056  0.01514  2.363629  0.005  -0.673833  0.002421  2.356647  -0.007  -0.434722  -0.610575  0.026505  2.367994  0.016
O  O46  1  0.11365402  0.31936135  0.86134945  1  -0.735175  -0.000439  1.960491  0.0  -0.681196  -0.000326  2.196263  0.0  -0.703064  -0.000398  2.181462  0.0  -0.404689  -0.665796  -0.000212  2.205067  0.0
O  O47  1  0.25258753  0.68054700  0.13852411  1  -0.735578  -0.000473  1.960618  0.0  -0.681358  -0.000355  2.196486  0.0  -0.703257  -0.000419  2.181714  0.0  -0.404996  -0.666036  -0.000212  2.205241  0.0
O  O48  1  0.18674956  0.21499199  0.65435802  1  -0.653449  0.000372  1.987607  0.001  -0.594127  0.000812  2.208844  0.001  -0.619673  0.000492  2.196934  0.001  -0.317112  -0.576261  0.001242  2.217212  0.001
O  O49  1  0.53246744  0.78481338  0.34568698  1  -0.6524  0.000301  1.988458  0.0  -0.5929  0.000788  2.210018  0.001  -0.618479  0.000474  2.19815  0.001  -0.316577  -0.575035  0.001241  2.218192  0.001
O  O50  1  0.90810419  0.14380506  0.16525666  1  -0.865155  -0.000293  1.828091  0.0  -0.80586  0.00114  1.995771  0.002  -0.826243  0.000503  1.96346  0.001  -0.640118  -0.79131  0.00187  2.018084  0.003
O  O51  1  0.74259582  0.85626895  0.83453008  1  -0.865025  -0.000265  1.828746  0.0  -0.806258  0.001158  1.995503  0.002  -0.826664  0.000512  1.963248  0.001  -0.639851  -0.791677  0.001876  2.017729  0.003
O  O52  1  0.07171738  0.50160919  0.24050569  1  -0.916537  4.3e-05  1.749169  0.0  -0.871161  0.000165  1.913208  0.0  -0.887237  0.0001  1.880743  0.0  -0.695546  -0.859389  0.000198  1.935303  0.0
O  O53  1  0.83139010  0.49842477  0.75942078  1  -0.916246  7.8e-05  1.749382  0.0  -0.87091  0.000192  1.913091  0.0  -0.887022  0.000119  1.880456  0.0  -0.695113  -0.85912  0.000198  1.935283  0.0
O  O54  1  0.63771203  0.27978285  0.90731642  1  -0.889887  -0.000933  1.755703  -0.001  -0.849631  0.000296  1.929379  0.001  -0.8654  3.2e-05  1.900083  0.0  -0.671696  -0.838787  0.000629  1.949721  0.001
O  O55  1  0.73030040  0.72018384  0.09273414  1  -0.890495  -0.000962  1.754103  -0.001  -0.850076  0.000288  1.928105  0.001  -0.86586  2.9e-05  1.899133  0.0  -0.671069  -0.839187  0.000631  1.948249  0.001
O  O56  1  0.01807387  0.32247365  0.44148387  1  -0.958305  -1.2e-05  1.763412  0.0  -0.912547  1.3e-05  1.940515  0.0  -0.929848  -1.3e-05  1.908008  0.0  -0.734401  -0.900303  4.8e-05  1.963347  0.0
O  O57  1  0.57632770  0.67757480  0.55852573  1  -0.958641  -9e-06  1.76347  0.0  -0.912894  1.3e-05  1.941273  0.0  -0.930228  -1.6e-05  1.908665  0.0  -0.734601  -0.900613  4.8e-05  1.963975  0.0
O  O58  1  0.41357033  0.49187390  0.75342584  1  -0.900147  0.000402  1.825768  0.001  -0.841809  0.00078  1.98945  0.001  -0.860458  0.000549  1.954859  0.001  -0.62553  -0.828339  0.000979  2.012856  0.001
O  O59  1  0.66016036  0.50807144  0.24685480  1  -0.900473  0.000422  1.824102  0.001  -0.842088  0.000774  1.988385  0.001  -0.860739  0.000546  1.953748  0.001  -0.625808  -0.828546  0.000978  2.011927  0.001
