# generated using pymatgen
data_ZnH20C20(NO)4
_symmetry_space_group_name_H-M   'P 1'
_cell_length_a   7.30721922
_cell_length_b   12.07820494
_cell_length_c   22.97935744
_cell_angle_alpha   98.50001307
_cell_angle_beta   90.00008208
_cell_angle_gamma   89.99965029
_symmetry_Int_Tables_number   1
_chemical_formula_structural   ZnH20C20(NO)4
_chemical_formula_sum   'Zn4 H80 C80 N16 O16'
_cell_volume   2005.83707408
_cell_formula_units_Z   4
loop_
 _symmetry_equiv_pos_site_id
 _symmetry_equiv_pos_as_xyz
  1  'x, y, z'
loop_
 _atom_site_type_symbol
 _atom_site_label
 _atom_site_symmetry_multiplicity
 _atom_site_fract_x
 _atom_site_fract_y
 _atom_site_fract_z
 _atom_site_occupancy
 _atom_site_pbe_bader_charge
 _atom_site_pbe_bader_spin_density
 _atom_site_pbe_cm5_charge
 _atom_site_pbe_ddec_charge
 _atom_site_pbe_ddec_spin_density
 _atom_site_pbe_ddec_sum_bond_order
 _atom_site_pbe_magmom
Zn  Zn0  1  0.01472075  0.20564486  0.32542314  1  1.252223  0  0.699635  0.776926  0  2.383335  0
Zn  Zn1  1  0.51472686  0.29435359  0.17457804  1  1.252121  0  0.699645  0.777024  0  2.383289  0
Zn  Zn2  1  0.98527929  0.79434962  0.67457598  1  1.252162  0  0.699645  0.776968  0  2.383249  0
Zn  Zn3  1  0.48527865  0.70564927  0.82542171  1  1.252131  0  0.699652  0.776995  0  2.383256  0
H  H4  1  0.72210990  0.08985770  0.53114406  1  0.048777  0  0.101646  0.097972  0  1.021467  0
H  H5  1  0.22211606  0.41014609  0.96885885  1  0.048682  0  0.101679  0.098005  0  1.021308  0
H  H6  1  0.27789013  0.91013929  0.46885438  1  0.0488  0  0.101648  0.097944  0  1.021485  0
H  H7  1  0.77788398  0.58986013  0.03114246  1  0.048734  0  0.101678  0.098019  0  1.021357  0
H  H8  1  0.22507018  0.08602711  0.63214484  1  0.088421  0  0.105485  0.116222  0  1.032523  0
H  H9  1  0.72508416  0.41397581  0.86785497  1  0.088491  0  0.105539  0.116289  0  1.032572  0
H  H10  1  0.77493396  0.91396905  0.36785441  1  0.088365  0  0.105566  0.116278  0  1.032442  0
H  H11  1  0.27492272  0.58603040  0.13214548  1  0.088336  0  0.105524  0.116272  0  1.032525  0
H  H12  1  0.08136905  0.21207860  0.57013202  1  0.081128  0  0.099669  0.095622  0  1.028995  0
H  H13  1  0.58138321  0.28792988  0.92986901  1  0.081306  0  0.099622  0.095578  0  1.029214  0
H  H14  1  0.91862688  0.78791673  0.42986760  1  0.081234  0  0.099669  0.09561  0  1.029067  0
H  H15  1  0.41862367  0.71207884  0.07013162  1  0.081152  0  0.099669  0.095648  0  1.029038  0
H  H16  1  0.25087488  0.27839909  0.48903704  1  0.100023  0  0.106603  0.121801  0  1.013575  0
H  H17  1  0.75088236  0.22160603  0.01096345  1  0.100075  0  0.10656  0.121782  0  1.013548  0
H  H18  1  0.74912105  0.72159957  0.51096109  1  0.099774  0  0.106613  0.121823  0  1.013617  0
H  H19  1  0.24912041  0.77839599  0.98903493  1  0.100009  0  0.106618  0.121854  0  1.013497  0
H  H20  1  0.63195085  0.32750330  0.33344112  1  0.195138  0  0.133943  0.104135  0  1.038443  0
H  H21  1  0.13194983  0.17250143  0.16656146  1  0.195115  0  0.133935  0.104155  0  1.038423  0
H  H22  1  0.36805740  0.67250207  0.66655969  1  0.195159  0  0.133946  0.104172  0  1.038416  0
H  H23  1  0.86805020  0.82750479  0.83344029  1  0.195097  0  0.133969  0.104168  0  1.038466  0
H  H24  1  0.87794305  0.13674128  0.45217570  1  0.106976  0  0.11561  0.107753  0  1.020838  0
H  H25  1  0.37795327  0.36325670  0.04782692  1  0.106956  0  0.115616  0.107727  0  1.020808  0
H  H26  1  0.12205288  0.86325236  0.54782162  1  0.106925  0  0.115649  0.107739  0  1.020749  0
H  H27  1  0.62205361  0.63673863  0.95217270  1  0.106998  0  0.115607  0.107725  0  1.020786  0
H  H28  1  0.59186541  0.85843571  0.72914290  1  0.219942  0  0.138874  0.115078  0  1.021743  0
H  H29  1  0.09186380  0.64156212  0.77085584  1  0.22012  0  0.138892  0.11509  0  1.021773  0
H  H30  1  0.40814284  0.14156297  0.27085654  1  0.220145  0  0.138893  0.115075  0  1.021787  0
H  H31  1  0.90813897  0.35843906  0.22914292  1  0.220181  0  0.138875  0.115085  0  1.021667  0
H  H32  1  0.85810946  0.96746712  0.58459814  1  0.090939  0  0.116152  0.10871  0  1.015562  0
H  H33  1  0.35812055  0.53253223  0.91539866  1  0.091478  0  0.116157  0.108726  0  1.015586  0
H  H34  1  0.14189332  0.03253070  0.41539949  1  0.091196  0  0.116179  0.10877  0  1.015585  0
H  H35  1  0.64188497  0.46747398  0.08460092  1  0.091423  0  0.116144  0.108687  0  1.015641  0
H  H36  1  0.99982663  0.00229728  0.15228906  1  0.023665  0  0.098217  0.079162  0  0.986808  0
H  H37  1  0.49982863  0.49770275  0.34771072  1  0.023661  0  0.098217  0.079183  0  0.986781  0
H  H38  1  0.00017067  0.99770055  0.84770944  1  0.023647  0  0.098212  0.079129  0  0.986838  0
H  H39  1  0.50017004  0.50229845  0.65229022  1  0.02364  0  0.098224  0.079162  0  0.986785  0
H  H40  1  0.00069966  0.80558689  0.13854336  1  0.034366  0  0.083113  0.076616  0  1.032309  0
H  H41  1  0.50069804  0.69441356  0.36145779  1  0.034335  0  0.083104  0.076617  0  1.032256  0
H  H42  1  0.99929490  0.19441179  0.86145782  1  0.034364  0  0.083102  0.076622  0  1.032298  0
H  H43  1  0.49929105  0.30558763  0.63854315  1  0.034366  0  0.083098  0.076599  0  1.032315  0
H  H44  1  0.08480548  0.84663931  0.21042686  1  0.032344  0  0.091051  0.091208  0  0.986361  0
H  H45  1  0.58480395  0.65336251  0.28957487  1  0.032307  0  0.091041  0.091216  0  0.986369  0
H  H46  1  0.91519319  0.15336188  0.78957364  1  0.032338  0  0.091034  0.091186  0  0.986366  0
H  H47  1  0.41518651  0.34663952  0.71042657  1  0.032204  0  0.091058  0.09125  0  0.986303  0
H  H48  1  0.78426886  0.80437000  0.25263550  1  0.017439  0  0.085157  0.080739  0  1.023322  0
H  H49  1  0.28427071  0.69563359  0.24736471  1  0.017462  0  0.085179  0.08082  0  1.023298  0
H  H50  1  0.21573255  0.19563119  0.74736587  1  0.017516  0  0.085194  0.080831  0  1.02328  0
H  H51  1  0.71572111  0.30436593  0.75263610  1  0.017425  0  0.085175  0.080804  0  1.023311  0
H  H52  1  0.86363333  0.68612816  0.20460997  1  0.045437  0  0.082908  0.077761  0  1.015059  0
H  H53  1  0.36362873  0.81387180  0.29539174  1  0.045615  0  0.08291  0.077766  0  1.015094  0
H  H54  1  0.13636397  0.31387052  0.79539208  1  0.045685  0  0.082907  0.077763  0  1.01516  0
H  H55  1  0.63635625  0.18612688  0.70460944  1  0.045443  0  0.082886  0.077704  0  1.015171  0
H  H56  1  0.66440801  0.73507395  0.12483428  1  -0.024719  0  0.076595  0.058711  0  1.031711  0
H  H57  1  0.16440152  0.76492255  0.37516577  1  -0.024697  0  0.076568  0.058686  0  1.031798  0
H  H58  1  0.33558929  0.26492557  0.87516827  1  -0.024801  0  0.07659  0.058734  0  1.031742  0
H  H59  1  0.83558620  0.23507279  0.62483472  1  -0.024727  0  0.076593  0.058703  0  1.031723  0
H  H60  1  0.53083209  0.72149865  0.18762446  1  0.026045  0  0.088362  0.086784  0  1.006172  0
H  H61  1  0.03082930  0.77850084  0.31237445  1  0.026026  0  0.088368  0.086807  0  1.006168  0
H  H62  1  0.46916657  0.27850256  0.81237821  1  0.026061  0  0.088374  0.086827  0  1.00615  0
H  H63  1  0.96915843  0.22149281  0.68762591  1  0.026032  0  0.088347  0.08679  0  1.006144  0
H  H64  1  0.53135661  0.93049004  0.21610130  1  0.058672  0  0.086925  0.081894  0  1.024886  0
H  H65  1  0.03136537  0.56951027  0.28389550  1  0.058862  0  0.086959  0.081913  0  1.024885  0
H  H66  1  0.46863932  0.06951366  0.78389982  1  0.058669  0  0.086916  0.081907  0  1.024885  0
H  H67  1  0.96862645  0.43048255  0.71610480  1  0.058554  0  0.086942  0.081891  0  1.025021  0
H  H68  1  0.44057655  0.89329246  0.14488143  1  0.023365  0  0.087086  0.083638  0  0.986074  0
H  H69  1  0.94057168  0.60670384  0.35511307  1  0.023243  0  0.087061  0.083594  0  0.986099  0
H  H70  1  0.55942075  0.10670623  0.85512019  1  0.023338  0  0.087094  0.083609  0  0.986131  0
H  H71  1  0.05942152  0.39328981  0.64488598  1  0.023357  0  0.087053  0.083603  0  0.986004  0
H  H72  1  0.74177568  0.92537292  0.10018828  1  0.021719  0  0.100353  0.089101  0  0.958929  0
H  H73  1  0.24177123  0.57462747  0.39980992  1  0.021787  0  0.100339  0.089112  0  0.958852  0
H  H74  1  0.25821614  0.07462743  0.89981215  1  0.021652  0  0.10037  0.089111  0  0.958998  0
H  H75  1  0.75822197  0.42536954  0.60019026  1  0.021744  0  0.100353  0.089098  0  0.958888  0
H  H76  1  0.40359060  0.31927489  0.41439353  1  0.574178  0  0.309475  0.294441  0  1.006021  0
H  H77  1  0.90359199  0.18072884  0.08560779  1  0.573972  0  0.309455  0.2944  0  1.006041  0
H  H78  1  0.59641491  0.68072713  0.58560703  1  0.573956  0  0.309467  0.294443  0  1.005991  0
H  H79  1  0.09640805  0.81927319  0.91439320  1  0.573964  0  0.309477  0.294419  0  1.006018  0
H  H80  1  0.36821874  0.98202739  0.68607525  1  0.560559  0  0.312187  0.291892  0  1.009096  0
H  H81  1  0.86822552  0.51797363  0.81392603  1  0.560584  0  0.31218  0.291923  0  1.009111  0
H  H82  1  0.63178678  0.01797129  0.31392419  1  0.560518  0  0.312222  0.291974  0  1.008987  0
H  H83  1  0.13178136  0.48203007  0.18607422  1  0.560582  0  0.312189  0.291886  0  1.009104  0
C  C84  1  0.50096913  0.18896227  0.50458879  1  -0.016997  0  -0.009257  0.049294  0  4.074833  0
C  C85  1  0.00098051  0.31104064  0.99541091  1  -0.017363  0  -0.00922  0.049216  0  4.074983  0
C  C86  1  0.49902543  0.81103555  0.49540884  1  -0.016928  0  -0.009187  0.049335  0  4.074923  0
C  C87  1  0.99902363  0.68896138  0.00458791  1  -0.017375  0  -0.009236  0.049244  0  4.074964  0
C  C88  1  0.58185807  0.11795668  0.54019845  1  -0.055958  0  -0.083774  -0.164019  0  3.938707  0
C  C89  1  0.08186584  0.38204427  0.95980200  1  -0.055644  0  -0.083835  -0.164062  0  3.938666  0
C  C90  1  0.41814060  0.88203948  0.45980036  1  -0.055985  0  -0.083848  -0.164019  0  3.938921  0
C  C91  1  0.91813557  0.61795859  0.04019819  1  -0.055628  0  -0.083812  -0.164066  0  3.938754  0
C  C92  1  0.48636239  0.07985173  0.58625517  1  0.034714  0  -0.004963  0.057984  0  4.060905  0
C  C93  1  0.98637378  0.42015025  0.91374555  1  0.034615  0  -0.004897  0.05825  0  4.06091  0
C  C94  1  0.51364038  0.92014443  0.41374321  1  0.034519  0  -0.004904  0.058029  0  4.061019  0
C  C95  1  0.01363173  0.57985680  0.08625539  1  0.034663  0  -0.004969  0.058077  0  4.060995  0
C  C96  1  0.30341851  0.11382780  0.59660550  1  -0.049208  0  -0.094859  -0.146329  0  3.949326  0
C  C97  1  0.80343430  0.38617819  0.90339501  1  -0.048971  0  -0.094896  -0.146579  0  3.949524  0
C  C98  1  0.69658153  0.88617088  0.40339524  1  -0.049196  0  -0.094917  -0.146347  0  3.949514  0
C  C99  1  0.19657122  0.61383053  0.09660563  1  -0.048976  0  -0.094846  -0.14642  0  3.949462  0
C  C100  1  0.22239409  0.18517045  0.56149927  1  -0.110986  0  -0.096007  -0.08232  0  4.052166  0
C  C101  1  0.72240117  0.31483583  0.93850123  1  -0.110699  0  -0.096008  -0.082265  0  4.052253  0
C  C102  1  0.77760869  0.81482989  0.43849899  1  -0.110874  0  -0.096089  -0.082443  0  4.052216  0
C  C103  1  0.27760297  0.68517121  0.06149928  1  -0.110996  0  -0.096037  -0.082384  0  4.052275  0
C  C104  1  0.31853296  0.22336890  0.51593487  1  0.006462  0  -0.095352  -0.143198  0  3.956632  0
C  C105  1  0.81854338  0.27663537  0.98406638  1  0.006045  0  -0.095337  -0.143163  0  3.956622  0
C  C106  1  0.68146570  0.77662476  0.48406462  1  0.006601  0  -0.095337  -0.143152  0  3.956356  0
C  C107  1  0.18146350  0.72336832  0.01593344  1  0.006468  0  -0.09535  -0.143175  0  3.956533  0
C  C108  1  0.65777218  0.28731389  0.37200593  1  0.969746  0  0.146528  0.154964  0  3.910858  0
C  C109  1  0.15777195  0.21268906  0.12799566  1  0.969553  0  0.146586  0.154969  0  3.910752  0
C  C110  1  0.34223333  0.71268813  0.62799463  1  0.969389  0  0.146579  0.155023  0  3.910732  0
C  C111  1  0.84222945  0.78731212  0.87200440  1  0.969844  0  0.146515  0.154914  0  3.910973  0
C  C112  1  0.77674421  0.18734090  0.43393155  1  0.365712  0  0.000813  -0.082527  0  3.949041  0
C  C113  1  0.27674680  0.31265995  0.06607080  1  0.365179  0  0.000849  -0.082466  0  3.949008  0
C  C114  1  0.22325857  0.81265693  0.56606782  1  0.365812  0  0.000755  -0.082502  0  3.948914  0
C  C115  1  0.72325460  0.68734040  0.93392920  1  0.365269  0  0.000859  -0.082433  0  3.948945  0
C  C116  1  0.60403817  0.21957757  0.45509353  1  0.383974  0  0.087211  0.111521  0  4.004983  0
C  C117  1  0.10404511  0.28042391  0.04490792  1  0.383673  0  0.087189  0.111438  0  4.005201  0
C  C118  1  0.39596323  0.78042026  0.54490584  1  0.383885  0  0.087202  0.111454  0  4.005059  0
C  C119  1  0.89596041  0.71957645  0.95509252  1  0.383978  0  0.087147  0.11141  0  4.0052  0
C  C120  1  0.62079131  0.89932427  0.69119738  1  0.947409  0  0.149366  0.157768  0  3.900616  0
C  C121  1  0.12079439  0.60067679  0.80880031  1  0.947392  0  0.149295  0.157791  0  3.900414  0
C  C122  1  0.37921557  0.10067524  0.30880212  1  0.94745  0  0.149259  0.157749  0  3.90085  0
C  C123  1  0.87920975  0.39932774  0.19119827  1  0.947481  0  0.149308  0.157786  0  3.90056  0
C  C124  1  0.75144383  0.95807840  0.61616182  1  0.417286  0  0.00412  -0.074161  0  3.942261  0
C  C125  1  0.25145879  0.54191967  0.88383657  1  0.416445  0  0.004137  -0.074121  0  3.942046  0
C  C126  1  0.24855621  0.04191524  0.38383592  1  0.416913  0  0.004167  -0.074145  0  3.942302  0
C  C127  1  0.74854809  0.45808653  0.11616344  1  0.416407  0  0.004273  -0.073933  0  3.942163  0
C  C128  1  0.57861135  0.00572431  0.62134089  1  0.356182  0  0.08744  0.105032  0  4.012752  0
C  C129  1  0.07862172  0.49427663  0.87865826  1  0.356242  0  0.087455  0.105002  0  4.012596  0
C  C130  1  0.42139006  0.99427268  0.37865668  1  0.356  0  0.087378  0.104919  0  4.012956  0
C  C131  1  0.92138379  0.50572958  0.12134218  1  0.356333  0  0.087371  0.10492  0  4.012805  0
C  C132  1  0.89905437  0.96462358  0.17901696  1  0.016632  0  -0.085159  -0.124179  0  3.822841  0
C  C133  1  0.39905406  0.53537709  0.32098264  1  0.016663  0  -0.085204  -0.124288  0  3.822856  0
C  C134  1  0.10094567  0.03537677  0.82098216  1  0.016637  0  -0.08518  -0.124271  0  3.822937  0
C  C135  1  0.60094324  0.46462076  0.67901804  1  0.016655  0  -0.085283  -0.124385  0  3.823121  0
C  C136  1  0.96058729  0.84417572  0.18314282  1  -0.032138  0  -0.164362  -0.155068  0  3.906298  0
C  C137  1  0.46058575  0.65582472  0.31685766  1  -0.032123  0  -0.164275  -0.155019  0  3.906175  0
C  C138  1  0.03941138  0.15582379  0.81685755  1  -0.03211  0  -0.164277  -0.15496  0  3.906262  0
C  C139  1  0.53940608  0.34417563  0.68314277  1  -0.032065  0  -0.164278  -0.154972  0  3.906501  0
C  C140  1  0.81280235  0.77220834  0.20626119  1  -0.030662  0  -0.174504  -0.148629  0  3.938453  0
C  C141  1  0.31279997  0.72779180  0.29373833  1  -0.030756  0  -0.17455  -0.148722  0  3.938529  0
C  C142  1  0.18719632  0.22779285  0.79374018  1  -0.030947  0  -0.174567  -0.148755  0  3.938622  0
C  C143  1  0.68718775  0.27220604  0.70626191  1  -0.030778  0  -0.174488  -0.148641  0  3.938742  0
C  C144  1  0.63634663  0.77324149  0.17066308  1  0.010438  0  -0.169809  -0.143648  0  3.940724  0
C  C145  1  0.13634032  0.72675762  0.32933629  1  0.010399  0  -0.169813  -0.143677  0  3.940848  0
C  C146  1  0.36365341  0.22675970  0.82933872  1  0.010458  0  -0.169841  -0.143756  0  3.940865  0
C  C147  1  0.86364740  0.27323772  0.67066420  1  0.010814  0  -0.169828  -0.143706  0  3.940814  0
C  C148  1  0.56687089  0.89293729  0.17103246  1  -0.048286  0  -0.167621  -0.158381  0  3.922285  0
C  C149  1  0.06686853  0.60706122  0.32896465  1  -0.048446  0  -0.167677  -0.158377  0  3.922307  0
C  C150  1  0.43312914  0.10706391  0.82896978  1  -0.04821  0  -0.167575  -0.15832  0  3.92239  0
C  C151  1  0.93312603  0.39293327  0.67103534  1  -0.048434  0  -0.167616  -0.158359  0  3.922213  0
C  C152  1  0.71258118  0.96390469  0.14579366  1  0.030453  0  -0.084246  -0.118375  0  3.831155  0
C  C153  1  0.21257964  0.53609497  0.35420447  1  0.030469  0  -0.084149  -0.118285  0  3.830978  0
C  C154  1  0.28741339  0.03609566  0.85420721  1  0.030503  0  -0.084297  -0.118307  0  3.831106  0
C  C155  1  0.78741629  0.46390203  0.64579483  1  0.030436  0  -0.084164  -0.118211  0  3.83083  0
C  C156  1  0.89690377  0.03828797  0.23905306  1  1.541148  0  0.211793  0.60703  0  4.111809  0
C  C157  1  0.39690848  0.46171327  0.26094720  1  1.541089  0  0.211876  0.607172  0  4.111573  0
C  C158  1  0.10309490  0.96171238  0.76094606  1  1.541093  0  0.211936  0.607293  0  4.111448  0
C  C159  1  0.60309430  0.53828708  0.73905367  1  1.541154  0  0.211958  0.607317  0  4.11144  0
C  C160  1  0.65487282  0.08398212  0.14267121  1  1.532638  0  0.209191  0.603674  0  4.131515  0
C  C161  1  0.15486883  0.41601748  0.35732707  1  1.532631  0  0.209034  0.603423  0  4.131804  0
C  C162  1  0.34512722  0.91601739  0.85732916  1  1.532675  0  0.209171  0.603606  0  4.131483  0
C  C163  1  0.84513121  0.58397952  0.64267267  1  1.532613  0  0.209054  0.60347  0  4.131678  0
N  N164  1  0.53388248  0.28349220  0.41505601  1  -1.305162  0  -0.369988  -0.242415  0  3.625276  0
N  N165  1  0.03388887  0.21651204  0.08494475  1  -1.3051  0  -0.36996  -0.242266  0  3.625365  0
N  N166  1  0.46611756  0.71651066  0.58494375  1  -1.305052  0  -0.370017  -0.242399  0  3.625328  0
N  N167  1  0.96611254  0.78348998  0.91505494  1  -1.304999  0  -0.369948  -0.242279  0  3.625372  0
N  N168  1  0.80737112  0.22936067  0.38229867  1  -1.24122  0  -0.363481  -0.287663  0  3.638866  0
N  N169  1  0.30737301  0.27064091  0.11770419  1  -1.240058  0  -0.363558  -0.287733  0  3.638703  0
N  N170  1  0.19263165  0.77063968  0.61770090  1  -1.240779  0  -0.363471  -0.287719  0  3.638877  0
N  N171  1  0.69262977  0.72935861  0.88229662  1  -1.240861  0  -0.36353  -0.287715  0  3.638863  0
N  N172  1  0.50040039  0.96682106  0.66932161  1  -1.294531  0  -0.369958  -0.24842  0  3.644795  0
N  N173  1  0.00040014  0.53317878  0.83067854  1  -1.294436  0  -0.36999  -0.248526  0  3.644755  0
N  N174  1  0.49960649  0.03317761  0.33067826  1  -1.294365  0  -0.369983  -0.248452  0  3.644778  0
N  N175  1  0.99960126  0.46682492  0.16932128  1  -1.294559  0  -0.369941  -0.248356  0  3.644693  0
N  N176  1  0.77508937  0.89193834  0.65951429  1  -1.227254  0  -0.362468  -0.28818  0  3.626086  0
N  N177  1  0.27509662  0.60805880  0.84048274  1  -1.22741  0  -0.362444  -0.288237  0  3.625978  0
N  N178  1  0.22491341  0.10805781  0.34048365  1  -1.227278  0  -0.36244  -0.288199  0  3.626213  0
N  N179  1  0.72490889  0.39194489  0.15951621  1  -1.227328  0  -0.362518  -0.288405  0  3.626291  0
O  O180  1  0.96595280  0.13735866  0.24106108  1  -1.175769  0  -0.330969  -0.562977  0  2.295417  0
O  O181  1  0.46596123  0.36264400  0.25893932  1  -1.175705  0  -0.331032  -0.563017  0  2.295347  0
O  O182  1  0.03404450  0.86264252  0.75893768  1  -1.175742  0  -0.331037  -0.563036  0  2.295214  0
O  O183  1  0.53404428  0.63735802  0.74106037  1  -1.17571  0  -0.331032  -0.563076  0  2.295245  0
O  O184  1  0.83730546  0.00157903  0.28412355  1  -1.21809  0  -0.322746  -0.572706  0  2.233607  0
O  O185  1  0.33730412  0.49842159  0.21587663  1  -1.218073  0  -0.322799  -0.572786  0  2.233449  0
O  O186  1  0.16269868  0.99842299  0.71587657  1  -1.218064  0  -0.322823  -0.572841  0  2.233446  0
O  O187  1  0.66269728  0.50157876  0.78412337  1  -1.218084  0  -0.322845  -0.572868  0  2.233475  0
O  O188  1  0.56570193  0.13588271  0.18701973  1  -1.175126  0  -0.326868  -0.544453  0  2.290127  0
O  O189  1  0.06570101  0.36411639  0.31297979  1  -1.175183  0  -0.326847  -0.544329  0  2.290198  0
O  O190  1  0.43428715  0.86411848  0.81297990  1  -1.17515  0  -0.326874  -0.544455  0  2.290233  0
O  O191  1  0.93429903  0.63587894  0.68701940  1  -1.175097  0  -0.326887  -0.544398  0  2.29022  0
O  O192  1  0.69951601  0.12950170  0.09863953  1  -1.207987  0  -0.339094  -0.59583  0  2.196308  0
O  O193  1  0.19950995  0.37050361  0.40136095  1  -1.207912  0  -0.338985  -0.595717  0  2.19644  0
O  O194  1  0.30049087  0.87050033  0.90136190  1  -1.208021  0  -0.339088  -0.595822  0  2.196252  0
O  O195  1  0.80049009  0.62949423  0.59863930  1  -1.207883  0  -0.338982  -0.595737  0  2.196391  0
