# generated using pymatgen
data_AgH11C15S(NO)3
_symmetry_space_group_name_H-M   'P 1'
_cell_length_a   7.51108180
_cell_length_b   9.77289666
_cell_length_c   10.23175227
_cell_angle_alpha   79.68293565
_cell_angle_beta   70.70119496
_cell_angle_gamma   80.23262358
_symmetry_Int_Tables_number   1
_chemical_formula_structural   AgH11C15S(NO)3
_chemical_formula_sum   'Ag2 H22 C30 S2 N6 O6'
_cell_volume   692.44521555
_cell_formula_units_Z   2
loop_
 _symmetry_equiv_pos_site_id
 _symmetry_equiv_pos_as_xyz
  1  'x, y, z'
loop_
 _atom_site_type_symbol
 _atom_site_label
 _atom_site_symmetry_multiplicity
 _atom_site_fract_x
 _atom_site_fract_y
 _atom_site_fract_z
 _atom_site_occupancy
 _atom_site_hle17_bader_spin_density
 _atom_site_hle17_ddec_charge
 _atom_site_hle17_ddec_spin_density
 _atom_site_hle17_ddec_sum_bond_order
 _atom_site_hle17_magmom
 _atom_site_hse06_10hf_bader_spin_density
 _atom_site_hse06_10hf_ddec_charge
 _atom_site_hse06_10hf_ddec_spin_density
 _atom_site_hse06_10hf_ddec_sum_bond_order
 _atom_site_hse06_10hf_magmom
 _atom_site_hse06_bader_spin_density
 _atom_site_hse06_ddec_charge
 _atom_site_hse06_ddec_spin_density
 _atom_site_hse06_ddec_sum_bond_order
 _atom_site_hse06_magmom
 _atom_site_pbe_bader_spin_density
 _atom_site_pbe_cm5_charge
 _atom_site_pbe_ddec_charge
 _atom_site_pbe_ddec_spin_density
 _atom_site_pbe_ddec_sum_bond_order
 _atom_site_pbe_magmom
Ag  Ag0  1  0.23358833  0.65662156  0.12676203  1  0  0.535447  0  1.406127  0  0  0.399678  0  1.820849  0  0  0.425003  0  1.783784  0  0  0.50042  0.382027  0  1.846089  0
Ag  Ag1  1  0.76640916  0.34338255  0.87323766  1  0  0.535428  0  1.406177  0  0  0.39968  0  1.820892  0  0  0.425008  0  1.783826  0  0  0.500434  0.382029  0  1.84613  0
H  H2  1  0.16582617  0.89003292  0.89965567  1  0  0.088119  0  0.973348  0  0  0.094174  0  1.043667  0  0  0.09642  0  1.041259  0  0  0.114935  0.092233  0  1.045982  0
H  H3  1  0.83417430  0.10997006  0.10033861  1  0  0.088127  0  0.97329  0  0  0.094161  0  1.043633  0  0  0.096406  0  1.041227  0  0  0.114925  0.09222  0  1.045949  0
H  H4  1  0.30537591  0.95377460  0.64240635  1  0  0.109774  0  0.937394  0  0  0.124223  0  0.988371  0  0  0.126984  0  0.988275  0  0  0.112354  0.122225  0  0.988624  0
H  H5  1  0.69463747  0.04622774  0.35759367  1  0  0.10975  0  0.937425  0  0  0.124234  0  0.988361  0  0  0.126994  0  0.988265  0  0  0.112361  0.122212  0  0.988647  0
H  H6  1  0.54504386  0.78121583  0.50348294  1  0  0.115157  0  0.96867  0  0  0.125768  0  1.028823  0  0  0.12916  0  1.025514  0  0  0.113297  0.123134  0  1.031489  0
H  H7  1  0.45496267  0.21878531  0.49651705  1  0  0.115124  0  0.968807  0  0  0.125747  0  1.028935  0  0  0.129156  0  1.025601  0  0  0.11331  0.123113  0  1.031601  0
H  H8  1  0.46694075  0.49296224  0.88587429  1  0  0.060586  0  1.003431  0  0  0.064564  0  1.089998  0  0  0.068967  0  1.08257  0  0  0.100855  0.061226  0  1.095412  0
H  H9  1  0.53305573  0.50703983  0.11412898  1  0  0.060505  0  1.003525  0  0  0.064499  0  1.090076  0  0  0.068899  0  1.082655  0  0  0.100843  0.061164  0  1.095486  0
H  H10  1  0.01705230  0.14690417  0.64458458  1  0  0.110982  0  0.966277  0  0  0.121305  0  1.029278  0  0  0.124273  0  1.027353  0  0  0.10131  0.119279  0  1.030677  0
H  H11  1  0.98294938  0.85309265  0.35541548  1  0  0.111005  0  0.966259  0  0  0.121314  0  1.029274  0  0  0.124284  0  1.027347  0  0  0.101328  0.119285  0  1.030681  0
H  H12  1  0.19787028  0.07182994  0.40987270  1  0  0.082708  0  0.958431  0  0  0.096725  0  1.014842  0  0  0.098318  0  1.015926  0  0  0.095102  0.095329  0  1.014771  0
H  H13  1  0.80213362  0.92817009  0.59012717  1  0  0.082727  0  0.958447  0  0  0.096739  0  1.014862  0  0  0.098333  0  1.015945  0  0  0.095112  0.095343  0  1.01479  0
H  H14  1  0.17171035  0.22085568  0.19247697  1  0  0.085386  0  0.99194  0  0  0.0965  0  1.054913  0  0  0.097812  0  1.056219  0  0  0.093321  0.09572  0  1.053676  0
H  H15  1  0.82829074  0.77914431  0.80752360  1  0  0.085375  0  0.991951  0  0  0.096493  0  1.054916  0  0  0.097803  0  1.05623  0  0  0.093318  0.095714  0  1.053675  0
H  H16  1  0.95048697  0.44037937  0.19867793  1  0  0.121784  0  0.957439  0  0  0.129987  0  1.02303  0  0  0.133505  0  1.020042  0  0  0.10434  0.127223  0  1.025384  0
H  H17  1  0.04951271  0.55962060  0.80132300  1  0  0.121784  0  0.957457  0  0  0.12998  0  1.023058  0  0  0.133496  0  1.020071  0  0  0.104331  0.127214  0  1.025411  0
H  H18  1  0.36024946  0.86149672  0.23047781  1  0  0.103829  0  0.975428  0  0  0.108786  0  1.044799  0  0  0.112796  0  1.041854  0  0  0.101055  0.105979  0  1.046853  0
H  H19  1  0.63974740  0.13850316  0.76952188  1  0  0.103833  0  0.975419  0  0  0.10877  0  1.044825  0  0  0.112779  0  1.041881  0  0  0.101047  0.105965  0  1.046875  0
H  H20  1  0.85088278  0.97546299  0.88866416  1  0  0.114174  0  0.94432  0  0  0.123856  0  1.00521  0  0  0.127161  0  1.003163  0  0  0.110783  0.121471  0  1.006886  0
H  H21  1  0.14911268  0.02453687  0.11133587  1  0  0.11419  0  0.944276  0  0  0.123875  0  1.005166  0  0  0.127178  0  1.00312  0  0  0.110797  0.121501  0  1.006818  0
H  H22  1  0.68961426  0.61138376  0.39819893  1  0  0.32377  0  0.932753  0  0  0.303978  0  0.994819  0  0  0.312386  0  0.987945  0  0  0.309767  0.297899  0  0.999949  0
H  H23  1  0.31038421  0.38861513  0.60180250  1  0  0.323751  0  0.932766  0  0  0.303961  0  0.99483  0  0  0.312367  0  0.987963  0  0  0.30976  0.297881  0  0.99996  0
C  C24  1  0.26908089  0.81688053  0.83579215  1  0  0.132249  0  3.671272  0  0  0.098156  0  3.916982  0  0  0.106584  0  3.936246  0  0  0.049791  0.092125  0  3.904293  0
C  C25  1  0.73091980  0.18312153  0.16420714  1  0  0.132322  0  3.671168  0  0  0.09825  0  3.916887  0  0  0.106676  0  3.936151  0  0  0.049875  0.092219  0  3.904195  0
C  C26  1  0.34780311  0.85103295  0.69225080  1  0  -0.105278  0  3.725454  0  0  -0.114451  0  3.973793  0  0  -0.122569  0  3.995251  0  0  -0.077668  -0.109244  0  3.959352  0
C  C27  1  0.65220182  0.14896921  0.30774939  1  0  -0.105251  0  3.725433  0  0  -0.114459  0  3.97376  0  0  -0.122575  0  3.995221  0  0  -0.077701  -0.109231  0  3.959326  0
C  C28  1  0.48084040  0.75461821  0.61567875  1  0  -0.027302  0  3.660721  0  0  -0.056944  0  3.908699  0  0  -0.050994  0  3.924043  0  0  -0.060153  -0.060634  0  3.898162  0
C  C29  1  0.51916632  0.24538186  0.38432042  1  0  -0.027274  0  3.660864  0  0  -0.056916  0  3.908836  0  0  -0.050973  0  3.924168  0  0  -0.060128  -0.060603  0  3.898292  0
C  C30  1  0.53106825  0.62303924  0.68476481  1  0  -0.049929  0  3.774664  0  0  -0.028286  0  4.008895  0  0  -0.035931  0  4.030953  0  0  0.001412  -0.023533  0  3.993452  0
C  C31  1  0.46893163  0.37695968  0.31523627  1  0  -0.049944  0  3.77458  0  0  -0.028311  0  4.008817  0  0  -0.035972  0  4.030907  0  0  0.001401  -0.023555  0  3.993382  0
C  C32  1  0.44082453  0.59564910  0.82855550  1  0  0.104144  0  3.67206  0  0  0.06754  0  3.909643  0  0  0.075357  0  3.926785  0  0  0.051213  0.063226  0  3.897329  0
C  C33  1  0.55917355  0.40435189  0.17144562  1  0  0.104216  0  3.672159  0  0  0.067604  0  3.909738  0  0  0.075424  0  3.926876  0  0  0.051224  0.063292  0  3.897429  0
C  C34  1  0.67142828  0.51830808  0.60925398  1  0  0.359944  0  3.73096  0  0  0.32346  0  3.995378  0  0  0.342449  0  4.009603  0  0  0.231069  0.310588  0  3.98588  0
C  C35  1  0.32856898  0.48168973  0.39074698  1  0  0.359984  0  3.730849  0  0  0.323505  0  3.995253  0  0  0.342498  0  4.00947  0  0  0.231064  0.310624  0  3.985771  0
C  C36  1  0.87756866  0.33407116  0.55234219  1  0  0.143713  0  3.812885  0  0  0.140147  0  4.056635  0  0  0.143719  0  4.081019  0  0  0.081623  0.137631  0  4.040508  0
C  C37  1  0.12242841  0.66592774  0.44766056  1  0  0.143653  0  3.812952  0  0  0.140057  0  4.056718  0  0  0.143628  0  4.081104  0  0  0.081565  0.137543  0  4.040589  0
C  C38  1  0.99991968  0.20831236  0.54854067  1  0  -0.152149  0  3.744459  0  0  -0.171866  0  3.997763  0  0  -0.174622  0  4.018394  0  0  -0.100604  -0.170465  0  3.985228  0
C  C39  1  0.00008180  0.79168553  0.45146021  1  0  -0.152141  0  3.744468  0  0  -0.171845  0  3.997776  0  0  -0.174602  0  4.018409  0  0  -0.100616  -0.170447  0  3.985239  0
C  C40  1  0.10168445  0.16914588  0.41738545  1  0  -0.085372  0  3.806957  0  0  -0.099607  0  4.060182  0  0  -0.103478  0  4.086576  0  0  -0.103098  -0.096522  0  4.043201  0
C  C41  1  0.89831645  0.83085516  0.58261497  1  0  -0.085356  0  3.806941  0  0  -0.099589  0  4.060167  0  0  -0.103461  0  4.086561  0  0  -0.103094  -0.096502  0  4.04318  0
C  C42  1  0.08602245  0.25292363  0.29315141  1  0  -0.076043  0  3.794424  0  0  -0.091222  0  4.045571  0  0  -0.094938  0  4.072066  0  0  -0.101763  -0.088855  0  4.02687  0
C  C43  1  0.91397884  0.74707531  0.70684932  1  0  -0.076078  0  3.794442  0  0  -0.091266  0  4.045594  0  0  -0.094982  0  4.072088  0  0  -0.101771  -0.088897  0  4.026885  0
C  C44  1  0.96416003  0.37713618  0.29490241  1  0  -0.162663  0  3.754115  0  0  -0.182087  0  4.011574  0  0  -0.18514  0  4.032083  0  0  -0.099089  -0.17946  0  3.997253  0
C  C45  1  0.03583845  0.62286274  0.70509999  1  0  -0.162641  0  3.754097  0  0  -0.182053  0  4.011533  0  0  -0.185107  0  4.032043  0  0  -0.099097  -0.179429  0  3.997208  0
C  C46  1  0.85931862  0.41503443  0.42670516  1  0  0.166942  0  3.785983  0  0  0.157161  0  4.032467  0  0  0.160911  0  4.055711  0  0  0.094265  0.15459  0  4.016556  0
C  C47  1  0.14067986  0.58496449  0.57329724  1  0  0.166901  0  3.785959  0  0  0.157142  0  4.032419  0  0  0.16089  0  4.055667  0  0  0.094253  0.154571  0  4.016505  0
C  C48  1  0.61604561  0.90638112  0.06440215  1  0  -0.106079  0  3.73717  0  0  -0.081454  0  3.98115  0  0  -0.086919  0  4.00213  0  0  -0.017781  -0.07764  0  3.966922  0
C  C49  1  0.38394965  0.09361978  0.93559774  1  0  -0.106062  0  3.737196  0  0  -0.081397  0  3.981118  0  0  -0.086862  0  4.002098  0  0  -0.017731  -0.077585  0  3.96689  0
C  C50  1  0.41942874  0.92162746  0.12899162  1  0  -0.086868  0  3.765562  0  0  -0.110283  0  4.022399  0  0  -0.109972  0  4.039278  0  0  -0.09334  -0.110335  0  4.010737  0
C  C51  1  0.58057094  0.07837249  0.87100833  1  0  -0.086905  0  3.765517  0  0  -0.110322  0  4.022356  0  0  -0.110009  0  4.039233  0  0  -0.093372  -0.110371  0  4.010688  0
C  C52  1  0.69724107  0.98472060  0.93605879  1  0  -0.062066  0  3.736574  0  0  -0.083988  0  3.98513  0  0  -0.083796  0  4.002848  0  0  -0.082635  -0.084292  0  3.973279  0
C  C53  1  0.30276021  0.01527829  0.06393999  1  0  -0.062134  0  3.736645  0  0  -0.084076  0  3.985207  0  0  -0.083881  0  4.002925  0  0  -0.082692  -0.084378  0  3.973362  0
S  S54  1  0.76425275  0.78103769  0.14360326  1  0  1.277256  0  5.688786  0  0  1.180853  0  6.211448  0  0  1.228787  0  6.186417  0  0  0.496702  1.147806  0  6.227327  0
S  S55  1  0.23574290  0.21896114  0.85639790  1  0  1.27714  0  5.688819  0  0  1.180718  0  6.211493  0  0  1.228653  0  6.186462  0  0  0.496666  1.147671  0  6.227367  0
N  N56  1  0.31611911  0.69104844  0.90268988  1  0  -0.286503  0  3.344691  0  0  -0.192181  0  3.612667  0  0  -0.212589  0  3.631072  0  0  -0.345735  -0.178036  0  3.599479  0
N  N57  1  0.68387837  0.30895564  0.09730884  1  0  -0.286556  0  3.344785  0  0  -0.192242  0  3.612777  0  0  -0.212651  0  3.631182  0  0  -0.345769  -0.178097  0  3.599593  0
N  N58  1  0.76081812  0.40223626  0.66410266  1  0  -0.454052  0  3.25767  0  0  -0.375299  0  3.550336  0  0  -0.399213  0  3.56469  0  0  -0.371368  -0.358756  0  3.540155  0
N  N59  1  0.23917934  0.59776050  0.33589846  1  0  -0.45401  0  3.257602  0  0  -0.375223  0  3.550231  0  0  -0.399135  0  3.564582  0  0  -0.371291  -0.358677  0  3.540054  0
N  N60  1  0.72819711  0.52834622  0.46714345  1  0  -0.378806  0  3.359066  0  0  -0.319501  0  3.590851  0  0  -0.338835  0  3.604916  0  0  -0.373305  -0.306614  0  3.581694  0
N  N61  1  0.27180276  0.47165267  0.53285666  1  0  -0.378823  0  3.359069  0  0  -0.319542  0  3.590867  0  0  -0.338876  0  3.604932  0  0  -0.373316  -0.30665  0  3.581713  0
O  O62  1  0.92883323  0.85141280  0.13205273  1  0  -0.682129  0  1.985821  0  0  -0.627088  0  2.256768  0  0  -0.648631  0  2.240385  0  0  -0.347212  -0.611567  0  2.267579  0
O  O63  1  0.07116243  0.14858605  0.86794940  1  0  -0.682127  0  1.985785  0  0  -0.62708  0  2.25671  0  0  -0.648624  0  2.240325  0  0  -0.34722  -0.611566  0  2.267532  0
O  O64  1  0.64320261  0.75053440  0.29001134  1  0  -0.674258  0  2.010125  0  0  -0.623611  0  2.260407  0  0  -0.643305  0  2.246232  0  0  -0.348327  -0.609773  0  2.26977  0
O  O65  1  0.35679163  0.24946439  0.70998920  1  0  -0.674166  0  2.010119  0  0  -0.623524  0  2.260429  0  0  -0.643221  0  2.246259  0  0  -0.348323  -0.609684  0  2.26979  0
O  O66  1  0.81485060  0.66019426  0.06677705  1  0  -0.646421  0  1.9003  0  0  -0.598949  0  2.14475  0  0  -0.619611  0  2.131207  0  0  -0.341517  -0.583948  0  2.153347  0
O  O67  1  0.18514687  0.33980255  0.93322601  1  0  -0.646395  0  1.900272  0  0  -0.598926  0  2.144735  0  0  -0.619588  0  2.131191  0  0  -0.341512  -0.583924  0  2.153331  0
