# generated using pymatgen
data_Zn2H19C42Br5(NO2)4
_symmetry_space_group_name_H-M   'P 1'
_cell_length_a   12.51332157
_cell_length_b   13.35943227
_cell_length_c   15.93242305
_cell_angle_alpha   89.18050755
_cell_angle_beta   105.33221656
_cell_angle_gamma   99.58638617
_symmetry_Int_Tables_number   1
_chemical_formula_structural   Zn2H19C42Br5(NO2)4
_chemical_formula_sum   'Zn2 H19 C42 Br5 N4 O8'
_cell_volume   2531.53466626
_cell_formula_units_Z   1
loop_
 _symmetry_equiv_pos_site_id
 _symmetry_equiv_pos_as_xyz
  1  'x, y, z'
loop_
 _atom_site_type_symbol
 _atom_site_label
 _atom_site_symmetry_multiplicity
 _atom_site_fract_x
 _atom_site_fract_y
 _atom_site_fract_z
 _atom_site_occupancy
 _atom_site_pbe_bader_charge
 _atom_site_pbe_bader_spin_density
 _atom_site_pbe_cm5_charge
 _atom_site_pbe_ddec_charge
 _atom_site_pbe_ddec_spin_density
 _atom_site_pbe_ddec_sum_bond_order
 _atom_site_pbe_magmom
Zn  Zn0  1  0.60980298  0.48266487  0.51488639  1  1.294127  0  0.677137  0.833898  0  2.408644  0
Zn  Zn1  1  0.38128806  0.51167477  0.47426296  1  1.296584  0  0.672634  0.835005  0  2.395586  0
H  H2  1  0.53064606  0.68772729  0.03082380  1  0.054273  0  0.102288  0.105593  0  0.985262  0
H  H3  1  0.08073630  0.70360566  0.31372785  1  0.111209  0  0.119455  0.139119  0  0.973638  0
H  H4  1  0.25330432  0.41343468  0.56697817  1  0.190847  0  0.118426  0.141136  0  1.028768  0
H  H5  1  0.33081098  0.41717400  0.01875180  1  0.060962  0  0.106149  0.119068  0  0.975375  0
H  H6  1  0.24053548  0.20598534  0.52265528  1  0.088296  0  0.103425  0.109444  0  1.009098  0
H  H7  1  0.30616848  0.88284941  0.63895350  1  0.078725  0  0.103044  0.11851  0  0.995802  0
H  H8  1  0.22111037  0.03242395  0.58407854  1  0.062287  0  0.100037  0.102647  0  0.999787  0
H  H9  1  0.27608369  0.59775036  0.90819124  1  0.401798  0  0.293871  0.288027  0  0.95464  0
H  H10  1  0.35213605  0.61798016  0.83604269  1  0.408878  0  0.282294  0.275045  0  0.992324  0
H  H11  1  0.49695569  0.25410376  0.00968965  1  0.423029  0  0.29265  0.288391  0  0.957635  0
H  H12  1  0.44144367  0.27371240  0.90437916  1  0.41223  0  0.296588  0.291704  0  0.953511  0
H  H13  1  0.55578154  0.17178104  0.48033951  1  0.072246  0  0.104136  0.110531  0  1.024069  0
H  H14  1  0.75053116  0.78387837  0.50393775  1  0.112002  0  0.106296  0.126654  0  0.990599  0
H  H15  1  0.66940260  0.08486923  0.48538103  1  0.086734  0  0.103504  0.119154  0  1.014683  0
H  H16  1  0.71993914  0.31698388  0.60372518  1  0.139061  0  0.130094  0.122707  0  0.979463  0
H  H17  1  0.10846297  0.30517592  0.62234225  1  0.094382  0  0.103823  0.110088  0  1.016428  0
H  H18  1  0.80966842  0.55551091  0.45535347  1  0.140644  0  0.108167  0.089114  0  1.074344  0
H  H19  1  0.27425015  0.66368966  0.37571095  1  0.161591  0  0.134713  0.114904  0  0.956173  0
H  H20  1  0.68952476  0.59309689  0.97647356  1  0.069188  0  0.109261  0.113665  0  0.974129  0
C  C21  1  0.56700402  0.68818654  0.53503393  1  1.632021  0  0.206023  0.586867  0  4.211837  0
C  C22  1  0.40114148  0.19748780  0.49927329  1  -0.039606  0  -0.021238  -0.033421  0  3.979326  0
C  C23  1  0.69928410  0.83760363  0.51601365  1  0.011144  0  -0.089804  -0.147018  0  3.952915  0
C  C24  1  0.49703111  0.53078577  0.33468708  1  1.693005  0  0.218502  0.673676  0  4.230388  0
C  C25  1  0.72372878  0.94088463  0.49903168  1  -0.167336  0  -0.020104  0.123165  0  4.009212  0
C  C26  1  0.65125820  0.00658412  0.50412974  1  -0.001618  0  -0.096147  -0.189384  0  3.970849  0
C  C27  1  0.55438260  0.97245573  0.53345811  1  0.028904  0  0.004661  0.065016  0  3.93169  0
C  C28  1  0.53532545  0.86987826  0.56080086  1  0.029526  0  -0.003849  0.010479  0  3.928459  0
C  C29  1  0.47315718  0.03866744  0.53364522  1  0.040912  0  -0.003935  0.025742  0  3.954038  0
C  C30  1  0.37763631  0.00153024  0.56510394  1  -0.062957  0  -0.006446  0.095914  0  4.021007  0
C  C31  1  0.37114141  0.90529978  0.60505847  1  0.063002  0  -0.102417  -0.203562  0  4.011472  0
C  C32  1  0.50696201  0.51980913  0.08200770  1  0.090878  0  0.000199  0.115426  0  3.840346  0
C  C33  1  0.44776820  0.84356718  0.60464086  1  -0.15145  0  -0.011477  0.074509  0  3.956113  0
C  C34  1  0.48319081  0.13797572  0.50263451  1  -0.019607  0  -0.078559  -0.126628  0  3.933673  0
C  C35  1  0.30442430  0.15841324  0.52686001  1  -0.042125  0  -0.086212  -0.089264  0  3.99452  0
C  C36  1  0.42090905  0.30579482  0.47368077  1  1.573468  0  0.211007  0.591067  0  4.180237  0
C  C37  1  0.60417498  0.80169917  0.54387363  1  0.031669  0  -0.010777  -0.036404  0  3.905312  0
C  C38  1  0.88945287  0.32770422  0.58992412  1  -0.098456  0  -0.007443  0.022749  0  3.946593  0
C  C39  1  0.20274257  0.62425570  0.39689039  1  0.513287  0  0.072189  0.13954  0  3.910027  0
C  C40  1  0.09509457  0.64696633  0.36340666  1  0.03736  0  -0.087243  -0.18538  0  3.987387  0
C  C41  1  0.00582153  0.59379146  0.39089531  1  -0.097421  0  0.010968  0.100769  0  3.920284  0
C  C42  1  0.02517411  0.52143425  0.45760546  1  0.021956  0  0.005371  -0.041627  0  3.893518  0
C  C43  1  0.50033111  0.40295343  0.97974615  1  0.489178  0  0.097565  0.234984  0  3.772734  0
C  C44  1  0.13810399  0.50089936  0.48477593  1  0.495353  0  0.130543  0.222057  0  3.935483  0
C  C45  1  0.94353333  0.46534205  0.49893260  1  0.026661  0  0.006132  0.013504  0  3.927595  0
C  C46  1  0.97353376  0.38365479  0.55486828  1  0.012979  0  0.007886  0.060428  0  3.988735  0
C  C47  1  0.08616648  0.36492308  0.57711825  1  -0.019894  0  -0.079531  -0.099251  0  3.974372  0
C  C48  1  0.51213606  0.46495774  0.65890937  1  1.66971  0  0.214289  0.663613  0  4.249364  0
C  C49  1  0.16590827  0.42376568  0.54598110  1  -0.027299  0  -0.062645  -0.110885  0  3.90087  0
C  C50  1  0.83674919  0.49084919  0.49170498  1  0.509706  0  0.05587  0.054073  0  3.893383  0
C  C51  1  0.78569312  0.35675163  0.57636800  1  0.546339  0  0.044019  0.033231  0  3.928094  0
C  C52  1  0.60984881  0.55495104  0.98654765  1  -0.007741  0  -0.070753  -0.094141  0  3.663416  0
C  C53  1  0.52159433  0.60673534  0.01521861  1  -0.023354  0  -0.077809  -0.151451  0  3.609142  0
C  C54  1  0.51349288  0.49064686  0.91288814  1  0.09598  0  0.004101  0.022802  0  3.790765  0
C  C55  1  0.50004868  0.53628174  0.24471326  1  -0.157227  0  -0.057025  -0.196615  0  3.991685  0
C  C56  1  0.51522902  0.46572916  0.74995606  1  0.223693  0  -0.057392  -0.204791  0  3.987968  0
C  C57  1  0.59631980  0.46853711  0.05124907  1  0.003753  0  -0.004163  0.040608  0  3.594455  0
C  C58  1  0.41051433  0.45580739  0.00866923  1  -0.050678  0  -0.081494  -0.211898  0  3.597831  0
C  C59  1  0.42298055  0.54159384  0.94262039  1  0.458885  0  0.094507  0.258886  0  3.778057  0
C  C60  1  0.50354630  0.53169509  0.16916817  1  -0.152873  0  -0.044922  -0.055456  0  4.113316  0
C  C61  1  0.51585134  0.47614327  0.82597842  1  -0.535113  0  -0.036471  -0.022613  0  4.093832  0
C  C62  1  0.29398377  0.06254981  0.56036004  1  -0.023036  0  -0.095007  -0.144115  0  3.998607  0
Br  Br63  1  0.85574048  0.98876240  0.46202382  1  -0.088862  0  -0.012972  -0.110225  0  1.314924  0
Br  Br64  1  0.44379442  0.72680266  0.67476523  1  -0.051911  0  0.031959  -0.052143  0  1.529628  0
Br  Br65  1  0.91634972  0.21255924  0.65836873  1  -0.033992  0  0.053189  -0.040278  0  1.395241  0
Br  Br66  1  0.86220663  0.61944320  0.32713440  1  0.011844  0  0.094984  0.000923  0  1.505552  0
Br  Br67  1  0.71803878  0.41559753  0.12791397  1  -0.100482  0  -0.027265  -0.122335  0  1.304768  0
N  N68  1  0.76264056  0.43953337  0.52978929  1  -1.243429  0  -0.320452  -0.172069  0  3.555024  0
N  N69  1  0.22313151  0.55103385  0.45360015  1  -1.226144  0  -0.313895  -0.245758  0  3.47257  0
N  N70  1  0.32966457  0.56885834  0.88053164  1  -1.164976  0  -0.615523  -0.654777  0  3.268355  0
N  N71  1  0.50188850  0.30108987  0.95933804  1  -1.190496  0  -0.614672  -0.651131  0  3.284564  0
O  O72  1  0.64091097  0.63163503  0.56000120  1  -1.176426  0  -0.319539  -0.539996  0  2.299265  0
O  O73  1  0.46415685  0.65971661  0.49487941  1  -1.171056  0  -0.316839  -0.558801  0  2.386762  0
O  O74  1  0.59181683  0.53424098  0.39068678  1  -1.15265  0  -0.316423  -0.548527  0  2.287376  0
O  O75  1  0.40077136  0.52116056  0.34965104  1  -1.145684  0  -0.315703  -0.542035  0  2.252315  0
O  O76  1  0.51862241  0.34219996  0.46615002  1  -1.180757  0  -0.324414  -0.563791  0  2.330622  0
O  O77  1  0.34042260  0.35582160  0.46521786  1  -1.166342  0  -0.3183  -0.545086  0  2.318158  0
O  O78  1  0.59406655  0.43843488  0.63673847  1  -1.146193  0  -0.312051  -0.533295  0  2.250517  0
O  O79  1  0.42594334  0.49364396  0.60826196  1  -1.153113  0  -0.311042  -0.560277  0  2.359414  0
