# generated using pymatgen
data_ZnPH10C9NO5
_symmetry_space_group_name_H-M   'P 1'
_cell_length_a   8.56169986
_cell_length_b   9.86823218
_cell_length_c   12.48500000
_cell_angle_alpha   90.00000000
_cell_angle_beta   90.00000000
_cell_angle_gamma   90.00000000
_symmetry_Int_Tables_number   1
_chemical_formula_structural   ZnPH10C9NO5
_chemical_formula_sum   'Zn4 P4 H40 C36 N4 O20'
_cell_volume   1054.84319324
_cell_formula_units_Z   4
loop_
 _symmetry_equiv_pos_site_id
 _symmetry_equiv_pos_as_xyz
  1  'x, y, z'
loop_
 _atom_site_type_symbol
 _atom_site_label
 _atom_site_symmetry_multiplicity
 _atom_site_fract_x
 _atom_site_fract_y
 _atom_site_fract_z
 _atom_site_occupancy
 _atom_site_hle17_bader_spin_density
 _atom_site_hle17_ddec_charge
 _atom_site_hle17_ddec_spin_density
 _atom_site_hle17_ddec_sum_bond_order
 _atom_site_hle17_magmom
 _atom_site_hse06_10hf_bader_spin_density
 _atom_site_hse06_10hf_ddec_charge
 _atom_site_hse06_10hf_ddec_spin_density
 _atom_site_hse06_10hf_ddec_sum_bond_order
 _atom_site_hse06_10hf_magmom
 _atom_site_hse06_bader_spin_density
 _atom_site_hse06_ddec_charge
 _atom_site_hse06_ddec_spin_density
 _atom_site_hse06_ddec_sum_bond_order
 _atom_site_hse06_magmom
 _atom_site_pbe_bader_charge
 _atom_site_pbe_bader_spin_density
 _atom_site_pbe_cm5_charge
 _atom_site_pbe_ddec_charge
 _atom_site_pbe_ddec_spin_density
 _atom_site_pbe_ddec_sum_bond_order
 _atom_site_pbe_magmom
Zn  Zn0  1  0.22166626  0.92349976  0.87890669  1  0  1.209615  0  1.806963  0  0  1.040046  0  2.29591  0  0  1.085724  0  2.23108  0  1.335797  0  0.702563  1.006476  0  2.34269  0
Zn  Zn1  1  0.72166627  0.07650002  0.12109331  1  0  1.209582  0  1.807  0  0  1.039997  0  2.295966  0  0  1.085674  0  2.231141  0  1.33578  0  0.702551  1.006426  0  2.342749  0
Zn  Zn2  1  0.22166626  0.42349936  0.12109251  1  0  1.20957  0  1.807009  0  0  1.039997  0  2.295972  0  0  1.08568  0  2.23114  0  1.335795  0  0.702547  1.006431  0  2.342752  0
Zn  Zn3  1  0.72166510  0.57650143  0.87890669  1  0  1.209591  0  1.806964  0  0  1.040025  0  2.295913  0  0  1.085705  0  2.231083  0  1.3358  0  0.702553  1.006454  0  2.342696  0
P  P4  1  0.07535303  0.14566844  0.02475531  1  0  1.504964  0  4.860356  0  0  1.347358  0  5.357092  0  0  1.397232  0  5.319283  0  3.356783  0  0.346606  1.311747  0  5.38328  0
P  P5  1  0.57535303  0.85433235  0.97524469  1  0  1.504811  0  4.860522  0  0  1.347187  0  5.357277  0  0  1.397061  0  5.319476  0  3.356782  0  0.346578  1.311579  0  5.383464  0
P  P6  1  0.07535303  0.64566884  0.97524389  1  0  1.504895  0  4.860488  0  0  1.347288  0  5.357224  0  0  1.397162  0  5.319417  0  3.356776  0  0.346593  1.311678  0  5.383416  0
P  P7  1  0.57535303  0.35433196  0.02475611  1  0  1.504929  0  4.860396  0  0  1.34734  0  5.35712  0  0  1.397213  0  5.319315  0  3.356781  0  0.346613  1.311728  0  5.383309  0
H  H8  1  0.12412839  0.87936419  0.08671766  1  0  0.297632  0  0.896979  0  0  0.279458  0  0.957481  0  0  0.287479  0  0.95192  0  0.528147  0  0.311834  0.273856  0  0.961426  0
H  H9  1  0.62412723  0.12063559  0.91328154  1  0  0.297635  0  0.896992  0  0  0.279471  0  0.957479  0  0  0.287492  0  0.951918  0  0.528145  0  0.311843  0.273868  0  0.961424  0
H  H10  1  0.12412722  0.37936481  0.91328154  1  0  0.297637  0  0.896983  0  0  0.279469  0  0.957476  0  0  0.28749  0  0.951915  0  0.528136  0  0.311839  0.273868  0  0.961421  0
H  H11  1  0.62412840  0.62063599  0.08671846  1  0  0.297636  0  0.89698  0  0  0.279462  0  0.957484  0  0  0.287484  0  0.951921  0  0.528153  0  0.311836  0.273861  0  0.961428  0
H  H12  1  0.05209012  0.93594575  0.20421706  1  0  0.309965  0  0.882769  0  0  0.295313  0  0.939801  0  0  0.302844  0  0.934397  0  0.533008  0  0.316314  0.289939  0  0.94362  0
H  H13  1  0.55208896  0.06405403  0.79578374  1  0  0.310005  0  0.882781  0  0  0.295357  0  0.9398  0  0  0.302888  0  0.9344  0  0.533004  0  0.316328  0.289984  0  0.943619  0
H  H14  1  0.05208896  0.43594536  0.79578294  1  0  0.31  0  0.882781  0  0  0.295354  0  0.939798  0  0  0.302885  0  0.934394  0  0.533  0  0.31633  0.289979  0  0.94362  0
H  H15  1  0.55209013  0.56405442  0.20421706  1  0  0.309973  0  0.882759  0  0  0.29532  0  0.939789  0  0  0.30285  0  0.93439  0  0.53301  0  0.316315  0.289947  0  0.943607  0
H  H16  1  0.32048659  0.07601969  0.10530957  1  0  0.145946  0  0.936909  0  0  0.156643  0  0.997987  0  0  0.159425  0  0.996867  0  0.121486  0  0.122682  0.154235  0  0.999608  0
H  H17  1  0.82048543  0.92398008  0.89468963  1  0  0.145959  0  0.936908  0  0  0.156658  0  0.99799  0  0  0.159441  0  0.996868  0  0.121503  0  0.122684  0.154247  0  0.999612  0
H  H18  1  0.32048659  0.57602009  0.89468883  1  0  0.145952  0  0.936913  0  0  0.156653  0  0.997988  0  0  0.159436  0  0.996867  0  0.121499  0  0.122681  0.154243  0  0.999611  0
H  H19  1  0.82048777  0.42397969  0.10531037  1  0  0.145972  0  0.936968  0  0  0.156674  0  0.998039  0  0  0.159458  0  0.996915  0  0.121475  0  0.122694  0.154266  0  0.999658  0
H  H20  1  0.18632982  0.13560281  0.20490749  1  0  0.137342  0  0.944096  0  0  0.147729  0  1.005083  0  0  0.150653  0  1.003896  0  0.110716  0  0.11899  0.145687  0  1.005949  0
H  H21  1  0.68632866  0.86439798  0.79509171  1  0  0.137339  0  0.944076  0  0  0.147713  0  1.005084  0  0  0.150637  0  1.003898  0  0.110662  0  0.118996  0.145672  0  1.00595  0
H  H22  1  0.18632865  0.63560219  0.79509091  1  0  0.137328  0  0.944086  0  0  0.147702  0  1.005091  0  0  0.150626  0  1.003904  0  0.111176  0  0.118989  0.145661  0  1.005958  0
H  H23  1  0.68632983  0.36439759  0.20490829  1  0  0.137346  0  0.944081  0  0  0.147719  0  1.005093  0  0  0.150644  0  1.003904  0  0.110714  0  0.118993  0.145677  0  1.00596  0
H  H24  1  0.38922411  0.87518310  0.17475931  1  0  0.096669  0  0.939098  0  0  0.109286  0  1.001034  0  0  0.111148  0  0.999523  0  0.089779  0  0.113603  0.107908  0  1.002319  0
H  H25  1  0.88922178  0.12481668  0.82524149  1  0  0.096685  0  0.939102  0  0  0.1093  0  1.001033  0  0  0.111162  0  0.999523  0  0.089787  0  0.113612  0.107923  0  1.002318  0
H  H26  1  0.38922294  0.37518270  0.82524069  1  0  0.096684  0  0.939097  0  0  0.1093  0  1.001022  0  0  0.111161  0  0.999513  0  0.089788  0  0.113612  0.107923  0  1.002306  0
H  H27  1  0.88922412  0.62481708  0.17475931  1  0  0.096675  0  0.939114  0  0  0.109286  0  1.001044  0  0  0.111148  0  0.999534  0  0.089778  0  0.1136  0.107907  0  1.002328  0
H  H28  1  0.25126786  0.74334287  0.19611133  1  0  0.109205  0  0.949891  0  0  0.119886  0  1.011851  0  0  0.122326  0  1.010043  0  0.143513  0  0.114757  0.118002  0  1.013406  0
H  H29  1  0.75126670  0.25665691  0.80388787  1  0  0.109218  0  0.949883  0  0  0.119896  0  1.011843  0  0  0.122338  0  1.010032  0  0.143598  0  0.114756  0.118012  0  1.013397  0
H  H30  1  0.25126669  0.24334247  0.80388947  1  0  0.109204  0  0.949883  0  0  0.119882  0  1.01184  0  0  0.122324  0  1.010028  0  0.143505  0  0.114756  0.117999  0  1.013394  0
H  H31  1  0.75126904  0.75665832  0.19611133  1  0  0.109197  0  0.949923  0  0  0.11987  0  1.011885  0  0  0.122311  0  1.010075  0  0.143501  0  0.114748  0.117987  0  1.013438  0
H  H32  1  0.44436853  0.04333806  0.32353865  1  0  0.10177  0  0.957735  0  0  0.110954  0  1.02042  0  0  0.114031  0  1.019441  0  0.090098  0  0.100291  0.108744  0  1.021119  0
H  H33  1  0.94436737  0.95665970  0.67646215  1  0  0.101784  0  0.957759  0  0  0.110959  0  1.020452  0  0  0.114035  0  1.019474  0  0.090072  0  0.100294  0.108747  0  1.021152  0
H  H34  1  0.44436386  0.54333845  0.67646215  1  0  0.101755  0  0.957739  0  0  0.110937  0  1.020432  0  0  0.114014  0  1.019453  0  0.090064  0  0.10028  0.108726  0  1.021133  0
H  H35  1  0.94436854  0.45666335  0.32353865  1  0  0.101764  0  0.957758  0  0  0.110951  0  1.020436  0  0  0.114027  0  1.019459  0  0.090102  0  0.100292  0.10874  0  1.021135  0
H  H36  1  0.45416332  0.07510869  0.52132799  1  0  0.091185  0  0.992938  0  0  0.098313  0  1.060944  0  0  0.100611  0  1.061135  0  0.098884  0  0.098274  0.096438  0  1.06145  0
H  H37  1  0.95416449  0.92489109  0.47867281  1  0  0.091255  0  0.992924  0  0  0.098346  0  1.060956  0  0  0.100642  0  1.06115  0  0.098823  0  0.098287  0.096471  0  1.061463  0
H  H38  1  0.45416215  0.57510909  0.47867361  1  0  0.091242  0  0.992926  0  0  0.098331  0  1.060966  0  0  0.100628  0  1.061155  0  0.098893  0  0.098285  0.096457  0  1.061471  0
H  H39  1  0.95416332  0.42489171  0.52132799  1  0  0.091204  0  0.992938  0  0  0.098298  0  1.060972  0  0  0.100596  0  1.061162  0  0.098843  0  0.098263  0.096423  0  1.061479  0
H  H40  1  0.14400295  0.73789306  0.56497717  1  0  0.099959  0  0.944263  0  0  0.109246  0  1.004693  0  0  0.112108  0  1.003655  0  0.073266  0  0.104182  0.106915  0  1.006161  0
H  H41  1  0.64400529  0.26210672  0.43502203  1  0  0.099982  0  0.944267  0  0  0.109278  0  1.004684  0  0  0.11214  0  1.003646  0  0.073274  0  0.104194  0.106947  0  1.006154  0
H  H42  1  0.14400411  0.23789266  0.43502123  1  0  0.099948  0  0.944269  0  0  0.109243  0  1.004695  0  0  0.112106  0  1.003657  0  0.073255  0  0.104172  0.106912  0  1.006165  0
H  H43  1  0.64400295  0.76210712  0.56497877  1  0  0.099959  0  0.944251  0  0  0.109252  0  1.004679  0  0  0.112115  0  1.003641  0  0.073255  0  0.104179  0.10692  0  1.00615  0
H  H44  1  0.13048227  0.70576572  0.36783901  1  0  0.093639  0  0.955638  0  0  0.104719  0  1.016555  0  0  0.10668  0  1.017541  0  0.100801  0  0.101163  0.10334  0  1.015949  0
H  H45  1  0.63048344  0.29423304  0.63216019  1  0  0.093644  0  0.955636  0  0  0.104722  0  1.016555  0  0  0.106685  0  1.017535  0  0.100916  0  0.101159  0.103343  0  1.015949  0
H  H46  1  0.13048227  0.20576431  0.63215939  1  0  0.093594  0  0.955622  0  0  0.104687  0  1.016531  0  0  0.106649  0  1.017513  0  0.100884  0  0.101174  0.103306  0  1.015931  0
H  H47  1  0.63048227  0.79423547  0.36784061  1  0  0.093632  0  0.955608  0  0  0.104723  0  1.016521  0  0  0.106687  0  1.017499  0  0.100889  0  0.101169  0.103344  0  1.015914  0
C  C48  1  0.19836014  0.07433956  0.13201201  1  0  -0.326131  0  3.519929  0  0  -0.366634  0  3.772048  0  0  -0.371437  0  3.777475  0  -0.25583  0  -0.07663  -0.362899  0  3.76824  0
C  C49  1  0.69835898  0.92566124  0.86798799  1  0  -0.326116  0  3.519994  0  0  -0.3666  0  3.772093  0  0  -0.371404  0  3.777522  0  -0.255779  0  -0.07664  -0.362862  0  3.768275  0
C  C50  1  0.19835897  0.57433894  0.86798799  1  0  -0.326109  0  3.51999  0  0  -0.366586  0  3.772075  0  0  -0.371391  0  3.777505  0  -0.256295  0  -0.076631  -0.362851  0  3.768265  0
C  C51  1  0.69836132  0.42566084  0.13201201  1  0  -0.326145  0  3.51995  0  0  -0.366652  0  3.772082  0  0  -0.371454  0  3.777508  0  -0.25582  0  -0.07664  -0.362915  0  3.76827  0
C  C52  1  0.27833842  0.84956351  0.21373328  1  0  -0.027474  0  3.531972  0  0  -0.08698  0  3.775056  0  0  -0.083284  0  3.783179  0  0.180826  0  -0.062092  -0.089466  0  3.769669  0
C  C53  1  0.77833843  0.15043627  0.78626672  1  0  -0.027544  0  3.531913  0  0  -0.08702  0  3.774995  0  0  -0.083325  0  3.783118  0  0.181004  0  -0.062109  -0.089507  0  3.769607  0
C  C54  1  0.27833842  0.34956312  0.78626672  1  0  -0.02754  0  3.53191  0  0  -0.087004  0  3.774985  0  0  -0.083306  0  3.783104  0  0.180835  0  -0.062117  -0.089492  0  3.769599  0
C  C55  1  0.77833959  0.65043768  0.21373408  1  0  -0.027506  0  3.532081  0  0  -0.086979  0  3.775115  0  0  -0.083285  0  3.783243  0  0.180841  0  -0.062082  -0.089462  0  3.769724  0
C  C56  1  0.28461638  0.87327394  0.33228594  1  0  0.07834  0  3.738294  0  0  0.095851  0  3.981206  0  0  0.097059  0  4.004249  0  -0.051097  0  -0.008839  0.095088  0  3.964984  0
C  C57  1  0.78461639  0.12672179  0.66771326  1  0  0.078417  0  3.738206  0  0  0.09588  0  3.981174  0  0  0.097083  0  4.004218  0  -0.051301  0  -0.008815  0.095116  0  3.964948  0
C  C58  1  0.28461404  0.37327354  0.66771326  1  0  0.078382  0  3.738203  0  0  0.095815  0  3.981216  0  0  0.097018  0  4.004261  0  -0.051105  0  -0.008847  0.095054  0  3.964992  0
C  C59  1  0.78461639  0.62672624  0.33228594  1  0  0.078365  0  3.738332  0  0  0.095874  0  3.981241  0  0  0.097079  0  4.004284  0  -0.051106  0  -0.008826  0.095109  0  3.965017  0
C  C60  1  0.37651051  0.97708179  0.37588947  1  0  -0.126241  0  3.729605  0  0  -0.144713  0  3.979199  0  0  -0.149465  0  4.000887  0  -0.041597  0  -0.091835  -0.140576  0  3.963684  0
C  C61  1  0.87651286  0.02291596  0.62411133  1  0  -0.126269  0  3.729552  0  0  -0.144721  0  3.979146  0  0  -0.149472  0  4.000836  0  -0.041611  0  -0.091868  -0.140585  0  3.963635  0
C  C62  1  0.37650818  0.47708140  0.62411213  1  0  -0.126265  0  3.729612  0  0  -0.14472  0  3.979227  0  0  -0.14947  0  4.000917  0  -0.041528  0  -0.091842  -0.140581  0  3.963706  0
C  C63  1  0.87651169  0.52291838  0.37588947  1  0  -0.126224  0  3.729584  0  0  -0.144699  0  3.979171  0  0  -0.14945  0  4.000858  0  -0.041592  0  -0.09183  -0.140564  0  3.963662  0
C  C64  1  0.38377776  0.99481344  0.48638366  1  0  -0.054556  0  3.745772  0  0  -0.077376  0  3.991003  0  0  -0.076647  0  4.013082  0  -0.042912  0  -0.080753  -0.078167  0  3.976844  0
C  C65  1  0.88377777  0.00518533  0.51361394  1  0  -0.054609  0  3.74578  0  0  -0.077367  0  3.991014  0  0  -0.076649  0  4.013084  0  -0.042879  0  -0.080712  -0.078159  0  3.976855  0
C  C66  1  0.38377776  0.49481406  0.51361554  1  0  -0.054546  0  3.745741  0  0  -0.077317  0  3.990959  0  0  -0.076595  0  4.013032  0  -0.042918  0  -0.080696  -0.078109  0  3.976801  0
C  C67  1  0.88377777  0.50518674  0.48638446  1  0  -0.054568  0  3.745788  0  0  -0.077357  0  3.991018  0  0  -0.076627  0  4.013096  0  -0.042875  0  -0.080745  -0.078148  0  3.976859  0
C  C68  1  0.29998832  0.90927735  0.55482980  1  0  -0.078165  0  3.770184  0  0  -0.054722  0  3.99812  0  0  -0.064359  0  4.022307  0  -0.048859  0  -0.020891  -0.048831  0  3.9823  0
C  C69  1  0.79999067  0.09072344  0.44517020  1  0  -0.078117  0  3.770209  0  0  -0.054755  0  3.998227  0  0  -0.064357  0  4.022366  0  -0.048742  0  -0.020926  -0.048864  0  3.982406  0
C  C70  1  0.29999066  0.40927695  0.44516940  1  0  -0.078206  0  3.770288  0  0  -0.054793  0  3.998244  0  0  -0.064409  0  4.022401  0  -0.048759  0  -0.020956  -0.048902  0  3.982424  0
C  C71  1  0.79998833  0.59072283  0.55482980  1  0  -0.078201  0  3.770199  0  0  -0.054767  0  3.998123  0  0  -0.064407  0  4.02231  0  -0.048864  0  -0.020913  -0.048877  0  3.982304  0
C  C72  1  0.20879382  0.80468212  0.51160673  1  0  -0.057017  0  3.73499  0  0  -0.078244  0  3.982535  0  0  -0.077141  0  4.002349  0  -0.025578  0  -0.078577  -0.079252  0  3.969576  0
C  C73  1  0.70879733  0.19531867  0.48839247  1  0  -0.05707  0  3.734957  0  0  -0.078282  0  3.982517  0  0  -0.077191  0  4.002321  0  -0.025614  0  -0.07859  -0.079289  0  3.969557  0
C  C74  1  0.20879499  0.30468375  0.48839087  1  0  -0.057066  0  3.734971  0  0  -0.078299  0  3.982528  0  0  -0.077204  0  4.002338  0  -0.025631  0  -0.078567  -0.079306  0  3.969567  0
C  C75  1  0.70879499  0.69531805  0.51160673  1  0  -0.05701  0  3.734988  0  0  -0.078243  0  3.982533  0  0  -0.07714  0  4.002348  0  -0.025549  0  -0.078574  -0.07925  0  3.969573  0
C  C76  1  0.20138641  0.78727880  0.40118702  1  0  -0.100142  0  3.715784  0  0  -0.122624  0  3.969454  0  0  -0.125951  0  3.989687  0  -0.026407  0  -0.084229  -0.119592  0  3.955305  0
C  C77  1  0.70138642  0.21271895  0.59881538  1  0  -0.100159  0  3.715724  0  0  -0.122626  0  3.969397  0  0  -0.125951  0  3.989632  0  -0.026592  0  -0.084219  -0.119594  0  3.955247  0
C  C78  1  0.20138407  0.28727841  0.59881298  1  0  -0.100005  0  3.715517  0  0  -0.122475  0  3.969213  0  0  -0.125799  0  3.989448  0  -0.026547  0  -0.084207  -0.119444  0  3.955063  0
C  C79  1  0.70138642  0.71272137  0.40118622  1  0  -0.10015  0  3.715763  0  0  -0.122651  0  3.969447  0  0  -0.125976  0  3.989679  0  -0.026499  0  -0.084247  -0.119617  0  3.955295  0
C  C80  1  0.30594859  0.93398694  0.67253504  1  0  0.646871  0  3.914691  0  0  0.600757  0  4.201639  0  0  0.635239  0  4.193617  0  1.542038  0  0.20978  0.577363  0  4.206038  0
C  C81  1  0.80595210  0.06601284  0.32746496  1  0  0.646847  0  3.914646  0  0  0.600764  0  4.201572  0  0  0.635236  0  4.193547  0  1.542037  0  0.209769  0.57737  0  4.205972  0
C  C82  1  0.30594976  0.43398655  0.32746576  1  0  0.646896  0  3.914659  0  0  0.600808  0  4.201575  0  0  0.635283  0  4.193553  0  1.542017  0  0.209797  0.577411  0  4.205979  0
C  C83  1  0.80594860  0.56601222  0.67253584  1  0  0.64683  0  3.914756  0  0  0.600746  0  4.201661  0  0  0.635228  0  4.193642  0  1.542071  0  0.209758  0.577351  0  4.206064  0
N  N84  1  0.15357231  0.93142215  0.15749620  1  0  -0.2367  0  3.308274  0  0  -0.172659  0  3.518774  0  0  -0.186083  0  3.528476  0  -1.099607  0  -0.46829  -0.163462  0  3.512113  0
N  N85  1  0.65357115  0.06857865  0.84250380  1  0  -0.236734  0  3.308355  0  0  -0.172712  0  3.518868  0  0  -0.186136  0  3.528568  0  -1.099628  0  -0.468307  -0.163517  0  3.512218  0
N  N86  1  0.15357114  0.43142175  0.84250380  1  0  -0.236752  0  3.308364  0  0  -0.172726  0  3.518863  0  0  -0.186151  0  3.528564  0  -1.099609  0  -0.468311  -0.163526  0  3.512202  0
N  N87  1  0.65357348  0.56857904  0.15749700  1  0  -0.236692  0  3.308284  0  0  -0.172654  0  3.518782  0  0  -0.186079  0  3.528483  0  -1.099619  0  -0.468298  -0.16346  0  3.512131  0
O  O88  1  0.14307790  0.10352209  0.91549700  1  0  -0.865585  0  2.006548  0  0  -0.773254  0  2.302775  0  0  -0.800848  0  2.276162  0  -1.447012  0  -0.382952  -0.752744  0  2.321423  0
O  O89  1  0.64307790  0.89647870  0.08450300  1  0  -0.865544  0  2.006591  0  0  -0.7732  0  2.302808  0  0  -0.800795  0  2.276201  0  -1.447011  0  -0.382934  -0.752692  0  2.321457  0
O  O90  1  0.14307790  0.60352248  0.08450220  1  0  -0.865576  0  2.006597  0  0  -0.773245  0  2.302815  0  0  -0.800841  0  2.276204  0  -1.446994  0  -0.382947  -0.752736  0  2.321463  0
O  O91  1  0.64307790  0.39647730  0.91549780  1  0  -0.86558  0  2.006572  0  0  -0.773254  0  2.30279  0  0  -0.80085  0  2.276181  0  -1.446996  0  -0.382939  -0.752743  0  2.321439  0
O  O92  1  0.91236905  0.08695681  0.03868322  1  0  -0.882485  0  2.086541  0  0  -0.789074  0  2.398035  0  0  -0.816862  0  2.370759  0  -1.461224  0  -0.386356  -0.76872  0  2.416853  0
O  O93  1  0.41236905  0.91304398  0.96131598  1  0  -0.882475  0  2.08659  0  0  -0.789052  0  2.398084  0  0  -0.816836  0  2.370803  0  -1.461232  0  -0.386372  -0.768698  0  2.416902  0
O  O94  1  0.91236905  0.58695721  0.96131678  1  0  -0.882489  0  2.086558  0  0  -0.789081  0  2.398045  0  0  -0.816871  0  2.370769  0  -1.461222  0  -0.386366  -0.768726  0  2.416863  0
O  O95  1  0.41236905  0.41304359  0.03868322  1  0  -0.882458  0  2.08657  0  0  -0.789055  0  2.398058  0  0  -0.816844  0  2.370785  0  -1.461229  0  -0.386367  -0.768701  0  2.416877  0
O  O96  1  0.08178166  0.30109547  0.03628114  1  0  -0.866658  0  2.035324  0  0  -0.769025  0  2.315107  0  0  -0.797695  0  2.29116  0  -1.43349  0  -0.373755  -0.748726  0  2.332742  0
O  O97  1  0.58177816  0.69890532  0.96371646  1  0  -0.866592  0  2.035329  0  0  -0.768963  0  2.315133  0  0  -0.797628  0  2.291176  0  -1.433485  0  -0.373754  -0.748665  0  2.332769  0
O  O98  1  0.08177932  0.80109485  0.96371726  1  0  -0.866624  0  2.035389  0  0  -0.76899  0  2.31518  0  0  -0.797659  0  2.291235  0  -1.433499  0  -0.373745  -0.748689  0  2.332815  0
O  O99  1  0.58178283  0.19890493  0.03628114  1  0  -0.866643  0  2.035324  0  0  -0.769013  0  2.3151  0  0  -0.797681  0  2.291156  0  -1.433471  0  -0.373765  -0.748712  0  2.332734  0
O  O100  1  0.39690483  0.02162292  0.71093793  1  0  -0.626102  0  1.970531  0  0  -0.577189  0  2.198802  0  0  -0.600783  0  2.190357  0  -1.20924  0  -0.315304  -0.560537  0  2.204133  0
O  O101  1  0.89690717  0.97837686  0.28906127  1  0  -0.626111  0  1.970509  0  0  -0.577194  0  2.19876  0  0  -0.600787  0  2.190317  0  -1.209282  0  -0.315305  -0.560544  0  2.204098  0
O  O102  1  0.39690716  0.52162230  0.28906127  1  0  -0.62614  0  1.970532  0  0  -0.577228  0  2.198784  0  0  -0.60082  0  2.190342  0  -1.209254  0  -0.31531  -0.560577  0  2.204126  0
O  O103  1  0.89690600  0.47837646  0.71093873  1  0  -0.626073  0  1.970597  0  0  -0.57718  0  2.198855  0  0  -0.600775  0  2.19041  0  -1.209265  0  -0.315293  -0.560529  0  2.204192  0
O  O104  1  0.20946308  0.86330559  0.73056147  1  0  -0.675842  0  2.044203  0  0  -0.603064  0  2.315109  0  0  -0.632004  0  2.298088  0  -1.162296  0  -0.330526  -0.582762  0  2.326485  0
O  O105  1  0.70946659  0.13669419  0.26943773  1  0  -0.675827  0  2.044207  0  0  -0.603034  0  2.315086  0  0  -0.631977  0  2.298072  0  -1.162251  0  -0.33051  -0.582733  0  2.326462  0
O  O106  1  0.20946775  0.36330621  0.26943692  1  0  -0.675789  0  2.044162  0  0  -0.603021  0  2.315071  0  0  -0.631963  0  2.298054  0  -1.162258  0  -0.330513  -0.58272  0  2.326448  0
O  O107  1  0.70946192  0.63669357  0.73056147  1  0  -0.675807  0  2.04422  0  0  -0.603025  0  2.315097  0  0  -0.631966  0  2.29808  0  -1.162307  0  -0.330493  -0.582722  0  2.326475  0
