# generated using pymatgen
data_CdH24C18(N2Cl)2
_symmetry_space_group_name_H-M   'P 1'
_cell_length_a   8.83485472
_cell_length_b   8.83493363
_cell_length_c   12.44397473
_cell_angle_alpha   74.37543327
_cell_angle_beta   74.37581924
_cell_angle_gamma   85.86119719
_symmetry_Int_Tables_number   1
_chemical_formula_structural   CdH24C18(N2Cl)2
_chemical_formula_sum   'Cd2 H48 C36 N8 Cl4'
_cell_volume   900.86088512
_cell_formula_units_Z   2
loop_
 _symmetry_equiv_pos_site_id
 _symmetry_equiv_pos_as_xyz
  1  'x, y, z'
loop_
 _atom_site_type_symbol
 _atom_site_label
 _atom_site_symmetry_multiplicity
 _atom_site_fract_x
 _atom_site_fract_y
 _atom_site_fract_z
 _atom_site_occupancy
 _atom_site_pbe_bader_spin_density
 _atom_site_pbe_cm5_charge
 _atom_site_pbe_ddec_charge
 _atom_site_pbe_ddec_spin_density
 _atom_site_pbe_ddec_sum_bond_order
 _atom_site_pbe_magmom
Cd  Cd0  1  0.87856400  0.12143629  0.74999971  1  0  0.659043  0.702195  0  2.320068  0
Cd  Cd1  1  0.12143396  0.87856126  0.24999812  1  0  0.659035  0.702156  0  2.320106  0
H  H2  1  0.03488898  0.76324332  0.71475054  1  0  0.107928  0.067032  0  0.967494  0
H  H3  1  0.23676189  0.96511983  0.78525403  1  0  0.107951  0.067033  0  0.967335  0
H  H4  1  0.96511626  0.23675665  0.28525007  1  0  0.107933  0.067033  0  0.967443  0
H  H5  1  0.76324327  0.03488122  0.21474396  1  0  0.107924  0.067018  0  0.967344  0
H  H6  1  0.17791233  0.68721975  0.92214362  1  0  0.081442  0.083364  0  1.02423  0
H  H7  1  0.31277592  0.82208726  0.57786561  1  0  0.081467  0.08345  0  1.024259  0
H  H8  1  0.82208956  0.31278507  0.07785909  1  0  0.081443  0.083399  0  1.024311  0
H  H9  1  0.68721741  0.17790811  0.42213606  1  0  0.08147  0.083484  0  1.024245  0
H  H10  1  0.05716427  0.55895683  0.89456818  1  0  0.083628  0.085382  0  1.040408  0
H  H11  1  0.44104153  0.94283294  0.60543699  1  0  0.083606  0.085387  0  1.040403  0
H  H12  1  0.94283509  0.44104092  0.10543494  1  0  0.083596  0.085357  0  1.040414  0
H  H13  1  0.55895517  0.05716685  0.39455741  1  0  0.083629  0.085402  0  1.040384  0
H  H14  1  0.33530525  0.48186844  0.83619329  1  0  0.08098  0.079499  0  1.018802  0
H  H15  1  0.51812906  0.66470087  0.66382101  1  0  0.080999  0.079418  0  1.018928  0
H  H16  1  0.66470145  0.51813411  0.16381291  1  0  0.080993  0.079434  0  1.018857  0
H  H17  1  0.48187032  0.33530152  0.33617953  1  0  0.081021  0.079467  0  1.018813  0
H  H18  1  0.25360237  0.53884111  0.71734987  1  0  0.079908  0.070478  0  1.027791  0
H  H19  1  0.46116062  0.74640075  0.78265970  1  0  0.079938  0.070462  0  1.027813  0
H  H20  1  0.74640059  0.46115550  0.28265515  1  0  0.07995  0.070479  0  1.027796  0
H  H21  1  0.53884464  0.25360617  0.21733704  1  0  0.079946  0.070477  0  1.027839  0
H  H22  1  0.83890827  0.62444645  0.92192901  1  0  0.104392  0.090458  0  0.988237  0
H  H23  1  0.37555204  0.16109109  0.57807160  1  0  0.104404  0.090498  0  0.988245  0
H  H24  1  0.16109216  0.37555579  0.07806812  1  0  0.104416  0.090525  0  0.988165  0
H  H25  1  0.62444415  0.83891284  0.42193732  1  0  0.104403  0.090551  0  0.988219  0
H  H26  1  0.76711161  0.75179764  0.80972147  1  0  0.100386  0.088953  0  1.013172  0
H  H27  1  0.24820409  0.23288852  0.69027604  1  0  0.100379  0.088996  0  1.013172  0
H  H28  1  0.23289126  0.24820697  0.19027626  1  0  0.10038  0.088976  0  1.013198  0
H  H29  1  0.75178248  0.76711535  0.30972928  1  0  0.100398  0.089007  0  1.013224  0
H  H30  1  0.51033882  0.97355678  0.18666632  1  0  0.107155  0.077875  0  1.023625  0
H  H31  1  0.02644450  0.48965514  0.31332988  1  0  0.107135  0.077863  0  1.023705  0
H  H32  1  0.48966070  0.02644459  0.81333842  1  0  0.107171  0.077845  0  1.023599  0
H  H33  1  0.97356835  0.51033714  0.68665789  1  0  0.107197  0.077895  0  1.023689  0
H  H34  1  0.76339786  0.94022240  0.04460241  1  0  0.097589  0.107975  0  1.04828  0
H  H35  1  0.05978514  0.23658868  0.45538934  1  0  0.097597  0.108034  0  1.048328  0
H  H36  1  0.23659551  0.05977996  0.95539617  1  0  0.097569  0.107957  0  1.048249  0
H  H37  1  0.94021747  0.76340526  0.54460827  1  0  0.097588  0.108008  0  1.048374  0
H  H38  1  0.51797262  0.62286297  0.94000414  1  0  0.106631  0.115143  0  1.020085  0
H  H39  1  0.37712336  0.48202991  0.56000052  1  0  0.106658  0.115165  0  1.020001  0
H  H40  1  0.48203005  0.37714028  0.05998909  1  0  0.106639  0.115208  0  1.020002  0
H  H41  1  0.62286909  0.51797040  0.44000592  1  0  0.106643  0.115139  0  1.020061  0
H  H42  1  0.27641160  0.66831124  0.08793851  1  0  0.097497  0.074801  0  1.057399  0
H  H43  1  0.33167044  0.72359407  0.41206761  1  0  0.097468  0.074843  0  1.057349  0
H  H44  1  0.72358743  0.33168733  0.91205566  1  0  0.097521  0.074827  0  1.057392  0
H  H45  1  0.66832900  0.27640838  0.58793451  1  0  0.097509  0.074886  0  1.057309  0
H  H46  1  0.96507870  0.86149035  0.92937854  1  0  0.272722  0.236934  0  1.000213  0
H  H47  1  0.13851209  0.03491532  0.57062683  1  0  0.272735  0.236953  0  1.000244  0
H  H48  1  0.03491954  0.13851440  0.07062174  1  0  0.272751  0.236958  0  1.000191  0
H  H49  1  0.86149196  0.96508581  0.42937299  1  0  0.272727  0.236919  0  1.000266  0
C  C50  1  0.07666256  0.79615267  0.78137245  1  0  -2.9e-05  0.091746  0  3.780434  0
C  C51  1  0.20384314  0.92333371  0.71863515  1  0  -1e-06  0.09187  0  3.78004  0
C  C52  1  0.92333789  0.20384497  0.21862805  1  0  -2.9e-05  0.091776  0  3.78029  0
C  C53  1  0.79615384  0.07666404  0.28136767  1  0  -2.2e-05  0.09183  0  3.780148  0
C  C54  1  0.14665545  0.65142647  0.85249971  1  0  -0.174113  -0.211459  0  3.918573  0
C  C55  1  0.34858538  0.85333666  0.64750691  1  0  -0.174185  -0.211679  0  3.918637  0
C  C56  1  0.85333943  0.34858082  0.14750396  1  0  -0.174135  -0.211576  0  3.918767  0
C  C57  1  0.65141967  0.14666081  0.35249026  1  0  -0.174204  -0.211757  0  3.918728  0
C  C58  1  0.29010904  0.58403680  0.78087639  1  0  -0.175738  -0.140465  0  3.958444  0
C  C59  1  0.41597228  0.70989673  0.71913105  1  0  -0.175714  -0.140177  0  3.958414  0
C  C60  1  0.70989523  0.41596802  0.21912663  1  0  -0.175729  -0.140253  0  3.958521  0
C  C61  1  0.58403416  0.29010671  0.28086778  1  0  -0.175739  -0.140263  0  3.958415  0
C  C62  1  0.80332646  0.74719454  0.88870868  1  0  -0.06705  -0.083292  0  3.934358  0
C  C63  1  0.25280778  0.19666896  0.61129305  1  0  -0.067031  -0.083395  0  3.934617  0
C  C64  1  0.19667050  0.25280783  0.11129076  1  0  -0.067011  -0.083346  0  3.934488  0
C  C65  1  0.74718702  0.80333131  0.38871292  1  0  -0.067028  -0.083454  0  3.934642  0
C  C66  1  0.51853218  0.89603569  0.13016563  1  0  0.039811  0.091687  0  3.965426  0
C  C67  1  0.10396769  0.48146457  0.36982581  1  0  0.039863  0.091692  0  3.965597  0
C  C68  1  0.48146608  0.10396446  0.86983803  1  0  0.03986  0.091794  0  3.965632  0
C  C69  1  0.89604176  0.51853021  0.63016456  1  0  0.039751  0.091636  0  3.965745  0
C  C70  1  0.65887880  0.87741024  0.05035479  1  0  -0.090541  -0.178475  0  3.944397  0
C  C71  1  0.12258864  0.34111298  0.44963915  1  0  -0.090506  -0.178496  0  3.944452  0
C  C72  1  0.34112398  0.12259428  0.94964057  1  0  -0.090553  -0.178492  0  3.944561  0
C  C73  1  0.87741278  0.65887982  0.55035895  1  0  -0.090497  -0.178491  0  3.944527  0
C  C74  1  0.66191164  0.77927603  0.97841416  1  0  0.013899  0.15072  0  3.930772  0
C  C75  1  0.22071501  0.33807908  0.52158633  1  0  0.013795  0.150635  0  3.930827  0
C  C76  1  0.33807815  0.22072287  0.02158590  1  0  0.01386  0.150673  0  3.930845  0
C  C77  1  0.77928321  0.66192218  0.47841549  1  0  0.013844  0.150735  0  3.930766  0
C  C78  1  0.52236130  0.70083827  0.99365974  1  0  -0.090114  -0.19606  0  3.970417  0
C  C79  1  0.29915164  0.47763465  0.50634210  1  0  -0.090083  -0.196096  0  3.970428  0
C  C80  1  0.47763662  0.29916039  0.00633625  1  0  -0.090108  -0.196176  0  3.970475  0
C  C81  1  0.70084767  0.52236190  0.49366048  1  0  -0.090057  -0.19605  0  3.9704  0
C  C82  1  0.38796724  0.72494634  0.07544233  1  0  0.033465  0.08309  0  3.988725  0
C  C83  1  0.27504023  0.61203045  0.42456140  1  0  0.033486  0.083095  0  3.988671  0
C  C84  1  0.61203203  0.27505131  0.92455841  1  0  0.033469  0.083125  0  3.988724  0
C  C85  1  0.72496253  0.38796711  0.57543783  1  0  0.03342  0.083004  0  3.988643  0
N  N86  1  0.93626789  0.85581912  0.85553242  1  0  -0.480493  -0.351603  0  3.411658  0
N  N87  1  0.14418382  0.06374323  0.64446517  1  0  -0.48048  -0.351612  0  3.41186  0
N  N88  1  0.06373722  0.14418187  0.14446400  1  0  -0.480518  -0.351607  0  3.411663  0
N  N89  1  0.85581791  0.93625912  0.35553489  1  0  -0.480487  -0.351563  0  3.411699  0
N  N90  1  0.38449766  0.82377657  0.14148498  1  0  -0.333321  -0.247069  0  3.520595  0
N  N91  1  0.17620973  0.61549931  0.35851621  1  0  -0.333378  -0.24708  0  3.520878  0
N  N92  1  0.61549800  0.17621991  0.85851516  1  0  -0.333407  -0.247152  0  3.520766  0
N  N93  1  0.82379879  0.38449689  0.64147968  1  0  -0.333374  -0.247064  0  3.520846  0
Cl  Cl94  1  0.75801827  0.99455662  0.62547211  1  0  -0.325585  -0.537877  0  1.094569  0
Cl  Cl95  1  0.00544338  0.24197581  0.87453022  1  0  -0.325586  -0.537883  0  1.094602  0
Cl  Cl96  1  0.24197273  0.00543996  0.37452979  1  0  -0.325585  -0.53787  0  1.094583  0
Cl  Cl97  1  0.99455469  0.75802416  0.12546869  1  0  -0.325578  -0.537873  0  1.094621  0
