# generated using pymatgen
data_YH13C16NO7
_symmetry_space_group_name_H-M   'P 1'
_cell_length_a   9.29761024
_cell_length_b   10.56064224
_cell_length_c   11.01764392
_cell_angle_alpha   99.02574243
_cell_angle_beta   113.29508017
_cell_angle_gamma   112.86420129
_symmetry_Int_Tables_number   1
_chemical_formula_structural   YH13C16NO7
_chemical_formula_sum   'Y2 H26 C32 N2 O14'
_cell_volume   851.68939422
_cell_formula_units_Z   2
loop_
 _symmetry_equiv_pos_site_id
 _symmetry_equiv_pos_as_xyz
  1  'x, y, z'
loop_
 _atom_site_type_symbol
 _atom_site_label
 _atom_site_symmetry_multiplicity
 _atom_site_fract_x
 _atom_site_fract_y
 _atom_site_fract_z
 _atom_site_occupancy
 _atom_site_hle17_bader_spin_density
 _atom_site_hle17_ddec_charge
 _atom_site_hle17_ddec_spin_density
 _atom_site_hle17_ddec_sum_bond_order
 _atom_site_hle17_magmom
 _atom_site_hse06_10hf_bader_spin_density
 _atom_site_hse06_10hf_ddec_charge
 _atom_site_hse06_10hf_ddec_spin_density
 _atom_site_hse06_10hf_ddec_sum_bond_order
 _atom_site_hse06_10hf_magmom
 _atom_site_hse06_bader_spin_density
 _atom_site_hse06_ddec_charge
 _atom_site_hse06_ddec_spin_density
 _atom_site_hse06_ddec_sum_bond_order
 _atom_site_hse06_magmom
 _atom_site_pbe_bader_spin_density
 _atom_site_pbe_cm5_charge
 _atom_site_pbe_ddec_charge
 _atom_site_pbe_ddec_spin_density
 _atom_site_pbe_ddec_sum_bond_order
 _atom_site_pbe_magmom
Y  Y0  1  0.69537022  0.00956956  0.97311095  1  0  2.06766  0  1.912346  0  0  1.875463  0  2.413074  0  0  1.951774  0  2.339637  0  0  1.322132  1.820311  0  2.463877  0
Y  Y1  1  0.30462940  0.99043051  0.02689098  1  0  2.067707  0  1.91224  0  0  1.875529  0  2.412904  0  0  1.951824  0  2.339486  0  0  1.322149  1.820374  0  2.463708  0
H  H2  1  0.20336286  0.64890478  0.98580870  1  0  0.102122  0  0.958815  0  0  0.108827  0  1.026242  0  0  0.112509  0  1.023455  0  0  0.112759  0.105979  0  1.028563  0
H  H3  1  0.79663605  0.35109417  0.01418920  1  0  0.102138  0  0.958793  0  0  0.108845  0  1.02622  0  0  0.112527  0  1.023434  0  0  0.11277  0.105998  0  1.028542  0
H  H4  1  0.02671085  0.39556291  0.97748166  1  0  0.098761  0  0.973647  0  0  0.106961  0  1.03893  0  0  0.110052  0  1.037569  0  0  0.106693  0.104711  0  1.040004  0
H  H5  1  0.97328573  0.60443606  0.02251638  1  0  0.098788  0  0.973669  0  0  0.106948  0  1.038994  0  0  0.110042  0  1.037624  0  0  0.106693  0.104701  0  1.040063  0
H  H6  1  0.51778172  0.39083337  0.21191494  1  0  0.102963  0  0.974865  0  0  0.107714  0  1.045459  0  0  0.111156  0  1.043733  0  0  0.106107  0.105042  0  1.046985  0
H  H7  1  0.48221235  0.60916340  0.78808284  1  0  0.102957  0  0.974848  0  0  0.107711  0  1.045436  0  0  0.111153  0  1.04371  0  0  0.106116  0.105041  0  1.04696  0
H  H8  1  0.69605728  0.64398756  0.21859774  1  0  0.099735  0  0.937633  0  0  0.110361  0  0.996538  0  0  0.114053  0  0.994634  0  0  0.104533  0.107673  0  0.998013  0
H  H9  1  0.30394215  0.35601030  0.78140380  1  0  0.099721  0  0.937635  0  0  0.110312  0  0.996578  0  0  0.114016  0  0.99466  0  0  0.104522  0.107627  0  0.99805  0
H  H10  1  0.09915609  0.38554447  0.35723118  1  0  0.108059  0  0.940282  0  0  0.117038  0  0.998361  0  0  0.121056  0  0.995859  0  0  0.106518  0.114075  0  1.00036  0
H  H11  1  0.90084719  0.61445779  0.64276957  1  0  0.108038  0  0.9403  0  0  0.11702  0  0.998376  0  0  0.121036  0  0.995875  0  0  0.106508  0.114055  0  1.000373  0
H  H12  1  0.67553504  0.37620657  0.43024088  1  0  0.10398  0  0.942604  0  0  0.113947  0  1.000557  0  0  0.117985  0  0.997804  0  0  0.108927  0.110959  0  1.002811  0
H  H13  1  0.32446823  0.62379568  0.56975896  1  0  0.104  0  0.942633  0  0  0.113969  0  1.000581  0  0  0.118006  0  0.997829  0  0  0.108942  0.11098  0  1.002838  0
H  H14  1  0.67204098  0.99544914  0.39907334  1  0  0.08891  0  0.930774  0  0  0.105119  0  0.988977  0  0  0.106218  0  0.989692  0  0  0.098291  0.104273  0  0.988601  0
H  H15  1  0.32795929  0.00455203  0.60092716  1  0  0.088926  0  0.930802  0  0  0.105136  0  0.989019  0  0  0.106236  0  0.989734  0  0  0.098294  0.104288  0  0.988639  0
H  H16  1  0.89645011  0.14052205  0.47622632  1  0  0.07589  0  0.957424  0  0  0.09073  0  1.022021  0  0  0.091426  0  1.023111  0  0  0.093729  0.090103  0  1.021528  0
H  H17  1  0.10355201  0.85948022  0.52377496  1  0  0.075916  0  0.957477  0  0  0.09078  0  1.022049  0  0  0.091478  0  1.023139  0  0  0.093744  0.090151  0  1.021559  0
H  H18  1  0.64282167  0.16545379  0.54591623  1  0  0.110527  0  0.92205  0  0  0.128157  0  0.975166  0  0  0.130241  0  0.974769  0  0  0.106032  0.126611  0  0.975625  0
H  H19  1  0.35717928  0.83454849  0.45408556  1  0  0.110566  0  0.922  0  0  0.128172  0  0.975141  0  0  0.130256  0  0.974743  0  0  0.106039  0.12663  0  0.975598  0
H  H20  1  0.87671960  0.26774167  0.66839396  1  0  0.106883  0  0.91665  0  0  0.124885  0  0.969827  0  0  0.126689  0  0.970181  0  0  0.105711  0.123625  0  0.96964  0
H  H21  1  0.12328186  0.73225950  0.33160874  1  0  0.106888  0  0.916664  0  0  0.124894  0  0.969837  0  0  0.126698  0  0.970192  0  0  0.10572  0.123634  0  0.969651  0
H  H22  1  0.01338316  0.02972961  0.63865190  1  0  0.069092  0  0.935369  0  0  0.084886  0  0.997864  0  0  0.085529  0  0.997804  0  0  0.103617  0.08432  0  0.998033  0
H  H23  1  0.98661694  0.97026935  0.36135003  1  0  0.069101  0  0.935371  0  0  0.084895  0  0.997865  0  0  0.085538  0  0.997804  0  0  0.103624  0.084328  0  0.998034  0
H  H24  1  0.81128212  0.86468823  0.50624473  1  0  0.057011  0  0.918708  0  0  0.075025  0  0.977785  0  0  0.075374  0  0.977795  0  0  0.102882  0.074603  0  0.977996  0
H  H25  1  0.18871865  0.13531183  0.49375576  1  0  0.056991  0  0.918728  0  0  0.075005  0  0.977802  0  0  0.075354  0  0.977811  0  0  0.10287  0.074582  0  0.97801  0
H  H26  1  0.80814084  0.91230627  0.74370343  1  0  0.310937  0  0.924621  0  0  0.295847  0  0.979719  0  0  0.304197  0  0.973353  0  0  0.319231  0.28992  0  0.984313  0
H  H27  1  0.19185758  0.08769379  0.25629539  1  0  0.310939  0  0.924612  0  0  0.295857  0  0.979703  0  0  0.304205  0  0.97334  0  0  0.319222  0.289933  0  0.984298  0
C  C28  1  0.46084531  0.66328340  0.10569170  1  0  -0.057068  0  3.739308  0  0  -0.036698  0  3.973488  0  0  -0.043448  0  3.995137  0  0  -0.011545  -0.032409  0  3.958855  0
C  C29  1  0.53915480  0.33671556  0.89431022  1  0  -0.056996  0  3.739279  0  0  -0.036621  0  3.973432  0  0  -0.043372  0  3.995086  0  0  -0.011508  -0.032334  0  3.958806  0
C  C30  1  0.27197430  0.59331148  0.03757358  1  0  -0.064045  0  3.719657  0  0  -0.08851  0  3.970554  0  0  -0.088746  0  3.989966  0  0  -0.078042  -0.088127  0  3.957326  0
C  C31  1  0.72802529  0.40668858  0.96242471  1  0  -0.064099  0  3.719671  0  0  -0.088571  0  3.970572  0  0  -0.088807  0  3.989985  0  0  -0.078069  -0.088188  0  3.957347  0
C  C32  1  0.17345445  0.45259436  0.03268522  1  0  -0.077023  0  3.736585  0  0  -0.09783  0  3.9801  0  0  -0.099523  0  4.000979  0  0  -0.081151  -0.096613  0  3.96596  0
C  C33  1  0.82654446  0.54740459  0.96731359  1  0  -0.076998  0  3.736665  0  0  -0.09777  0  3.980183  0  0  -0.099463  0  4.001066  0  0  -0.081147  -0.096551  0  3.966041  0
C  C34  1  0.26177279  0.37976374  0.09629641  1  0  -0.056264  0  3.738957  0  0  -0.035897  0  3.970776  0  0  -0.041961  0  3.991889  0  0  -0.011293  -0.031962  0  3.956576  0
C  C35  1  0.73822330  0.62023634  0.90370163  1  0  -0.056363  0  3.739015  0  0  -0.036002  0  3.970884  0  0  -0.04207  0  3.991996  0  0  -0.011286  -0.032065  0  3.956686  0
C  C36  1  0.45072613  0.44971252  0.16524258  1  0  -0.073474  0  3.723317  0  0  -0.098073  0  3.975631  0  0  -0.099667  0  3.996917  0  0  -0.081108  -0.096914  0  3.961489  0
C  C37  1  0.54927211  0.55028533  0.83475675  1  0  -0.073466  0  3.723311  0  0  -0.098054  0  3.975634  0  0  -0.099649  0  3.996926  0  0  -0.08111  -0.096898  0  3.961496  0
C  C38  1  0.54964497  0.59058259  0.16954259  1  0  -0.068005  0  3.728535  0  0  -0.090806  0  3.979199  0  0  -0.091965  0  4.000197  0  0  -0.077241  -0.089891  0  3.965062  0
C  C39  1  0.45035378  0.40941416  0.83045765  1  0  -0.067997  0  3.728554  0  0  -0.090768  0  3.979204  0  0  -0.091938  0  4.000202  0  0  -0.077246  -0.089855  0  3.96507  0
C  C40  1  0.56178280  0.80723104  0.09618630  1  0  0.677867  0  3.854096  0  0  0.629002  0  4.142177  0  0  0.664993  0  4.133107  0  0  0.224899  0.604526  0  4.147597  0
C  C41  1  0.43821495  0.19276793  0.90381303  1  0  0.677829  0  3.854183  0  0  0.628976  0  4.142247  0  0  0.664969  0  4.133176  0  0  0.224884  0.604497  0  4.147671  0
C  C42  1  0.15144208  0.22712696  0.08716611  1  0  0.721458  0  3.831818  0  0  0.668716  0  4.125496  0  0  0.706061  0  4.11187  0  0  0.244853  0.643338  0  4.13393  0
C  C43  1  0.84855683  0.77287199  0.91283179  1  0  0.721884  0  3.831565  0  0  0.669093  0  4.125333  0  0  0.706447  0  4.111688  0  0  0.245022  0.643715  0  4.133771  0
C  C44  1  0.87564126  0.36828304  0.38272904  1  0  -0.06499  0  3.752942  0  0  -0.044737  0  3.986556  0  0  -0.051282  0  4.008771  0  0  -0.015602  -0.040251  0  3.971294  0
C  C45  1  0.12436153  0.63172033  0.61727171  1  0  -0.064945  0  3.752813  0  0  -0.044687  0  3.986412  0  0  -0.051233  0  4.008626  0  0  -0.015595  -0.040194  0  3.971149  0
C  C46  1  0.05822096  0.43682161  0.42126670  1  0  -0.078451  0  3.743673  0  0  -0.100293  0  3.991362  0  0  -0.101328  0  4.011203  0  0  -0.083448  -0.099398  0  3.977881  0
C  C47  1  0.94178182  0.56318175  0.57873314  1  0  -0.078434  0  3.743552  0  0  -0.100277  0  3.991237  0  0  -0.101311  0  4.011077  0  0  -0.083426  -0.099382  0  3.977752  0
C  C48  1  0.81797830  0.43204343  0.46181539  1  0  -0.075373  0  3.751007  0  0  -0.098083  0  4.002365  0  0  -0.099405  0  4.022849  0  0  -0.083169  -0.097158  0  3.988433  0
C  C49  1  0.18202381  0.56795883  0.53818406  1  0  -0.075435  0  3.751049  0  0  -0.098147  0  4.002412  0  0  -0.099468  0  4.022896  0  0  -0.083189  -0.097226  0  3.988485  0
C  C50  1  0.74244173  0.22735766  0.25651473  1  0  0.694703  0  3.872412  0  0  0.644308  0  4.167701  0  0  0.680282  0  4.157839  0  0  0.231589  0.619823  0  4.173727  0
C  C51  1  0.25755321  0.77264243  0.74348474  1  0  0.69467  0  3.872351  0  0  0.644297  0  4.167603  0  0  0.68027  0  4.157743  0  0  0.231606  0.619796  0  4.173643  0
C  C52  1  0.74317061  0.06865736  0.69581325  1  0  0.610664  0  3.774809  0  0  0.567667  0  4.065716  0  0  0.597632  0  4.064902  0  0  0.256037  0.547367  0  4.065631  0
C  C53  1  0.25683278  0.93133934  0.30418399  1  0  0.610626  0  3.77473  0  0  0.567713  0  4.065529  0  0  0.597674  0  4.064711  0  0  0.256029  0.547405  0  4.065458  0
C  C54  1  0.79811416  0.06858399  0.50018873  1  0  -0.124912  0  3.633969  0  0  -0.166533  0  3.898664  0  0  -0.168027  0  3.911924  0  0  -0.158216  -0.165357  0  3.889466  0
C  C55  1  0.20188662  0.93141607  0.49981359  1  0  -0.12491  0  3.633984  0  0  -0.166579  0  3.898721  0  0  -0.168078  0  3.911985  0  0  -0.158223  -0.165403  0  3.889517  0
C  C56  1  0.76267306  0.15492237  0.60040814  1  0  -0.24682  0  3.652313  0  0  -0.285662  0  3.903267  0  0  -0.291046  0  3.912324  0  0  -0.152494  -0.281887  0  3.896937  0
C  C57  1  0.23732887  0.84507768  0.39959274  1  0  -0.246875  0  3.652272  0  0  -0.285706  0  3.903209  0  0  -0.29109  0  3.912266  0  0  -0.152529  -0.281928  0  3.896878  0
C  C58  1  0.86524642  0.97654379  0.57850072  1  0  0.057894  0  3.620063  0  0  -0.002471  0  3.889695  0  0  0.002326  0  3.901221  0  0  -0.053978  -0.005543  0  3.881737  0
C  C59  1  0.13475502  0.02345737  0.42150016  1  0  0.057871  0  3.620125  0  0  -0.002469  0  3.889766  0  0  0.002326  0  3.901292  0  0  -0.054006  -0.005532  0  3.881795  0
N  N60  1  0.79669402  0.97028613  0.67687250  1  0  -0.416215  0  3.25273  0  0  -0.354209  0  3.492395  0  0  -0.375483  0  3.499398  0  0  -0.409338  -0.339776  0  3.487462  0
N  N61  1  0.20330442  0.02971394  0.32312813  1  0  -0.416275  0  3.25252  0  0  -0.354317  0  3.492188  0  0  -0.375584  0  3.499181  0  0  -0.409342  -0.339881  0  3.487256  0
O  O62  1  0.47919882  0.87921012  0.05436199  1  0  -0.775119  0  2.187208  0  0  -0.700791  0  2.444237  0  0  -0.734218  0  2.434901  0  0  -0.401645  -0.677178  0  2.449831  0
O  O63  1  0.52080245  0.12078884  0.94563941  1  0  -0.775091  0  2.187113  0  0  -0.700786  0  2.444163  0  0  -0.734209  0  2.434813  0  0  -0.401666  -0.677168  0  2.449757  0
O  O64  1  0.72052881  0.85304262  0.11701287  1  0  -0.641478  0  1.931127  0  0  -0.591725  0  2.162859  0  0  -0.618403  0  2.154958  0  0  -0.332607  -0.573137  0  2.167857  0
O  O65  1  0.27947528  0.14695520  0.88298839  1  0  -0.641468  0  1.931328  0  0  -0.591705  0  2.163033  0  0  -0.61838  0  2.155132  0  0  -0.332567  -0.573115  0  2.16803  0
O  O66  1  0.98734949  0.18197667  0.04967356  1  0  -0.690376  0  2.053585  0  0  -0.63259  0  2.316446  0  0  -0.661375  0  2.302367  0  0  -0.366321  -0.61218  0  2.3256  0
O  O67  1  0.01264631  0.81802673  0.95032578  1  0  -0.69054  0  2.05361  0  0  -0.63274  0  2.316515  0  0  -0.661525  0  2.302429  0  0  -0.366369  -0.612332  0  2.325671  0
O  O68  1  0.22843014  0.15061233  0.12112907  1  0  -0.723164  0  2.082966  0  0  -0.659471  0  2.334479  0  0  -0.688124  0  2.320784  0  0  -0.37045  -0.639312  0  2.343273  0
O  O69  1  0.77156194  0.84938887  0.87886599  1  0  -0.72339  0  2.082826  0  0  -0.659665  0  2.334359  0  0  -0.688321  0  2.320656  0  0  -0.370551  -0.639499  0  2.343148  0
O  O70  1  0.80511119  0.16894308  0.19626695  1  0  -0.69699  0  2.054832  0  0  -0.641769  0  2.309212  0  0  -0.670755  0  2.298158  0  0  -0.372057  -0.621461  0  2.316567  0
O  O71  1  0.19488774  0.83105589  0.80373368  1  0  -0.69702  0  2.05485  0  0  -0.641804  0  2.309238  0  0  -0.670788  0  2.298184  0  0  -0.372087  -0.621489  0  2.316588  0
O  O72  1  0.57673219  0.17748612  0.21894472  1  0  -0.690015  0  2.048052  0  0  -0.633611  0  2.302667  0  0  -0.662754  0  2.292554  0  0  -0.367203  -0.612994  0  2.309114  0
O  O73  1  0.42327129  0.82251836  0.78105733  1  0  -0.689958  0  2.047896  0  0  -0.633611  0  2.302564  0  0  -0.662753  0  2.292442  0  0  -0.367225  -0.612987  0  2.30901  0
O  O74  1  0.68878550  0.08815737  0.78133981  1  0  -0.645365  0  2.02269  0  0  -0.594911  0  2.277329  0  0  -0.622059  0  2.268989  0  0  -0.347651  -0.575738  0  2.282197  0
O  O75  1  0.31121063  0.91184273  0.21866370  1  0  -0.645267  0  2.022906  0  0  -0.594862  0  2.277521  0  0  -0.622002  0  2.269182  0  0  -0.347592  -0.575683  0  2.282394  0
