# generated using pymatgen
data_AlH4C10N2O9
_symmetry_space_group_name_H-M   'P 1'
_cell_length_a   6.60664799
_cell_length_b   11.12650989
_cell_length_c   10.97416982
_cell_angle_alpha   83.93898662
_cell_angle_beta   73.57134345
_cell_angle_gamma   72.76360088
_symmetry_Int_Tables_number   1
_chemical_formula_structural   AlH4C10N2O9
_chemical_formula_sum   'Al2 H8 C20 N4 O18'
_cell_volume   738.80565639
_cell_formula_units_Z   2
loop_
 _symmetry_equiv_pos_site_id
 _symmetry_equiv_pos_as_xyz
  1  'x, y, z'
loop_
 _atom_site_type_symbol
 _atom_site_label
 _atom_site_symmetry_multiplicity
 _atom_site_fract_x
 _atom_site_fract_y
 _atom_site_fract_z
 _atom_site_occupancy
 _atom_site_pbe_bader_charge
 _atom_site_pbe_bader_spin_density
 _atom_site_pbe_cm5_charge
 _atom_site_pbe_ddec_charge
 _atom_site_pbe_ddec_spin_density
 _atom_site_pbe_ddec_sum_bond_order
 _atom_site_pbe_magmom
Al  Al0  1  0.48957566  0.50142994  0.49853499  1  2.503878  0  0.391896  1.64023  0  2.580488  0
Al  Al1  1  0.98954967  0.50541653  0.49701012  1  2.500563  0  0.394384  1.637247  0  2.570651  0
H  H2  1  0.26690631  0.35630052  0.58199086  1  0.627414  0  0.338886  0.42101  0  0.889191  0
H  H3  1  0.77158390  0.57937111  0.34898050  1  0.634026  0  0.34191  0.418555  0  0.88722  0
H  H4  1  0.81140371  0.58562429  0.88306329  1  0.122225  0  0.112197  0.120554  0  0.996656  0
H  H5  1  0.16464311  0.43067934  0.10771118  1  0.082707  0  0.107588  0.111099  0  0.994414  0
H  H6  1  0.67682270  0.59114628  0.12026469  1  0.0714  0  0.104342  0.107361  0  1.02442  0
H  H7  1  0.30161380  0.42397568  0.87023739  1  0.103728  0  0.113024  0.119103  0  0.993958  0
H  H8  1  0.23573502  0.22993401  0.30924622  1  0.123793  0  0.129984  0.147817  0  0.988921  0
H  H9  1  0.48930177  0.76537500  0.37698557  1  0.194132  0  0.130987  0.140732  0  1.036269  0
C  C10  1  0.85357115  0.27704201  0.47751637  1  1.61284  0  0.270896  0.63942  0  4.117325  0
C  C11  1  0.64266936  0.50072684  0.72329158  1  1.575149  0  0.277729  0.65111  0  4.074288  0
C  C12  1  0.13214949  0.72716402  0.52042384  1  1.602399  0  0.273237  0.636109  0  4.130856  0
C  C13  1  0.33676340  0.51130042  0.26832509  1  1.573631  0  0.271598  0.650905  0  4.072585  0
C  C14  1  0.56468673  0.50374283  0.86400134  1  -0.044244  0  -0.005356  -0.033938  0  3.952617  0
C  C15  1  0.41436753  0.51005303  0.12760877  1  0.001202  0  -0.0106  -0.040166  0  3.97434  0
C  C16  1  0.67201938  0.55060765  0.93349110  1  -0.014976  0  -0.070133  -0.077259  0  3.939664  0
C  C17  1  0.30638346  0.46392180  0.05779093  1  -0.011407  0  -0.077659  -0.085517  0  3.963285  0
C  C18  1  0.59684765  0.55365196  0.06511185  1  -0.037204  0  -0.076559  -0.08021  0  3.943946  0
C  C19  1  0.38156069  0.46045435  0.92629086  1  -0.000858  0  -0.0715  -0.074768  0  3.937997  0
C  C20  1  0.92633887  0.13521510  0.48080510  1  0.08623  0  0.017001  -0.085432  0  3.853179  0
C  C21  1  0.14094515  0.06699741  0.41186517  1  0.082622  0  0.025894  0.098164  0  3.905319  0
C  C22  1  0.78994047  0.06943088  0.56007084  1  0.188657  0  0.099353  0.024349  0  3.900755  0
C  C23  1  0.28610799  0.12854879  0.32552699  1  0.103681  0  -0.055205  -0.129113  0  3.859646  0
C  C24  1  0.49189651  0.06051393  0.26093561  1  0.213123  0  0.094095  0.04318  0  3.934376  0
C  C25  1  0.06825362  0.86900600  0.51275398  1  0.078451  0  0.025014  -0.065972  0  3.858839  0
C  C26  1  0.86200279  0.93811962  0.57844961  1  0.27641  0  0.095716  0.011893  0  3.911448  0
C  C27  1  0.21189564  0.93268457  0.42794151  1  0.031678  0  0.02093  0.085835  0  3.909482  0
C  C28  1  0.42702103  0.86589682  0.36056596  1  0.093018  0  -0.052141  -0.119461  0  3.862526  0
C  C29  1  0.56441074  0.92861835  0.28062064  1  0.241927  0  0.091296  0.030007  0  3.931696  0
N  N30  1  0.71892684  0.87318196  0.67348795  1  0.406943  0  0.065067  0.514086  0  4.226543  0
N  N31  1  0.57077041  0.14027006  0.63797869  1  0.438207  0  0.066221  0.508051  0  4.242952  0
N  N32  1  0.62771854  0.12623609  0.16240614  1  0.415158  0  0.060859  0.509954  0  4.252073  0
N  N33  1  0.79532403  0.85686588  0.22912720  1  0.405708  0  0.066903  0.524786  0  4.207752  0
O  O34  1  0.66710024  0.32928824  0.45803680  1  -1.238773  0  -0.226561  -0.571691  0  2.366048  0
O  O35  1  0.82472203  0.52475357  0.66917182  1  -1.259866  0  -0.229149  -0.579706  0  2.341361  0
O  O36  1  0.00058471  0.67789810  0.49320712  1  -1.23237  0  -0.224216  -0.56598  0  2.334844  0
O  O37  1  0.45912301  0.53563225  0.32875174  1  -1.277705  0  -0.240614  -0.613794  0  2.368817  0
O  O38  1  0.31331645  0.67146954  0.54450520  1  -1.238458  0  -0.214797  -0.540907  0  2.341237  0
O  O39  1  0.15221358  0.48890485  0.32080198  1  -1.263288  0  -0.239844  -0.607457  0  2.358254  0
O  O40  1  0.98544312  0.32981744  0.49881755  1  -1.239679  0  -0.219961  -0.564507  0  2.356835  0
O  O41  1  0.52211320  0.47257979  0.66455927  1  -1.269374  0  -0.236935  -0.606144  0  2.383391  0
O  O42  1  0.24473313  0.44239731  0.54825635  1  -1.429251  0  -0.450626  -0.992528  0  2.207971  0
O  O43  1  0.73710816  0.56121455  0.43998623  1  -1.436638  0  -0.451074  -0.990825  0  2.204918  0
O  O44  1  0.80608112  0.79869959  0.74772366  1  -0.402  0  -0.08922  -0.277305  0  1.914082  0
O  O45  1  0.52436620  0.89971645  0.67142430  1  -0.42152  0  -0.111213  -0.298771  0  1.893461  0
O  O46  1  0.41488814  0.16511148  0.58983197  1  -0.432827  0  -0.088862  -0.288291  0  1.993511  0
O  O47  1  0.56523560  0.16996971  0.74421015  1  -0.396884  0  -0.089259  -0.270176  0  1.880045  0
O  O48  1  0.65035954  0.22444111  0.19246167  1  -0.434208  0  -0.11046  -0.301361  0  1.929416  0
O  O49  1  0.70232356  0.07853172  0.05645128  1  -0.42097  0  -0.118526  -0.304361  0  1.876301  0
O  O50  1  0.83404032  0.74589549  0.20124322  1  -0.454515  0  -0.105318  -0.305902  0  1.932836  0
O  O51  1  0.93581137  0.91218149  0.22241028  1  -0.433889  0  -0.121224  -0.320014  0  1.912031  0
