# generated using pymatgen
data_ZnH12C16NO6
_symmetry_space_group_name_H-M   'P 1'
_cell_length_a   9.54145696
_cell_length_b   9.40635734
_cell_length_c   10.18325815
_cell_angle_alpha   71.20152705
_cell_angle_beta   64.87109651
_cell_angle_gamma   86.72348785
_symmetry_Int_Tables_number   1
_chemical_formula_structural   ZnH12C16NO6
_chemical_formula_sum   'Zn2 H24 C32 N2 O12'
_cell_volume   779.91881138
_cell_formula_units_Z   2
loop_
 _symmetry_equiv_pos_site_id
 _symmetry_equiv_pos_as_xyz
  1  'x, y, z'
loop_
 _atom_site_type_symbol
 _atom_site_label
 _atom_site_symmetry_multiplicity
 _atom_site_fract_x
 _atom_site_fract_y
 _atom_site_fract_z
 _atom_site_occupancy
 _atom_site_hle17_bader_spin_density
 _atom_site_hle17_ddec_charge
 _atom_site_hle17_ddec_spin_density
 _atom_site_hle17_ddec_sum_bond_order
 _atom_site_hle17_magmom
 _atom_site_hse06_10hf_bader_spin_density
 _atom_site_hse06_10hf_ddec_charge
 _atom_site_hse06_10hf_ddec_spin_density
 _atom_site_hse06_10hf_ddec_sum_bond_order
 _atom_site_hse06_10hf_magmom
 _atom_site_hse06_bader_spin_density
 _atom_site_hse06_ddec_charge
 _atom_site_hse06_ddec_spin_density
 _atom_site_hse06_ddec_sum_bond_order
 _atom_site_hse06_magmom
 _atom_site_pbe_bader_spin_density
 _atom_site_pbe_cm5_charge
 _atom_site_pbe_ddec_charge
 _atom_site_pbe_ddec_spin_density
 _atom_site_pbe_ddec_sum_bond_order
 _atom_site_pbe_magmom
Zn  Zn0  1  0.89061058  0.13053857  0.41000426  1  0  1.151003  0  1.755298  0  0  0.980546  0  2.238923  0  0  1.030961  0  2.171949  0  0  0.681468  0.943955  0  2.286202  0
Zn  Zn1  1  0.10939441  0.86945922  0.58999473  1  0  1.151028  0  1.755223  0  0  0.980561  0  2.238849  0  0  1.030978  0  2.171869  0  0  0.681423  0.943965  0  2.286111  0
H  H2  1  0.17823080  0.16394655  0.89658549  1  0  0.126045  0  0.914248  0  0  0.145445  0  0.965891  0  0  0.14774  0  0.964751  0  0  0.110531  0.143708  0  0.967005  0
H  H3  1  0.82176313  0.83605454  0.10341074  1  0  0.126086  0  0.914187  0  0  0.145475  0  0.965853  0  0  0.147771  0  0.964713  0  0  0.110545  0.143743  0  0.966964  0
H  H4  1  0.13003711  0.34041966  0.92322865  1  0  0.121786  0  0.964869  0  0  0.132605  0  1.031749  0  0  0.135987  0  1.029796  0  0  0.100632  0.129941  0  1.033716  0
H  H5  1  0.86996031  0.65958261  0.07676885  1  0  0.12183  0  0.964868  0  0  0.132658  0  1.031741  0  0  0.13604  0  1.029789  0  0  0.100655  0.129996  0  1.033707  0
H  H6  1  0.59832107  0.62290133  0.29361043  1  0  0.09786  0  0.94261  0  0  0.110749  0  0.999959  0  0  0.113516  0  0.998781  0  0  0.106223  0.108674  0  1.001171  0
H  H7  1  0.40167619  0.37709865  0.70638587  1  0  0.097862  0  0.942566  0  0  0.110731  0  0.999935  0  0  0.113492  0  0.998766  0  0  0.10621  0.108658  0  1.001142  0
H  H8  1  0.43067110  0.15969488  0.42897272  1  0  0.126191  0  0.927093  0  0  0.136228  0  0.984342  0  0  0.140482  0  0.98071  0  0  0.11479  0.132959  0  0.987213  0
H  H9  1  0.56933857  0.84030406  0.57102612  1  0  0.126253  0  0.927118  0  0  0.136279  0  0.984366  0  0  0.140536  0  0.980734  0  0  0.114783  0.133014  0  0.987242  0
H  H10  1  0.11522397  0.50608674  0.42929866  1  0  0.093293  0  0.973726  0  0  0.100092  0  1.045004  0  0  0.103541  0  1.041697  0  0  0.098842  0.097366  0  1.047569  0
H  H11  1  0.88477284  0.49389984  0.57071179  1  0  0.093213  0  0.973786  0  0  0.100016  0  1.045071  0  0  0.103464  0  1.041764  0  0  0.098809  0.097291  0  1.047637  0
H  H12  1  0.71083927  0.11709975  0.98896241  1  0  0.113308  0  0.910064  0  0  0.125542  0  0.961943  0  0  0.128586  0  0.958849  0  0  0.142009  0.123395  0  0.963962  0
H  H13  1  0.28915069  0.88290040  0.01104838  1  0  0.113382  0  0.910123  0  0  0.125549  0  0.962052  0  0  0.128627  0  0.958919  0  0  0.141998  0.123398  0  0.964067  0
H  H14  1  0.06258500  0.31594619  0.72536228  1  0  0.088895  0  0.92452  0  0  0.104611  0  0.986411  0  0  0.10461  0  0.987673  0  0  0.117755  0.105274  0  0.984112  0
H  H15  1  0.93740765  0.68405496  0.27463834  1  0  0.088888  0  0.924533  0  0  0.104582  0  0.986414  0  0  0.104573  0  0.987687  0  0  0.11774  0.105249  0  0.984114  0
H  H16  1  0.95800990  0.13677471  0.84461727  1  0  0.087422  0  0.937255  0  0  0.10013  0  1.001136  0  0  0.101181  0  1.000678  0  0  0.117445  0.099726  0  1.000919  0
H  H17  1  0.04198380  0.86322532  0.15538331  1  0  0.087434  0  0.93724  0  0  0.100112  0  1.001125  0  0  0.101161  0  1.000671  0  0  0.11745  0.09971  0  1.000902  0
H  H18  1  0.73498505  0.66258954  0.89556933  1  0  0.129123  0  0.952836  0  0  0.136641  0  1.012835  0  0  0.140557  0  1.010932  0  0  0.118293  0.133788  0  1.014415  0
H  H19  1  0.26501828  0.33741502  0.10442819  1  0  0.12907  0  0.952844  0  0  0.136565  0  1.012855  0  0  0.140487  0  1.010945  0  0  0.118255  0.13369  0  1.01446  0
H  H20  1  0.96935552  0.52864728  0.82420838  1  0  0.130613  0  0.966837  0  0  0.134486  0  1.03131  0  0  0.138672  0  1.027536  0  0  0.13642  0.131476  0  1.033891  0
H  H21  1  0.03064382  0.47135163  0.17579141  1  0  0.130624  0  0.966842  0  0  0.134482  0  1.031339  0  0  0.138674  0  1.027552  0  0  0.136434  0.131474  0  1.033924  0
H  H22  1  0.32937649  0.69827467  0.34911500  1  0  0.099716  0  0.948428  0  0  0.110967  0  1.003642  0  0  0.114345  0  1.002252  0  0  0.101882  0.108159  0  1.005415  0
H  H23  1  0.67061765  0.30171861  0.65088947  1  0  0.09972  0  0.948432  0  0  0.110977  0  1.00362  0  0  0.11436  0  1.002225  0  0  0.101882  0.108174  0  1.005391  0
H  H24  1  0.46086400  0.23334180  0.06780155  1  0  0.127189  0  0.924491  0  0  0.141074  0  0.973134  0  0  0.144292  0  0.972439  0  0  0.125087  0.138924  0  0.973742  0
H  H25  1  0.53912779  0.76666628  0.93220903  1  0  0.127202  0  0.924413  0  0  0.141003  0  0.973171  0  0  0.14422  0  0.972476  0  0  0.125044  0.138853  0  0.97378  0
C  C26  1  0.14002174  0.20622685  0.45760502  1  0  0.667274  0  3.889201  0  0  0.615179  0  4.178901  0  0  0.650789  0  4.171437  0  0  0.218379  0.59181  0  4.18136  0
C  C27  1  0.85998726  0.79376416  0.54239360  1  0  0.667147  0  3.889585  0  0  0.615032  0  4.179294  0  0  0.650649  0  4.171832  0  0  0.218297  0.591672  0  4.181734  0
C  C28  1  0.26082055  0.32126994  0.42811111  1  0  -0.094695  0  3.789671  0  0  -0.065469  0  4.022229  0  0  -0.076801  0  4.048131  0  0  -0.027205  -0.059551  0  4.004875  0
C  C29  1  0.73918415  0.67872446  0.57188807  1  0  -0.094642  0  3.789631  0  0  -0.065399  0  4.022174  0  0  -0.076734  0  4.048077  0  0  -0.027177  -0.059479  0  4.004824  0
C  C30  1  0.98590056  0.14698893  0.11122014  1  0  0.690432  0  3.879833  0  0  0.64469  0  4.185371  0  0  0.677937  0  4.178884  0  0  0.193763  0.621859  0  4.189079  0
C  C31  1  0.01409766  0.85300996  0.88877909  1  0  0.690625  0  3.879831  0  0  0.644833  0  4.185452  0  0  0.678082  0  4.178965  0  0  0.193816  0.621993  0  4.18918  0
C  C32  1  0.08040572  0.22970610  0.94080776  1  0  -0.299871  0  3.663064  0  0  -0.340953  0  3.914356  0  0  -0.347928  0  3.921598  0  0  -0.167595  -0.336088  0  3.909689  0
C  C33  1  0.91959045  0.77029621  0.05919315  1  0  -0.299968  0  3.663077  0  0  -0.341082  0  3.914417  0  0  -0.348057  0  3.921656  0  0  -0.167621  -0.336221  0  3.909755  0
C  C34  1  0.53074857  0.38645586  0.35999164  1  0  -0.066227  0  3.76385  0  0  -0.040014  0  3.998457  0  0  -0.048914  0  4.021909  0  0  -0.018014  -0.034785  0  3.983455  0
C  C35  1  0.46925549  0.61354418  0.64000701  1  0  -0.066075  0  3.763764  0  0  -0.039878  0  3.998356  0  0  -0.048776  0  4.021805  0  0  -0.017969  -0.034651  0  3.983366  0
C  C36  1  0.50271900  0.53875881  0.33269520  1  0  -0.056854  0  3.712287  0  0  -0.083082  0  3.961264  0  0  -0.08145  0  3.981062  0  0  -0.078777  -0.085143  0  3.949749  0
C  C37  1  0.49728037  0.46124008  0.66730360  1  0  -0.056846  0  3.712232  0  0  -0.083055  0  3.961212  0  0  -0.08142  0  3.981007  0  0  -0.078767  -0.085109  0  3.949693  0
C  C38  1  0.57228993  0.46178428  0.98295633  1  0  0.109227  0  3.716665  0  0  0.116208  0  3.954949  0  0  0.121504  0  3.975436  0  0  0.033107  0.113147  0  3.940898  0
C  C39  1  0.42770916  0.53822363  0.01703977  1  0  0.108991  0  3.716922  0  0  0.116009  0  3.955147  0  0  0.121296  0  3.975656  0  0  0.033072  0.112949  0  3.941097  0
C  C40  1  0.40937995  0.27808939  0.40855218  1  0  -0.064624  0  3.678019  0  0  -0.101645  0  3.921072  0  0  -0.098669  0  3.939462  0  0  -0.0761  -0.102394  0  3.909037  0
C  C41  1  0.59062714  0.72190614  0.59144672  1  0  -0.06488  0  3.678108  0  0  -0.101892  0  3.921157  0  0  -0.098923  0  3.93955  0  0  -0.076184  -0.102647  0  3.909141  0
C  C42  1  0.23168350  0.47288718  0.40956975  1  0  -0.071463  0  3.743348  0  0  -0.100886  0  3.999446  0  0  -0.098734  0  4.019528  0  0  -0.088007  -0.1021  0  3.986011  0
C  C43  1  0.76831604  0.52710274  0.59043569  1  0  -0.071338  0  3.743392  0  0  -0.100777  0  3.999502  0  0  -0.098622  0  4.019583  0  0  -0.088023  -0.101991  0  3.986071  0
C  C44  1  0.70635778  0.23734499  0.96951725  1  0  0.116228  0  3.600249  0  0  0.070308  0  3.855993  0  0  0.079449  0  3.870317  0  0  0.078349  0.064995  0  3.845693  0
C  C45  1  0.29363375  0.76265850  0.03048896  1  0  0.116001  0  3.600359  0  0  0.070183  0  3.856033  0  0  0.079295  0  3.870347  0  0  0.07835  0.064882  0  3.845723  0
C  C46  1  0.99082905  0.24625067  0.84452575  1  0  0.024178  0  3.574717  0  0  -0.043496  0  3.837037  0  0  -0.038533  0  3.84764  0  0  -0.04698  -0.046724  0  3.828205  0
C  C47  1  0.00916476  0.75375048  0.15547444  1  0  0.024126  0  3.57482  0  0  -0.043419  0  3.836978  0  0  -0.038451  0  3.847585  0  0  -0.046989  -0.046646  0  3.828141  0
C  C48  1  0.68967567  0.33848147  0.33856606  1  0  0.649917  0  3.929274  0  0  0.598246  0  4.227515  0  0  0.632473  0  4.221571  0  0  0.204054  0.575651  0  4.230264  0
C  C49  1  0.31033118  0.66152424  0.66143174  1  0  0.649732  0  3.92941  0  0  0.598096  0  4.227607  0  0  0.632322  0  4.221664  0  0  0.203985  0.575492  0  4.230368  0
C  C50  1  0.71836144  0.54188535  0.91892035  1  0  -0.116655  0  3.645453  0  0  -0.142987  0  3.905995  0  0  -0.150341  0  3.924651  0  0  -0.057804  -0.137695  0  3.892238  0
C  C51  1  0.28164079  0.45811918  0.08107563  1  0  -0.1165  0  3.645392  0  0  -0.142807  0  3.905904  0  0  -0.150169  0  3.924555  0  0  -0.057675  -0.137488  0  3.892161  0
C  C52  1  0.85301857  0.46949748  0.87754807  1  0  0.118965  0  3.526779  0  0  0.078995  0  3.774438  0  0  0.088201  0  3.787095  0  0  0.082295  0.073523  0  3.764914  0
C  C53  1  0.14697892  0.53050593  0.12245003  1  0  0.118967  0  3.526686  0  0  0.078986  0  3.774387  0  0  0.088197  0  3.787024  0  0  0.08225  0.073503  0  3.76487  0
C  C54  1  0.35246622  0.58108866  0.36189139  1  0  -0.080629  0  3.773758  0  0  -0.092841  0  4.031081  0  0  -0.097598  0  4.053337  0  0  -0.095602  -0.089393  0  4.017213  0
C  C55  1  0.64753153  0.41890574  0.63811039  1  0  -0.080666  0  3.773896  0  0  -0.092873  0  4.031196  0  0  -0.097634  0  4.053453  0  0  -0.09554  -0.089429  0  4.017333  0
C  C56  1  0.56939113  0.30495789  0.01222025  1  0  -0.128579  0  3.676509  0  0  -0.150597  0  3.93353  0  0  -0.15852  0  3.953975  0  0  -0.060631  -0.145936  0  3.920302  0
C  C57  1  0.43060669  0.69505008  0.98778025  1  0  -0.128394  0  3.676528  0  0  -0.150356  0  3.93348  0  0  -0.158279  0  3.953936  0  0  -0.060582  -0.145697  0  3.920252  0
N  N58  1  0.84547856  0.32027695  0.89899584  1  0  0.007175  0  3.514531  0  0  0.101447  0  3.724068  0  0  0.088215  0  3.74947  0  0  -0.199148  0.110513  0  3.706234  0
N  N59  1  0.15451524  0.67972421  0.10100435  1  0  0.007246  0  3.514516  0  0  0.101468  0  3.724038  0  0  0.088232  0  3.749448  0  0  -0.199129  0.11053  0  3.706215  0
O  O60  1  0.69001143  0.21014151  0.43594657  1  0  -0.652397  0  2.043265  0  0  -0.578275  0  2.30971  0  0  -0.608843  0  2.293702  0  0  -0.326247  -0.557344  0  2.320506  0
O  O61  1  0.30999765  0.78986305  0.56404977  1  0  -0.652411  0  2.043376  0  0  -0.578297  0  2.309812  0  0  -0.608861  0  2.293795  0  0  -0.326273  -0.557359  0  2.320605  0
O  O62  1  0.18467530  0.07819562  0.44791008  1  0  -0.656707  0  2.096255  0  0  -0.587706  0  2.376023  0  0  -0.613909  0  2.354691  0  0  -0.324057  -0.56956  0  2.390365  0
O  O63  1  0.81533632  0.92179760  0.55208392  1  0  -0.656542  0  2.096406  0  0  -0.58753  0  2.376168  0  0  -0.613738  0  2.354846  0  0  -0.323974  -0.569388  0  2.390505  0
O  O64  1  0.00239077  0.24436924  0.48182050  1  0  -0.64211  0  2.009145  0  0  -0.573472  0  2.276211  0  0  -0.601179  0  2.260367  0  0  -0.318059  -0.554354  0  2.285687  0
O  O65  1  0.99761818  0.75562061  0.51817653  1  0  -0.642081  0  2.00913  0  0  -0.573449  0  2.276216  0  0  -0.601145  0  2.260343  0  0  -0.317991  -0.554329  0  2.285675  0
O  O66  1  0.04911175  0.16065377  0.19811367  1  0  -0.697993  0  2.016997  0  0  -0.626441  0  2.29146  0  0  -0.656953  0  2.275596  0  0  -0.348956  -0.605306  0  2.30178  0
O  O67  1  0.95089101  0.83934517  0.80188680  1  0  -0.698118  0  2.017177  0  0  -0.626514  0  2.291637  0  0  -0.657029  0  2.275772  0  0  -0.348971  -0.605374  0  2.301957  0
O  O68  1  0.85897831  0.07342707  0.15928194  1  0  -0.623049  0  1.883133  0  0  -0.578753  0  2.10118  0  0  -0.602197  0  2.094071  0  0  -0.327105  -0.562398  0  2.105567  0
O  O69  1  0.14101894  0.92657409  0.84071793  1  0  -0.623099  0  1.883157  0  0  -0.57879  0  2.101234  0  0  -0.602235  0  2.094127  0  0  -0.32711  -0.562429  0  2.105627  0
O  O70  1  0.80768930  0.42216589  0.23274613  1  0  -0.623985  0  1.953774  0  0  -0.577574  0  2.185099  0  0  -0.602476  0  2.178726  0  0  -0.321064  -0.560087  0  2.188934  0
O  O71  1  0.19231422  0.57784094  0.76725159  1  0  -0.623869  0  1.95375  0  0  -0.577476  0  2.185063  0  0  -0.602377  0  2.178693  0  0  -0.320994  -0.559984  0  2.188897  0
