# generated using pymatgen
data_NiH18C16(NO2)4
_symmetry_space_group_name_H-M   'P 1'
_cell_length_a   7.56037786
_cell_length_b   7.85122765
_cell_length_c   8.80260089
_cell_angle_alpha   112.31793467
_cell_angle_beta   97.83094042
_cell_angle_gamma   105.65919804
_symmetry_Int_Tables_number   1
_chemical_formula_structural   NiH18C16(NO2)4
_chemical_formula_sum   'Ni1 H18 C16 N4 O8'
_cell_volume   448.39617769
_cell_formula_units_Z   1
loop_
 _symmetry_equiv_pos_site_id
 _symmetry_equiv_pos_as_xyz
  1  'x, y, z'
loop_
 _atom_site_type_symbol
 _atom_site_label
 _atom_site_symmetry_multiplicity
 _atom_site_fract_x
 _atom_site_fract_y
 _atom_site_fract_z
 _atom_site_occupancy
 _atom_site_hle17_bader_spin_density
 _atom_site_hle17_ddec_charge
 _atom_site_hle17_ddec_spin_density
 _atom_site_hle17_ddec_sum_bond_order
 _atom_site_hle17_magmom
 _atom_site_hse06_10hf_bader_spin_density
 _atom_site_hse06_10hf_ddec_charge
 _atom_site_hse06_10hf_ddec_spin_density
 _atom_site_hse06_10hf_ddec_sum_bond_order
 _atom_site_hse06_10hf_magmom
 _atom_site_hse06_bader_spin_density
 _atom_site_hse06_ddec_charge
 _atom_site_hse06_ddec_spin_density
 _atom_site_hse06_ddec_sum_bond_order
 _atom_site_hse06_magmom
 _atom_site_pbe_bader_spin_density
 _atom_site_pbe_cm5_charge
 _atom_site_pbe_ddec_charge
 _atom_site_pbe_ddec_spin_density
 _atom_site_pbe_ddec_sum_bond_order
 _atom_site_pbe_magmom
Ni  Ni0  1  0.50000235  0.00000259  0.00000023  1  0  0.665358  0  2.279108  0  0  0.621001  0  2.750437  0  0  0.693425  0  2.671152  0  0  0.627726  0.586796  0  2.796689  0
H  H1  1  0.71928894  0.73027788  0.12243384  1  0  0.409018  0  0.890048  0  0  0.385804  0  0.943171  0  0  0.395276  0  0.929132  0  0  0.285456  0.379407  0  0.952665  0
H  H2  1  0.28070942  0.26971711  0.87756401  1  0  0.409044  0  0.890012  0  0  0.385822  0  0.94315  0  0  0.395296  0  0.929107  0  0  0.28545  0.379423  0  0.952647  0
H  H3  1  0.82201523  0.78137355  0.99458058  1  0  0.401389  0  0.904606  0  0  0.374927  0  0.964604  0  0  0.384541  0  0.950466  0  0  0.279005  0.368458  0  0.974121  0
H  H4  1  0.17798678  0.21862020  0.00541742  1  0  0.401383  0  0.90465  0  0  0.374942  0  0.964599  0  0  0.384557  0  0.95046  0  0  0.278989  0.368475  0  0.974112  0
H  H5  1  0.98130594  0.00004602  0.35685028  1  0  0.338092  0  0.919109  0  0  0.318398  0  0.983988  0  0  0.327479  0  0.976279  0  0  0.298609  0.311918  0  0.989499  0
H  H6  1  0.01868892  0.99995620  0.64315612  1  0  0.338137  0  0.919138  0  0  0.318393  0  0.984088  0  0  0.327475  0  0.976376  0  0  0.298583  0.311912  0  0.989601  0
H  H7  1  0.02818438  0.16851621  0.26909087  1  0  0.351051  0  0.906775  0  0  0.329442  0  0.974489  0  0  0.337587  0  0.967878  0  0  0.303538  0.32361  0  0.979316  0
H  H8  1  0.97181985  0.83148055  0.73090840  1  0  0.351014  0  0.906795  0  0  0.329405  0  0.974507  0  0  0.337548  0  0.967898  0  0  0.30353  0.323574  0  0.979332  0
H  H9  1  0.20044211  0.53073992  0.09801825  1  0  0.116909  0  0.976205  0  0  0.124803  0  1.038152  0  0  0.129244  0  1.034437  0  0  0.108507  0.12154  0  1.041102  0
H  H10  1  0.79955456  0.46925774  0.90197563  1  0  0.116867  0  0.976185  0  0  0.1248  0  1.03808  0  0  0.129242  0  1.034365  0  0  0.108527  0.121538  0  1.041032  0
H  H11  1  0.37774144  0.57554939  0.82463313  1  0  0.112152  0  0.949787  0  0  0.116458  0  1.014895  0  0  0.119728  0  1.010616  0  0  0.129104  0.113823  0  1.018353  0
H  H12  1  0.62224853  0.42445391  0.17536946  1  0  0.112167  0  0.949827  0  0  0.116502  0  1.014865  0  0  0.119767  0  1.010597  0  0  0.129127  0.113867  0  1.01832  0
H  H13  1  0.16531750  0.43868457  0.29500340  1  0  0.102652  0  0.993391  0  0  0.113119  0  1.054151  0  0  0.116113  0  1.051284  0  0  0.111869  0.110872  0  1.05629  0
H  H14  1  0.83468181  0.56131330  0.70499321  1  0  0.10277  0  0.993491  0  0  0.11316  0  1.054345  0  0  0.116198  0  1.05141  0  0  0.111908  0.110914  0  1.056484  0
H  H15  1  0.42793373  0.03353767  0.68828287  1  0  0.100883  0  0.951354  0  0  0.106194  0  1.018462  0  0  0.10927  0  1.014389  0  0  0.126216  0.103723  0  1.021765  0
H  H16  1  0.57208601  0.96646556  0.31171504  1  0  0.100926  0  0.951326  0  0  0.106227  0  1.018454  0  0  0.109321  0  1.014331  0  0  0.126199  0.103744  0  1.02178  0
H  H17  1  0.28653288  0.79998939  0.37952019  1  0  0.112509  0  0.947209  0  0  0.122513  0  1.004932  0  0  0.125485  0  1.004736  0  0  0.110782  0.12033  0  1.005381  0
H  H18  1  0.71348276  0.20000934  0.62047799  1  0  0.112416  0  0.947114  0  0  0.122447  0  1.004813  0  0  0.125418  0  1.00462  0  0  0.110757  0.120267  0  1.005265  0
C  C19  1  0.09033981  0.56306158  0.03219022  1  0  -0.169865  0  3.668695  0  0  -0.191196  0  3.926355  0  0  -0.196391  0  3.939567  0  0  -0.086886  -0.188597  0  3.918701  0
C  C20  1  0.90967115  0.43693989  0.96781152  1  0  -0.169772  0  3.668662  0  0  -0.19111  0  3.926295  0  0  -0.196307  0  3.939511  0  0  -0.086853  -0.18851  0  3.918641  0
C  C21  1  0.15792130  0.74257788  0.00472706  1  0  0.654858  0  3.883978  0  0  0.609975  0  4.185936  0  0  0.648221  0  4.176623  0  0  0.208414  0.583867  0  4.192041  0
C  C22  1  0.84207848  0.25742142  0.99526893  1  0  0.65489  0  3.884017  0  0  0.609989  0  4.185984  0  0  0.648241  0  4.176662  0  0  0.208414  0.583881  0  4.192091  0
C  C23  1  0.25674338  0.47824086  0.55503951  1  0  -0.116962  0  3.746519  0  0  -0.088978  0  3.98198  0  0  -0.103339  0  4.006513  0  0  -0.009855  -0.079952  0  3.965758  0
C  C24  1  0.74324577  0.52175947  0.44496090  1  0  -0.117089  0  3.74654  0  0  -0.089103  0  3.981991  0  0  -0.103471  0  4.006534  0  0  -0.009896  -0.080077  0  3.965764  0
C  C25  1  0.34964884  0.61839898  0.72273040  1  0  0.124193  0  3.608585  0  0  0.084301  0  3.851976  0  0  0.096498  0  3.868092  0  0  0.059866  0.076417  0  3.842066  0
C  C26  1  0.65034454  0.38160145  0.27726612  1  0  0.124175  0  3.608602  0  0  0.084343  0  3.851953  0  0  0.096539  0  3.868065  0  0  0.059909  0.076462  0  3.842039  0
C  C27  1  0.23590850  0.54269563  0.42783570  1  0  -0.016654  0  3.682587  0  0  -0.04898  0  3.929514  0  0  -0.040501  0  3.945392  0  0  -0.063858  -0.054566  0  3.919069  0
C  C28  1  0.76409098  0.45730819  0.57216848  1  0  -0.016696  0  3.682758  0  0  -0.048993  0  3.929697  0  0  -0.040536  0  3.945564  0  0  -0.063915  -0.054578  0  3.919253  0
C  C29  1  0.17087011  0.26822291  0.52460192  1  0  0.615666  0  3.862296  0  0  0.564894  0  4.151704  0  0  0.59473  0  4.152957  0  0  0.241765  0.544997  0  4.149959  0
C  C30  1  0.82912067  0.73177909  0.47540380  1  0  0.615874  0  3.862129  0  0  0.565105  0  4.151533  0  0  0.594943  0  4.152781  0  0  0.241915  0.545207  0  4.149789  0
C  C31  1  0.38332919  0.87532475  0.64489862  1  0  0.135239  0  3.636897  0  0  0.097222  0  3.894485  0  0  0.110743  0  3.907373  0  0  0.05561  0.088293  0  3.88686  0
C  C32  1  0.61667936  0.12467632  0.35509354  1  0  0.135255  0  3.636971  0  0  0.097278  0  3.894572  0  0  0.110811  0  3.907456  0  0  0.055716  0.088355  0  3.886946  0
C  C33  1  0.30266839  0.74372032  0.47415349  1  0  -0.113282  0  3.721184  0  0  -0.123054  0  3.974978  0  0  -0.132703  0  3.994584  0  0  -0.081215  -0.117029  0  3.962109  0
C  C34  1  0.69734084  0.25628384  0.52584542  1  0  -0.113217  0  3.720982  0  0  -0.123004  0  3.97475  0  0  -0.132661  0  3.994369  0  0  -0.081207  -0.116983  0  3.961883  0
N  N35  1  0.40715827  0.81309439  0.76725808  1  0  -0.226975  0  3.344659  0  0  -0.168328  0  3.630728  0  0  -0.196625  0  3.645177  0  0  -0.331103  -0.153047  0  3.622585  0
N  N36  1  0.59284536  0.18690960  0.23274449  1  0  -0.226945  0  3.344859  0  0  -0.16844  0  3.631052  0  0  -0.196735  0  3.645484  0  0  -0.331174  -0.153159  0  3.622904  0
N  N37  1  0.06300663  0.13509675  0.36833716  1  0  -0.674057  0  3.087176  0  0  -0.633107  0  3.319187  0  0  -0.657604  0  3.314698  0  0  -0.56143  -0.61626  0  3.322031  0
N  N38  1  0.93699291  0.86490274  0.63166567  1  0  -0.674103  0  3.087268  0  0  -0.633102  0  3.319311  0  0  -0.657603  0  3.314822  0  0  -0.561402  -0.616256  0  3.322157  0
O  O39  1  0.34227852  0.82597553  0.06201269  1  0  -0.540225  0  2.186186  0  0  -0.50299  0  2.483403  0  0  -0.548189  0  2.474117  0  0  -0.294413  -0.473095  0  2.48808  0
O  O40  1  0.65772569  0.17402553  0.93798678  1  0  -0.540258  0  2.186393  0  0  -0.502988  0  2.483614  0  0  -0.548181  0  2.474318  0  0  -0.294408  -0.473099  0  2.488298  0
O  O41  1  0.04742116  0.79740841  0.92976629  1  0  -0.613479  0  2.009232  0  0  -0.558337  0  2.228642  0  0  -0.582147  0  2.217618  0  0  -0.301566  -0.542433  0  2.236316  0
O  O42  1  0.95258136  0.20258674  0.07022995  1  0  -0.613465  0  2.009094  0  0  -0.558365  0  2.228547  0  0  -0.582175  0  2.217522  0  0  -0.30158  -0.542463  0  2.236223  0
O  O43  1  0.69599128  0.74371529  0.01601827  1  0  -0.82036  0  1.802872  0  0  -0.785571  0  1.963298  0  0  -0.801452  0  1.930444  0  0  -0.599942  -0.774726  0  1.985642  0
O  O44  1  0.30400854  0.25627541  0.98397733  1  0  -0.820366  0  1.802852  0  0  -0.785606  0  1.963227  0  0  -0.801485  0  1.930366  0  0  -0.599911  -0.77476  0  1.985577  0
O  O45  1  0.19499895  0.22233660  0.64634485  1  0  -0.615493  0  1.970624  0  0  -0.558013  0  2.18827  0  0  -0.582702  0  2.182382  0  0  -0.302361  -0.540948  0  2.19183  0
O  O46  1  0.80497061  0.77767598  0.35366782  1  0  -0.615623  0  1.970503  0  0  -0.5582  0  2.188201  0  0  -0.582892  0  2.182306  0  0  -0.302518  -0.541134  0  2.191761  0
