# generated using pymatgen
data_CuH16C13S(NO)4
_symmetry_space_group_name_H-M   'P 1'
_cell_length_a   5.21454814
_cell_length_b   8.59174495
_cell_length_c   16.64341475
_cell_angle_alpha   80.35049654
_cell_angle_beta   87.54303442
_cell_angle_gamma   78.72488147
_symmetry_Int_Tables_number   1
_chemical_formula_structural   CuH16C13S(NO)4
_chemical_formula_sum   'Cu2 H32 C26 S2 N8 O8'
_cell_volume   720.88232160
_cell_formula_units_Z   2
loop_
 _symmetry_equiv_pos_site_id
 _symmetry_equiv_pos_as_xyz
  1  'x, y, z'
loop_
 _atom_site_type_symbol
 _atom_site_label
 _atom_site_symmetry_multiplicity
 _atom_site_fract_x
 _atom_site_fract_y
 _atom_site_fract_z
 _atom_site_occupancy
 _atom_site_hle17_ddec_charge
 _atom_site_hle17_ddec_spin_density
 _atom_site_hle17_ddec_sum_bond_order
 _atom_site_hle17_magmom
 _atom_site_hse06_10hf_ddec_charge
 _atom_site_hse06_10hf_ddec_spin_density
 _atom_site_hse06_10hf_ddec_sum_bond_order
 _atom_site_hse06_10hf_magmom
 _atom_site_hse06_ddec_charge
 _atom_site_hse06_ddec_spin_density
 _atom_site_hse06_ddec_sum_bond_order
 _atom_site_hse06_magmom
 _atom_site_pbe_cm5_charge
 _atom_site_pbe_ddec_charge
 _atom_site_pbe_ddec_spin_density
 _atom_site_pbe_ddec_sum_bond_order
 _atom_site_pbe_magmom
Cu  Cu0  1  0.48877331  0.34375382  0.65568253  1  0.755346  0.662561  1.904052  0.453  0.716683  0.751985  2.310796  0.559  0.797876  0.838681  2.247672  0.648  0.755645  0.670955  0.688526  2.353354  0.5
Cu  Cu1  1  0.51122535  0.65625046  0.34431586  1  0.755329  -0.66257  1.904145  -0.453  0.716772  -0.752002  2.31082  -0.559  0.797833  -0.838683  2.24776  -0.648  0.755614  0.670998  -0.688533  2.353352  -0.5
H  H2  1  0.60489702  0.74608248  0.69810219  1  0.104677  -4.4e-05  0.940407  0.0  0.114916  -2e-05  1.00022  0.0  0.117852  -2.3e-05  0.998482  0.0  0.106429  0.112834  6e-06  1.001418  0.0
H  H3  1  0.39508610  0.25389903  0.30189098  1  0.104692  4.5e-05  0.940606  0.0  0.114931  2e-05  1.0004  0.0  0.117889  2.3e-05  0.998633  0.0  0.106454  0.112852  -6e-06  1.001599  0.0
H  H4  1  0.52073356  0.78817281  0.84257811  1  0.092151  6.5e-05  0.970791  0.0  0.106533  9.6e-05  1.028204  0.0  0.10851  6.3e-05  1.029044  0.0  0.102043  0.105415  0.00012  1.027071  0.0
H  H5  1  0.47925018  0.21183025  0.15741933  1  0.092086  -6.6e-05  0.970994  0.0  0.106465  -9.5e-05  1.028397  0.0  0.108425  -6.4e-05  1.029267  0.0  0.102031  0.105349  -0.00012  1.027262  0.0
H  H6  1  0.85839284  0.65668756  0.94731544  1  0.093194  0.000541  0.953881  0.001  0.105994  0.000389  1.011125  0.0  0.108607  0.00025  1.009535  0.0  0.105096  0.103939  0.000502  1.012638  0.001
H  H7  1  0.14162154  0.34333365  0.05268083  1  0.093113  -0.000539  0.954225  -0.001  0.105958  -0.000389  1.011383  0.0  0.108568  -0.00025  1.009807  0.0  0.105073  0.103903  -0.000502  1.012896  -0.001
H  H8  1  0.25681162  0.47336416  0.90874074  1  0.097886  0.000262  0.993577  0.0  0.104194  0.000336  1.065074  0.0  0.107587  0.000144  1.063824  0.0  0.106259  0.10166  0.000566  1.066208  0.0
H  H9  1  0.74320042  0.52665218  0.09125775  1  0.097906  -0.000263  0.993455  0.0  0.104244  -0.000336  1.06495  0.0  0.107638  -0.000144  1.063697  0.0  0.106284  0.101708  -0.000565  1.066087  0.0
H  H10  1  0.78663860  0.19114987  0.04017431  1  0.124511  -4.5e-05  0.968766  0.0  0.141902  1.2e-05  1.033789  0.0  0.143657  -0.0  1.033528  0.0  0.091657  0.140693  3.6e-05  1.033965  0.0
H  H11  1  0.21332354  0.80884214  0.95983026  1  0.124543  4.5e-05  0.968812  0.0  0.141947  -1.2e-05  1.033799  0.0  0.143699  -0.0  1.033536  0.0  0.09171  0.140736  -3.6e-05  1.033981  0.0
H  H12  1  0.49955041  0.19937161  0.98143576  1  0.144621  -2e-06  0.951466  0.0  0.161232  3e-05  1.014843  0.0  0.16433  3e-06  1.012397  0.0  0.099519  0.158881  7.4e-05  1.016853  0.0
H  H13  1  0.50041979  0.80062525  0.01856774  1  0.144651  3e-06  0.951408  0.0  0.161208  -3e-05  1.014836  0.0  0.164295  -2e-06  1.012397  0.0  0.099528  0.158858  -7.4e-05  1.016845  0.0
H  H14  1  0.63943003  0.37321345  0.97731627  1  0.119475  0.000364  0.959403  0.0  0.138495  0.000284  1.027892  0.0  0.139805  0.000146  1.02785  0.0  0.094365  0.137497  0.000432  1.028105  0.0
H  H15  1  0.36053704  0.62678092  0.02269046  1  0.119494  -0.000364  0.959391  0.0  0.138521  -0.000284  1.027889  0.0  0.139824  -0.000146  1.027853  0.0  0.094412  0.137526  -0.000432  1.028099  0.0
H  H16  1  0.10305030  0.89875416  0.75910784  1  0.117751  -0.001014  0.971643  -0.001  0.137058  -0.000445  1.033091  -0.001  0.138735  -0.000389  1.034325  0.0  0.093086  0.136265  -0.000431  1.031269  0.0
H  H17  1  0.89695796  0.10124414  0.24089033  1  0.117792  0.001014  0.971695  0.001  0.137072  0.000446  1.033154  0.001  0.138747  0.000389  1.034392  0.0  0.093082  0.13628  0.000431  1.031335  0.0
H  H18  1  0.17282482  0.98646487  0.84462099  1  0.135228  0.000158  0.997658  0.0  0.153611  0.000403  1.054794  0.0  0.156982  0.000326  1.052628  0.0  0.099434  0.150845  0.000425  1.056757  0.0
H  H19  1  0.82717039  0.01352614  0.15537910  1  0.135335  -0.000158  0.997555  0.0  0.153703  -0.000403  1.054711  0.0  0.157077  -0.000326  1.052544  0.0  0.099482  0.150932  -0.000425  1.056669  0.0
H  H20  1  0.27529453  0.06079637  0.74567319  1  0.126294  -0.000704  0.944724  -0.001  0.138288  -0.00011  1.022406  0.0  0.140535  -0.000288  1.020803  0.0  0.096437  0.135915  9.4e-05  1.024632  0.0
H  H21  1  0.72468833  0.93920898  0.25432889  1  0.1263  0.000704  0.944734  0.001  0.138297  0.00011  1.022415  0.0  0.140544  0.000288  1.020809  0.0  0.096419  0.135925  -9.3e-05  1.024637  0.0
H  H22  1  0.93209526  0.94028302  0.65208688  1  0.069654  0.001838  0.967753  0.002  0.083946  0.00114  1.03328  0.001  0.083811  0.000878  1.033867  0.001  0.103451  0.083935  0.001273  1.032633  0.001
H  H23  1  0.06790609  0.05971282  0.34791276  1  0.069645  -0.001838  0.967805  -0.002  0.083935  -0.001139  1.033357  -0.001  0.083799  -0.000878  1.03395  -0.001  0.103438  0.08393  -0.001272  1.032711  -0.001
H  H24  1  0.02685327  0.12274096  0.60463658  1  0.078278  0.000362  0.916756  0.001  0.096781  0.000488  0.976328  0.001  0.095694  0.000402  0.977586  0.001  0.109528  0.096479  0.000578  0.976963  0.001
H  H25  1  0.97317602  0.87725132  0.39536546  1  0.078237  -0.000363  0.916861  -0.001  0.096713  -0.000488  0.976473  -0.001  0.095628  -0.000402  0.977725  -0.001  0.109513  0.09641  -0.000578  0.977107  -0.001
H  H26  1  0.74130664  0.04382962  0.51215278  1  0.067495  0.003096  0.924078  0.004  0.086143  0.001884  0.983444  0.003  0.086196  0.001416  0.983607  0.002  0.105891  0.086001  0.00208  0.983272  0.003
H  H27  1  0.25870854  0.95617715  0.48784403  1  0.067388  -0.003096  0.924367  -0.004  0.086069  -0.001883  0.983653  -0.003  0.08612  -0.001416  0.98382  -0.002  0.105876  0.085959  -0.002079  0.983443  -0.003
H  H28  1  0.50443951  0.01792811  0.59055862  1  0.055361  6.7e-05  0.923228  0.0  0.074708  6e-06  0.985554  0.0  0.074678  -1.6e-05  0.985531  0.0  0.104172  0.074641  6.9e-05  0.985572  0.0
H  H29  1  0.49558601  0.98207025  0.40943937  1  0.055347  -6.7e-05  0.923226  0.0  0.074695  -5e-06  0.98556  0.0  0.074664  1.6e-05  0.985539  0.0  0.104141  0.074624  -6.9e-05  0.98559  0.0
H  H30  1  0.35380745  0.27382168  0.51820639  1  0.307411  0.000318  0.915268  0.0  0.296667  0.000996  0.974065  0.001  0.303981  0.000804  0.96963  0.0  0.290998  0.291425  0.001092  0.977675  0.001
H  H31  1  0.64619735  0.72617538  0.48179311  1  0.307442  -0.000318  0.915209  0.0  0.296642  -0.000996  0.974074  -0.001  0.303958  -0.000804  0.969633  0.0  0.291018  0.291398  -0.001092  0.977682  -0.001
H  H32  1  0.63982721  0.32500211  0.51142810  1  0.312546  -0.001221  0.899665  -0.002  0.304158  -0.000479  0.95124  -0.001  0.311352  -0.00053  0.947102  -0.001  0.293962  0.299035  -0.000452  0.954604  0.0
H  H33  1  0.36017821  0.67500445  0.48857665  1  0.312588  0.001221  0.899611  0.002  0.304196  0.000479  0.951203  0.001  0.31139  0.00053  0.947061  0.001  0.293988  0.29907  0.000452  0.954568  0.0
C  C34  1  0.97456502  0.58772742  0.72317567  1  -0.221539  -0.00155  3.71478  -0.002  -0.205588  -0.000519  3.976802  0.0  -0.218319  -0.000414  4.000133  0.0  -0.029228  -0.196989  -0.000525  3.959257  0.0
C  C35  1  0.02541901  0.41227434  0.27682609  1  -0.221487  0.001576  3.714664  0.002  -0.205533  0.000519  3.976669  0.0  -0.218267  0.000414  4.000024  0.0  -0.029184  -0.196956  0.000525  3.959136  0.0
C  C36  1  0.74545193  0.68707243  0.74555815  1  -0.055401  -0.000209  3.769531  0.0  -0.085534  -0.000134  4.033387  0.0  -0.083345  -0.000229  4.054557  0.0  -0.090373  -0.086481  -1.3e-05  4.018356  0.0
C  C37  1  0.25458038  0.31291018  0.25444703  1  -0.055567  0.000181  3.768831  0.0  -0.0857  0.000133  4.032682  0.0  -0.08351  0.000228  4.053807  0.0  -0.090467  -0.086657  1.3e-05  4.017679  0.0
C  C38  1  0.69900231  0.71065595  0.82591063  1  -0.068384  0.000629  3.741604  0.001  -0.084552  0.000421  3.993017  0.0  -0.089555  0.000337  4.015632  0.0  -0.09326  -0.081107  0.000455  3.977244  0.0
C  C39  1  0.30099305  0.28933521  0.17408284  1  -0.068147  -0.000599  3.741213  -0.001  -0.084303  -0.000422  3.992614  0.0  -0.089301  -0.000334  4.01524  0.0  -0.093197  -0.08086  -0.000455  3.976845  0.0
C  C40  1  0.88690613  0.63513660  0.88450145  1  -0.044666  -0.000369  3.759429  -0.001  -0.054307  0.000168  4.002045  0.0  -0.052417  5.9e-05  4.021599  0.0  -0.08456  -0.055499  0.000271  3.989164  0.0
C  C41  1  0.11309379  0.36487623  0.11549083  1  -0.044661  0.000337  3.759583  0.0  -0.054293  -0.000167  4.002166  0.0  -0.052398  -6.1e-05  4.021694  0.0  -0.084512  -0.055486  -0.000271  3.989289  0.0
C  C42  1  0.11206396  0.53421411  0.86322624  1  -0.139796  0.005111  3.724552  0.005  -0.160692  0.003123  3.974953  0.003  -0.166917  0.002347  3.995653  0.003  -0.088286  -0.156725  0.003731  3.960365  0.004
C  C43  1  0.88795869  0.46579852  0.13677844  1  -0.139748  -0.005075  3.724895  -0.005  -0.160741  -0.003124  3.975379  -0.003  -0.166966  -0.002345  3.996088  -0.003  -0.088273  -0.156782  -0.00373  3.960774  -0.004
C  C44  1  0.16068262  0.50409485  0.78263973  1  0.196648  0.013418  3.756421  0.014  0.19049  0.009068  4.01333  0.01  0.201199  0.006302  4.037177  0.007  0.092017  0.184256  0.011067  3.996336  0.012
C  C45  1  0.83933677  0.49590469  0.21735822  1  0.196459  -0.013443  3.757171  -0.015  0.190343  -0.009069  4.01409  -0.01  0.20104  -0.006303  4.037951  -0.007  0.091848  0.184151  -0.011068  3.997033  -0.012
C  C46  1  0.74738544  0.21764422  0.83167709  1  -0.094413  -0.00131  3.683602  0.0  -0.095909  0.001598  3.945359  0.003  -0.110139  0.000121  3.967006  0.001  0.082994  -0.086771  0.002883  3.929302  0.004
C  C47  1  0.25260785  0.78234678  0.16832302  1  -0.094437  0.00131  3.683438  0.0  -0.095874  -0.0016  3.945125  -0.003  -0.110097  -0.000118  3.96677  -0.001  0.083011  -0.086739  -0.002882  3.929071  -0.004
C  C48  1  0.86577992  0.19394506  0.91401560  1  0.477018  0.001019  3.687092  0.002  0.466435  0.000764  3.951608  0.001  0.488913  0.000422  3.956852  0.001  0.161364  0.450681  0.001185  3.948305  0.002
C  C49  1  0.13419222  0.80605786  0.08598619  1  0.476998  -0.001017  3.687042  -0.002  0.466471  -0.000765  3.951436  -0.001  0.488944  -0.000421  3.956687  -0.001  0.161364  0.450714  -0.001186  3.948135  -0.002
C  C50  1  0.68467072  0.24135904  0.98284555  1  -0.428329  0.00173  3.690566  0.001  -0.516102  0.001019  3.935064  0.001  -0.520754  0.000509  3.93913  0.0  -0.251618  -0.512565  0.001651  3.932281  0.001
C  C51  1  0.31530338  0.75863188  0.01715537  1  -0.4284  -0.001733  3.690455  -0.001  -0.516179  -0.001019  3.934918  -0.001  -0.520807  -0.00051  3.938991  0.0  -0.251745  -0.512645  -0.001651  3.932133  -0.001
C  C52  1  0.86533522  0.13039619  0.76713240  1  0.327472  -0.006808  3.672233  -0.007  0.321152  0.000211  3.931871  -0.001  0.343643  -0.002537  3.943205  -0.004  0.151482  0.306592  0.003293  3.922977  0.002
C  C53  1  0.13466498  0.86960328  0.23286636  1  0.327729  0.006812  3.672088  0.007  0.3213  -0.000207  3.931795  0.001  0.343793  0.002537  3.943117  0.004  0.151568  0.306737  -0.003291  3.922901  -0.002
C  C54  1  0.11763401  0.01058518  0.78071741  1  -0.3871  0.015147  3.680837  0.017  -0.466879  0.009189  3.916634  0.011  -0.473009  0.00663  3.920376  0.008  -0.243933  -0.46264  0.010888  3.914435  0.012
C  C55  1  0.88235809  0.98941543  0.21928315  1  -0.387303  -0.015147  3.680832  -0.017  -0.467052  -0.009191  3.916676  -0.011  -0.47318  -0.00663  3.92042  -0.008  -0.243975  -0.4628  -0.010889  3.914472  -0.012
C  C56  1  0.86031749  0.06887567  0.63105070  1  -0.002625  0.005401  3.677982  0.005  -0.055887  0.004355  3.941822  0.003  -0.051523  0.002739  3.956961  0.002  -0.071728  -0.057999  0.00554  3.932551  0.005
C  C57  1  0.13969804  0.93112384  0.36894850  1  -0.002521  -0.005398  3.677927  -0.005  -0.055831  -0.004356  3.941789  -0.003  -0.051474  -0.00274  3.956936  -0.002  -0.071743  -0.057952  -0.00554  3.93252  -0.005
C  C58  1  0.65300251  0.08915459  0.56687594  1  0.066102  -0.001837  3.6477  -0.004  0.003372  0.000912  3.924937  -0.001  0.009541  0.000322  3.934895  -0.001  -0.07377  -0.000531  0.001325  3.918382  0.0
C  C59  1  0.34701112  0.91085096  0.43312159  1  0.066168  0.001838  3.647882  0.004  0.003467  -0.000913  3.925055  0.001  0.009639  -0.000319  3.93501  0.001  -0.07372  -0.000456  -0.001325  3.918505  0.0
S  S60  1  0.00991902  0.57608124  0.61739973  1  1.290508  1.1e-05  5.625933  -0.002  1.193803  0.001892  6.149324  -0.001  1.244819  0.001097  6.123858  -0.001  0.505374  1.158714  0.002616  6.165547  0.0
S  S61  1  0.99008002  0.42391581  0.38259984  1  1.290712  -1.2e-05  5.625716  0.002  1.194023  -0.001893  6.149094  0.001  1.245026  -0.001099  6.123621  0.001  0.505464  1.158931  -0.002617  6.165314  0.0
N  N62  1  0.38709245  0.39211286  0.76414482  1  -0.268379  0.091008  3.265328  0.108  -0.246409  0.062217  3.609815  0.078  -0.281727  0.051417  3.633004  0.068  -0.250014  -0.227697  0.067829  3.596975  0.081
N  N63  1  0.61291730  0.60788660  0.23585565  1  -0.268518  -0.091007  3.264924  -0.108  -0.246617  -0.062216  3.609477  -0.078  -0.281903  -0.051422  3.632631  -0.068  -0.250072  -0.227897  -0.067832  3.596594  -0.081
N  N64  1  0.52620303  0.32596575  0.82775326  1  -0.057898  0.048901  3.259702  0.053  -0.042322  0.023915  3.551761  0.026  -0.039532  0.01033  3.577296  0.011  -0.156153  -0.041053  0.037481  3.533039  0.04
N  N65  1  0.47377652  0.67402648  0.17224390  1  -0.05777  -0.04889  3.259294  -0.053  -0.042183  -0.023903  3.55133  -0.026  -0.03939  -0.010327  3.576845  -0.011  -0.156113  -0.040913  -0.037472  3.532607  -0.04
N  N66  1  0.74655960  0.15318428  0.69736721  1  -0.377387  0.103663  3.225262  0.124  -0.33169  0.077245  3.528018  0.098  -0.367753  0.066981  3.547104  0.089  -0.38558  -0.31164  0.080685  3.51734  0.098
N  N67  1  0.25343949  0.84681281  0.30262995  1  -0.377532  -0.10367  3.225184  -0.124  -0.331778  -0.077243  3.527993  -0.098  -0.367804  -0.066979  3.547041  -0.089  -0.385601  -0.311718  -0.080686  3.517301  -0.098
N  N68  1  0.52500341  0.25950631  0.54951339  1  -0.594272  0.074871  3.126022  0.087  -0.563387  0.052067  3.397613  0.063  -0.591204  0.046582  3.395545  0.06  -0.654212  -0.54755  0.052259  3.401376  0.06
N  N69  1  0.47500361  0.74049551  0.45048872  1  -0.594305  -0.074872  3.125883  -0.087  -0.563395  -0.052065  3.397501  -0.063  -0.591183  -0.046581  3.395404  -0.06  -0.654238  -0.547547  -0.052259  3.401252  -0.06
O  O70  1  0.10210422  0.14345214  0.92685545  1  -0.481895  -0.001342  1.935993  -0.002  -0.435178  -0.000676  2.137372  -0.001  -0.455738  -0.001106  2.135765  -0.001  -0.269196  -0.420596  0.000245  2.13828  0.0
O  O71  1  0.89789044  0.85657606  0.07314768  1  -0.481877  0.001336  1.936318  0.002  -0.435161  0.000676  2.137616  0.001  -0.455731  0.001103  2.136025  0.001  -0.269154  -0.420588  -0.000246  2.138539  0.0
O  O72  1  0.29891930  0.56020641  0.60141751  1  -0.648285  0.049456  2.079265  0.062  -0.596221  0.042188  2.360165  0.056  -0.625181  0.036091  2.342063  0.051  -0.350533  -0.577178  0.045059  2.372482  0.058
O  O73  1  0.70108356  0.43979665  0.39858214  1  -0.648331  -0.049456  2.079273  -0.062  -0.596272  -0.042185  2.360151  -0.056  -0.625216  -0.036091  2.342048  -0.051  -0.35052  -0.577215  -0.045058  2.37245  -0.058
O  O74  1  0.91549584  0.43352724  0.60346724  1  -0.655948  -0.002561  2.004378  -0.002  -0.621762  -0.002019  2.289626  -0.002  -0.64536  -0.002172  2.272998  -0.002  -0.3354  -0.605382  -0.001754  2.300814  -0.001
O  O75  1  0.08451739  0.56646745  0.39653237  1  -0.656059  0.002562  2.004249  0.002  -0.621885  0.002019  2.289522  0.002  -0.645465  0.002172  2.272876  0.002  -0.335481  -0.605506  0.001753  2.30072  0.001
O  O76  1  0.87140501  0.72844773  0.57313882  1  -0.633309  0.007493  1.96419  0.009  -0.574145  0.005817  2.201442  0.008  -0.595839  0.004086  2.188701  0.006  -0.323343  -0.558254  0.007314  2.209618  0.009
O  O77  1  0.12858936  0.27155163  0.42686361  1  -0.633292  -0.007494  1.964135  -0.009  -0.574171  -0.005817  2.201412  -0.008  -0.595838  -0.004086  2.188658  -0.006  -0.323336  -0.558276  -0.007314  2.209592  -0.009
