# generated using pymatgen
data_ZnH16C26(NO2)4
_symmetry_space_group_name_H-M   'P 1'
_cell_length_a   11.47729056
_cell_length_b   18.72665779
_cell_length_c   26.52400689
_cell_angle_alpha   90.00013695
_cell_angle_beta   89.99972549
_cell_angle_gamma   91.91405552
_symmetry_Int_Tables_number   1
_chemical_formula_structural   ZnH16C26(NO2)4
_chemical_formula_sum   'Zn4 H64 C104 N16 O32'
_cell_volume   5697.65831808
_cell_formula_units_Z   4
loop_
 _symmetry_equiv_pos_site_id
 _symmetry_equiv_pos_as_xyz
  1  'x, y, z'
loop_
 _atom_site_type_symbol
 _atom_site_label
 _atom_site_symmetry_multiplicity
 _atom_site_fract_x
 _atom_site_fract_y
 _atom_site_fract_z
 _atom_site_occupancy
 _atom_site_pbe_bader_charge
 _atom_site_pbe_bader_spin_density
 _atom_site_pbe_cm5_charge
 _atom_site_pbe_ddec_charge
 _atom_site_pbe_ddec_spin_density
 _atom_site_pbe_ddec_sum_bond_order
 _atom_site_pbe_magmom
Zn  Zn0  1  0.47319881  0.14071878  0.02577062  1  1.245954  0  0.691075  0.750138  0  2.380023  0
Zn  Zn1  1  0.02679757  0.85927983  0.52577005  1  1.246013  0  0.691081  0.750139  0  2.380002  0
Zn  Zn2  1  0.52680028  0.85928000  0.97422930  1  1.245996  0  0.691086  0.750123  0  2.38004  0
Zn  Zn3  1  0.97319976  0.14071840  0.47422836  1  1.245972  0  0.69108  0.750149  0  2.379998  0
H  H4  1  0.59486716  0.03849103  0.96213044  1  0.14895  0  0.119775  0.099538  0  1.010582  0
H  H5  1  0.90512783  0.96150836  0.46212989  1  0.149014  0  0.119764  0.099523  0  1.01048  0
H  H6  1  0.40512768  0.96151039  0.03786948  1  0.149009  0  0.119766  0.099544  0  1.010492  0
H  H7  1  0.09486782  0.03849146  0.53786814  1  0.149009  0  0.119746  0.099518  0  1.010458  0
H  H8  1  0.79053970  0.98889907  0.95332618  1  0.090555  0  0.116139  0.129944  0  0.992698  0
H  H9  1  0.70945618  0.01109817  0.45332520  1  0.090605  0  0.116148  0.129971  0  0.992696  0
H  H10  1  0.20945324  0.01109807  0.04667449  1  0.090622  0  0.116138  0.129937  0  0.992752  0
H  H11  1  0.29054310  0.98890542  0.54667548  1  0.090509  0  0.116113  0.129929  0  0.992808  0
H  H12  1  0.90975022  0.13620257  0.06983175  1  0.117135  0  0.111963  0.129074  0  1.00231  0
H  H13  1  0.59024577  0.86380198  0.56983408  1  0.116758  0  0.111972  0.12911  0  1.002348  0
H  H14  1  0.09025253  0.86380050  0.93016402  1  0.117413  0  0.111967  0.129104  0  1.002292  0
H  H15  1  0.40975097  0.13620373  0.43016659  1  0.117057  0  0.111959  0.129056  0  1.002389  0
H  H16  1  0.70497568  0.17725588  0.07559885  1  0.102681  0  0.116819  0.091988  0  1.010955  0
H  H17  1  0.79501763  0.82274867  0.57560181  1  0.103083  0  0.116852  0.09194  0  1.011034  0
H  H18  1  0.29502712  0.82274880  0.92439767  1  0.102662  0  0.116805  0.09187  0  1.011022  0
H  H19  1  0.20497465  0.17725434  0.42439773  1  0.103024  0  0.116813  0.091901  0  1.010969  0
H  H20  1  0.05210142  0.06412966  0.03007879  1  0.103232  0  0.112394  0.118766  0  0.992773  0
H  H21  1  0.44789335  0.93587376  0.53007936  1  0.101941  0  0.112416  0.118842  0  0.992834  0
H  H22  1  0.94789417  0.93586856  0.96992000  1  0.103178  0  0.112418  0.118771  0  0.992881  0
H  H23  1  0.55210519  0.06413356  0.46992244  1  0.103205  0  0.112433  0.118808  0  0.992927  0
H  H24  1  0.37951024  0.23730144  0.94904608  1  0.108717  0  0.125401  0.099886  0  0.999133  0
H  H25  1  0.12049375  0.76269805  0.44904429  1  0.108653  0  0.125398  0.099902  0  0.999088  0
H  H26  1  0.62049324  0.76269790  0.05095497  1  0.10867  0  0.125391  0.09991  0  0.999081  0
H  H27  1  0.87951060  0.23730129  0.55095375  1  0.108709  0  0.125396  0.099874  0  0.99912  0
H  H28  1  0.37793842  0.36751944  0.93029827  1  0.096081  0  0.115016  0.120668  0  0.981282  0
H  H29  1  0.12206315  0.63247998  0.43029588  1  0.096094  0  0.114993  0.120637  0  0.981294  0
H  H30  1  0.62206069  0.63247987  0.06970504  1  0.095953  0  0.114999  0.120661  0  0.981257  0
H  H31  1  0.87794116  0.36751830  0.56970291  1  0.096056  0  0.115018  0.12064  0  0.981276  0
H  H32  1  0.56588839  0.40334355  0.07016826  1  0.100237  0  0.11345  0.118541  0  0.991449  0
H  H33  1  0.93410913  0.59665566  0.57016489  1  0.100233  0  0.1135  0.11861  0  0.991532  0
H  H34  1  0.43411152  0.59665363  0.92983618  1  0.100254  0  0.113498  0.118631  0  0.991491  0
H  H35  1  0.06589260  0.40334367  0.42983314  1  0.100199  0  0.113491  0.118564  0  0.991479  0
H  H36  1  0.55607858  0.27165398  0.08323745  1  0.154289  0  0.123863  0.108926  0  1.019413  0
H  H37  1  0.94392312  0.72834424  0.58323579  1  0.154381  0  0.123887  0.108967  0  1.01939  0
H  H38  1  0.44392739  0.72834217  0.91676322  1  0.154258  0  0.123837  0.108917  0  1.01933  0
H  H39  1  0.05607423  0.27165453  0.41676186  1  0.154279  0  0.123869  0.108929  0  1.019395  0
H  H40  1  0.42179025  0.48749221  0.95338157  1  0.044046  0  0.108388  0.10343  0  0.996521  0
H  H41  1  0.07820323  0.51250723  0.45337642  1  0.04392  0  0.108406  0.103458  0  0.996542  0
H  H42  1  0.57820364  0.51250707  0.04662401  1  0.043894  0  0.10839  0.103462  0  0.996559  0
H  H43  1  0.92179501  0.48749208  0.54662199  1  0.043977  0  0.108379  0.103446  0  0.996565  0
H  H44  1  0.41574209  0.02182608  0.88753404  1  0.122326  0  0.109662  0.115877  0  1.000858  0
H  H45  1  0.08425817  0.97817212  0.38753495  1  0.122386  0  0.109675  0.115891  0  1.000855  0
H  H46  1  0.58425525  0.97817216  0.11246550  1  0.122337  0  0.109646  0.115818  0  1.000886  0
H  H47  1  0.91574454  0.02182988  0.61246497  1  0.122344  0  0.109645  0.115833  0  1.000875  0
H  H48  1  0.33276975  0.96399982  0.81036257  1  0.088622  0  0.103812  0.110169  0  1.01905  0
H  H49  1  0.16723132  0.03599760  0.31036360  1  0.08842  0  0.103796  0.110188  0  1.019111  0
H  H50  1  0.66722759  0.03599841  0.18963735  1  0.088321  0  0.103796  0.110199  0  1.018983  0
H  H51  1  0.83277039  0.96400120  0.68963595  1  0.08863  0  0.103818  0.110221  0  1.019052  0
H  H52  1  0.08751858  0.11747612  0.91644337  1  0.149687  0  0.116604  0.130787  0  1.002012  0
H  H53  1  0.41248397  0.88252219  0.41644343  1  0.149714  0  0.116675  0.130862  0  1.002026  0
H  H54  1  0.91248050  0.88252212  0.08355655  1  0.149763  0  0.116622  0.130813  0  1.002063  0
H  H55  1  0.58752140  0.11748144  0.58355875  1  0.14997  0  0.116628  0.130802  0  1.002102  0
H  H56  1  0.20457201  0.98583145  0.64639391  1  0.149681  0  0.111739  0.116235  0  0.997426  0
H  H57  1  0.29543260  0.01416600  0.14639463  1  0.149743  0  0.111773  0.116244  0  0.997362  0
H  H58  1  0.79543830  0.01416420  0.35360677  1  0.149705  0  0.111796  0.116244  0  0.997411  0
H  H59  1  0.70456483  0.98583491  0.85360642  1  0.149697  0  0.111792  0.116253  0  0.997416  0
H  H60  1  0.25000938  0.03946683  0.72964670  1  0.100423  0  0.103827  0.11228  0  1.028944  0
H  H61  1  0.24999605  0.96053036  0.22964836  1  0.100429  0  0.103847  0.11234  0  1.028833  0
H  H62  1  0.74999485  0.96052931  0.27035360  1  0.100389  0  0.103797  0.112257  0  1.028907  0
H  H63  1  0.75000744  0.03946951  0.77035382  1  0.100388  0  0.103808  0.112285  0  1.028893  0
H  H64  1  0.95018869  0.84381402  0.71579806  1  0.140532  0  0.116752  0.129745  0  1.006934  0
H  H65  1  0.54980823  0.15618834  0.21579840  1  0.140526  0  0.116766  0.129759  0  1.006933  0
H  H66  1  0.04980789  0.15618741  0.28420111  1  0.140564  0  0.116774  0.129746  0  1.006923  0
H  H67  1  0.45019181  0.84381259  0.78420152  1  0.140571  0  0.116784  0.129783  0  1.00691  0
C  C68  1  0.66715571  0.05840243  0.98535085  1  0.418001  0  0.047162  0.09776  0  3.92023  0
C  C69  1  0.83283909  0.94159865  0.48535118  1  0.417879  0  0.0472  0.097853  0  3.920059  0
C  C70  1  0.33283998  0.94159846  0.01464869  1  0.41792  0  0.047185  0.097683  0  3.920211  0
C  C71  1  0.16715839  0.05840333  0.51464912  1  0.417896  0  0.047203  0.097785  0  3.920163  0
C  C72  1  0.77732575  0.03126155  0.98063009  1  0.009748  0  -0.072092  -0.1533  0  3.897255  0
C  C73  1  0.72267076  0.96873738  0.48062994  1  0.009821  0  -0.072198  -0.153447  0  3.897254  0
C  C74  1  0.22266814  0.96873773  0.01936908  1  0.009814  0  -0.072119  -0.153297  0  3.897264  0
C  C75  1  0.27732936  0.03126568  0.51937036  1  0.00995  0  -0.072178  -0.153371  0  3.897461  0
C  C76  1  0.86848695  0.05835805  0.01136620  1  0.029058  0  0.016646  0.156366  0  4.002262  0
C  C77  1  0.63150868  0.94164310  0.51136782  1  0.02903  0  0.016695  0.156431  0  4.002269  0
C  C78  1  0.13150867  0.94164070  0.98863183  1  0.029026  0  0.016687  0.156367  0  4.00241  0
C  C79  1  0.36848980  0.05836262  0.48863398  1  0.029049  0  0.016781  0.156468  0  4.002305  0
C  C80  1  0.84243310  0.11370522  0.04498149  1  0.02654  0  -0.078367  -0.169731  0  3.916109  0
C  C81  1  0.65756569  0.88629713  0.54498371  1  0.02692  0  -0.078349  -0.169749  0  3.916025  0
C  C82  1  0.15756696  0.88629624  0.95501579  1  0.026164  0  -0.078364  -0.169794  0  3.915962  0
C  C83  1  0.34243448  0.11370699  0.45501696  1  0.026626  0  -0.078379  -0.169753  0  3.916112  0
C  C84  1  0.72948048  0.13719716  0.04814366  1  0.415715  0  0.041387  0.085046  0  3.972868  0
C  C85  1  0.77051567  0.86280518  0.54814561  1  0.41528  0  0.041347  0.085147  0  3.972809  0
C  C86  1  0.27052135  0.86280484  0.95185362  1  0.415801  0  0.041378  0.085183  0  3.97273  0
C  C87  1  0.22948094  0.13719679  0.45185393  1  0.415341  0  0.041366  0.08516  0  3.972763  0
C  C88  1  0.98556087  0.03110745  0.01084540  1  -0.121255  0  -0.069359  -0.104048  0  3.920085  0
C  C89  1  0.51443568  0.96889478  0.51084693  1  -0.120393  0  -0.069389  -0.104214  0  3.920238  0
C  C90  1  0.01443558  0.96889025  0.98915301  1  0.021836  0  -0.069298  -0.103961  0  3.920262  0
C  C91  1  0.48556373  0.03111255  0.48915450  1  0.022205  0  -0.069359  -0.104027  0  3.920273  0
C  C92  1  0.42065275  0.27610627  0.97448454  1  0.457186  0  0.060034  0.113346  0  3.928801  0
C  C93  1  0.07935094  0.72389277  0.47448238  1  0.456957  0  0.059969  0.113296  0  3.928355  0
C  C94  1  0.57935073  0.72389307  0.02551689  1  0.457002  0  0.059961  0.113199  0  3.928459  0
C  C95  1  0.92065166  0.27610657  0.52551603  1  0.457126  0  0.060042  0.113336  0  3.928557  0
C  C96  1  0.41999953  0.34879231  0.96448234  1  0.005272  0  -0.076321  -0.174683  0  3.927902  0
C  C97  1  0.08000250  0.65120615  0.46448006  1  0.005453  0  -0.076204  -0.174547  0  3.927585  0
C  C98  1  0.58000131  0.65120648  0.03552060  1  0.005594  0  -0.076187  -0.174547  0  3.927524  0
C  C99  1  0.92000008  0.34879265  0.53551835  1  0.00493  0  -0.076252  -0.174571  0  3.927736  0
C  C100  1  0.47325779  0.39772656  0.99822459  1  0.01583  0  0.010313  0.149797  0  4.038085  0
C  C101  1  0.02673954  0.60227251  0.49822083  1  0.016081  0  0.010342  0.149855  0  4.038  0
C  C102  1  0.52673871  0.60227273  0.00177948  1  0.016049  0  0.010351  0.149911  0  4.038007  0
C  C103  1  0.97326130  0.39772628  0.50177683  1  0.016187  0  0.010279  0.14982  0  4.038001  0
C  C104  1  0.52430319  0.36914270  0.04172649  1  -0.053043  0  -0.078035  -0.170689  0  3.926316  0
C  C105  1  0.97569724  0.63085591  0.54172423  1  -0.053377  0  -0.078148  -0.1709  0  3.926469  0
C  C106  1  0.47569674  0.63085502  0.95827682  1  -0.053447  0  -0.078156  -0.170926  0  3.926459  0
C  C107  1  0.02430447  0.36914288  0.45827418  1  -0.053001  0  -0.078043  -0.170718  0  3.926283  0
C  C108  1  0.52060592  0.29591562  0.04942173  1  0.447455  0  0.053671  0.092548  0  3.933851  0
C  C109  1  0.97939445  0.70408355  0.54941958  1  0.447502  0  0.05371  0.092603  0  3.933879  0
C  C110  1  0.47939661  0.70408158  0.95057970  1  0.447642  0  0.053711  0.092571  0  3.93379  0
C  C111  1  0.02060463  0.29591470  0.45057808  1  0.447495  0  0.053682  0.092576  0  3.933844  0
C  C112  1  0.47233736  0.47372674  0.98675203  1  0.05907  0  -0.074621  -0.11428  0  3.963887  0
C  C113  1  0.02765748  0.52627228  0.48674739  1  -0.046427  0  -0.074722  -0.114362  0  3.963969  0
C  C114  1  0.52765738  0.52627201  0.01325355  1  -0.04646  0  -0.074747  -0.114481  0  3.963954  0
C  C115  1  0.97233989  0.47372702  0.51325027  1  0.059059  0  -0.07466  -0.114426  0  3.96402  0
C  C116  1  0.30404073  0.10796918  0.95411241  1  1.58078  0  0.191835  0.548629  0  4.26879  0
C  C117  1  0.19595882  0.89202976  0.45411293  1  1.580672  0  0.191852  0.548582  0  4.268777  0
C  C118  1  0.69595835  0.89202906  0.04588789  1  1.580644  0  0.191886  0.548625  0  4.26878  0
C  C119  1  0.80404120  0.10797062  0.54588736  1  1.580655  0  0.191849  0.548585  0  4.268668  0
C  C120  1  0.25686568  0.07314535  0.90699888  1  0.014432  0  -0.015373  -0.024287  0  3.97141  0
C  C121  1  0.24313522  0.92685238  0.40700012  1  0.014427  0  -0.015483  -0.024414  0  3.971317  0
C  C122  1  0.74313162  0.92685181  0.09300142  1  0.014543  0  -0.01541  -0.024253  0  3.971265  0
C  C123  1  0.75686745  0.07314855  0.59300168  1  0.014471  0  -0.015419  -0.024305  0  3.971257  0
C  C124  1  0.32560744  0.03011212  0.87672544  1  -0.004332  0  -0.067473  -0.056841  0  3.920508  0
C  C125  1  0.17439295  0.96988658  0.37672615  1  -0.004316  0  -0.067474  -0.056785  0  3.920266  0
C  C126  1  0.67438990  0.96988611  0.12327448  1  -0.004372  0  -0.067431  -0.056754  0  3.92029  0
C  C127  1  0.82560969  0.03011383  0.62327415  1  -0.004373  0  -0.067456  -0.056762  0  3.920324  0
C  C128  1  0.27923673  0.99825692  0.83338406  1  -0.021336  0  -0.079919  -0.112749  0  3.935248  0
C  C129  1  0.22076675  0.00174166  0.33338454  1  -0.021021  0  -0.079886  -0.112841  0  3.935304  0
C  C130  1  0.72076235  0.00174132  0.16661623  1  -0.021003  0  -0.07991  -0.112809  0  3.935159  0
C  C131  1  0.77923586  0.99825767  0.66661500  1  -0.021273  0  -0.07993  -0.11291  0  3.9353  0
C  C132  1  0.16376943  0.00850603  0.81853190  1  0.013586  0  0.012329  0.047518  0  3.972859  0
C  C133  1  0.33623423  0.99149304  0.31853343  1  0.013568  0  0.012288  0.047497  0  3.972937  0
C  C134  1  0.83622969  0.99149328  0.18146689  1  0.013562  0  0.012245  0.047398  0  3.97307  0
C  C135  1  0.66376931  0.00850791  0.68146687  1  0.013672  0  0.012278  0.047523  0  3.973044  0
C  C136  1  0.09713176  0.05285701  0.84932486  1  0.191355  0  0.077509  0.022372  0  3.923683  0
C  C137  1  0.40287154  0.94714162  0.34932505  1  0.191623  0  0.077516  0.022361  0  3.923551  0
C  C138  1  0.90286647  0.94714176  0.15067430  1  0.191375  0  0.077528  0.022433  0  3.92382  0
C  C139  1  0.59713203  0.05286039  0.65067562  1  0.19174  0  0.077525  0.022355  0  3.923754  0
C  C140  1  0.14153354  0.08402449  0.89314213  1  -0.015431  0  -0.069907  -0.128145  0  3.949832  0
C  C141  1  0.35846751  0.91597320  0.39314236  1  -0.015829  0  -0.06998  -0.128187  0  3.949696  0
C  C142  1  0.85846463  0.91597268  0.10685779  1  -0.01562  0  -0.069925  -0.128199  0  3.949944  0
C  C143  1  0.64153522  0.08402934  0.60685869  1  -0.016057  0  -0.069978  -0.128196  0  3.949881  0
C  C144  1  0.04203439  0.87825502  0.62560527  1  1.570466  0  0.201121  0.563834  0  4.223932  0
C  C145  1  0.45796702  0.12174394  0.12560697  1  1.570399  0  0.20123  0.564118  0  4.22367  0
C  C146  1  0.95796901  0.12174218  0.37439427  1  1.570674  0  0.201225  0.564148  0  4.223579  0
C  C147  1  0.54203036  0.87825536  0.87439371  1  1.570459  0  0.201132  0.563911  0  4.223963  0
C  C148  1  0.07339765  0.91152990  0.67544992  1  0.066966  0  -0.010107  -0.017196  0  3.95469  0
C  C149  1  0.42660498  0.08846976  0.17545125  1  0.067016  0  -0.010133  -0.017354  0  3.954816  0
C  C150  1  0.92660484  0.08846623  0.32454924  1  0.066987  0  -0.010119  -0.017414  0  3.954856  0
C  C151  1  0.57339515  0.91153329  0.82454905  1  0.067034  0  -0.010149  -0.017405  0  3.954941  0
C  C152  1  0.15810425  0.96672080  0.67985419  1  -0.030922  0  -0.062231  -0.046827  0  3.909991  0
C  C153  1  0.34189919  0.03327836  0.17985560  1  -0.03086  0  -0.06226  -0.046802  0  3.91005  0
C  C154  1  0.84190083  0.03327481  0.32014535  1  -0.031042  0  -0.062244  -0.046722  0  3.910041  0
C  C155  1  0.65810007  0.96672470  0.82014545  1  -0.031035  0  -0.062244  -0.046751  0  3.910052  0
C  C156  1  0.18330914  0.99686013  0.72674303  1  -0.073639  0  -0.081432  -0.119095  0  3.935634  0
C  C157  1  0.31669379  0.00313917  0.22674483  1  -0.074023  0  -0.081412  -0.119092  0  3.935561  0
C  C158  1  0.81669254  0.00313759  0.27325651  1  -0.073839  0  -0.081397  -0.119043  0  3.935597  0
C  C159  1  0.68330630  0.99686282  0.77325660  1  -0.073848  0  -0.08138  -0.119037  0  3.935541  0
C  C160  1  0.12494493  0.97396920  0.77067498  1  0.083401  0  0.013354  0.052321  0  3.964846  0
C  C161  1  0.37505584  0.02603183  0.27067631  1  0.083778  0  0.013375  0.052333  0  3.964791  0
C  C162  1  0.87505245  0.02603010  0.22932419  1  0.083669  0  0.013346  0.052271  0  3.96484  0
C  C163  1  0.62494688  0.97397071  0.72932474  1  0.083625  0  0.01334  0.052286  0  3.964742  0
C  C164  1  0.04040414  0.91805298  0.76532364  1  0.172952  0  0.07528  0.015419  0  3.903197  0
C  C165  1  0.45959754  0.08194751  0.26532451  1  0.172973  0  0.075323  0.01551  0  3.903085  0
C  C166  1  0.95959413  0.08194686  0.23467515  1  0.173294  0  0.075359  0.01559  0  3.902934  0
C  C167  1  0.54040517  0.91805450  0.73467616  1  0.172932  0  0.075349  0.015582  0  3.903076  0
C  C168  1  0.01519254  0.88723578  0.71863801  1  -0.034907  0  -0.069303  -0.127169  0  3.949076  0
C  C169  1  0.48480962  0.11276402  0.21864001  1  -0.03502  0  -0.069418  -0.127278  0  3.949156  0
C  C170  1  0.98480743  0.11276300  0.28136040  1  -0.035178  0  -0.069401  -0.127203  0  3.949123  0
C  C171  1  0.51519221  0.88723798  0.78136029  1  -0.034927  0  -0.069426  -0.12727  0  3.949239  0
N  N172  1  0.64254614  0.11021248  0.01885970  1  -1.253655  0  -0.335657  -0.242399  0  3.576992  0
N  N173  1  0.85745028  0.88978870  0.51886000  1  -1.253562  0  -0.3356  -0.242429  0  3.576937  0
N  N174  1  0.35745310  0.88979004  0.98113909  1  -1.253625  0  -0.335622  -0.242293  0  3.577079  0
N  N175  1  0.14254717  0.11021274  0.48113841  1  -1.253744  0  -0.335593  -0.242351  0  3.576933  0
N  N176  1  0.47016339  0.24968617  0.01624990  1  -1.241752  0  -0.318946  -0.215456  0  3.550586  0
N  N177  1  0.02983921  0.75031245  0.51624802  1  -1.24163  0  -0.318966  -0.215511  0  3.550434  0
N  N178  1  0.52983916  0.75031156  0.98375152  1  -1.241656  0  -0.318922  -0.215378  0  3.550468  0
N  N179  1  0.97015989  0.24968633  0.48374964  1  -1.241726  0  -0.319025  -0.215536  0  3.550508  0
N  N180  1  0.97650200  0.06797088  0.83606088  1  0.367421  0  0.055796  0.523196  0  4.199003  0
N  N181  1  0.52350043  0.93202763  0.33605995  1  0.366948  0  0.055793  0.523155  0  4.198977  0
N  N182  1  0.02349710  0.93202790  0.16393979  1  0.366935  0  0.055784  0.523065  0  4.199336  0
N  N183  1  0.47650221  0.06797277  0.66394072  1  0.36666  0  0.055798  0.523161  0  4.199065  0
N  N184  1  0.97470562  0.88882826  0.80878591  1  0.389599  0  0.056579  0.520576  0  4.2023  0
N  N185  1  0.52529629  0.11117175  0.30878660  1  0.389628  0  0.056619  0.520589  0  4.202418  0
N  N186  1  0.02529001  0.11117103  0.19121250  1  0.389598  0  0.056547  0.520496  0  4.202207  0
N  N187  1  0.47470986  0.88882921  0.69121332  1  0.389599  0  0.056528  0.520413  0  4.202328  0
O  O188  1  0.41454329  0.09882018  0.96198590  1  -1.182487  0  -0.34175  -0.570131  0  2.340808  0
O  O189  1  0.08545708  0.90117987  0.46198668  1  -1.182403  0  -0.341755  -0.570106  0  2.340842  0
O  O190  1  0.58545667  0.90117861  0.03801402  1  -1.18244  0  -0.341745  -0.570117  0  2.340809  0
O  O191  1  0.91454297  0.09882106  0.53801324  1  -1.182438  0  -0.341755  -0.570109  0  2.3408  0
O  O192  1  0.23932330  0.14303198  0.98185831  1  -1.170376  0  -0.333387  -0.551666  0  2.080731  0
O  O193  1  0.26067426  0.85696865  0.48186053  1  -1.170395  0  -0.333382  -0.551621  0  2.080721  0
O  O194  1  0.76067502  0.85696947  0.01814010  1  -1.170376  0  -0.333399  -0.551656  0  2.080777  0
O  O195  1  0.73932311  0.14303065  0.51813977  1  -1.170387  0  -0.333361  -0.551615  0  2.080657  0
O  O196  1  0.96865965  0.82713439  0.62391711  1  -1.189926  0  -0.326679  -0.564394  0  2.145203  0
O  O197  1  0.53134073  0.17286342  0.12391865  1  -1.189885  0  -0.326728  -0.564493  0  2.145265  0
O  O198  1  0.03134100  0.17285906  0.37608319  1  -1.19005  0  -0.326645  -0.564455  0  2.145336  0
O  O199  1  0.46865589  0.82713908  0.87608164  1  -1.189877  0  -0.326652  -0.564364  0  2.145397  0
O  O200  1  0.09296414  0.90654974  0.58637964  1  -1.153239  0  -0.328663  -0.54024  0  2.288847  0
O  O201  1  0.40703255  0.09345121  0.08638102  1  -1.153162  0  -0.328671  -0.54034  0  2.28873  0
O  O202  1  0.90703049  0.09344581  0.41361914  1  -1.153263  0  -0.328769  -0.54042  0  2.288596  0
O  O203  1  0.59296835  0.90654919  0.91361965  1  -1.153212  0  -0.328667  -0.540285  0  2.288723  0
O  O204  1  0.94849184  0.06427454  0.79073668  1  -0.487834  0  -0.131847  -0.344309  0  1.941421  0
O  O205  1  0.55151035  0.93572756  0.29073645  1  -0.487902  0  -0.131792  -0.344242  0  1.941508  0
O  O206  1  0.05150653  0.93572797  0.20926324  1  -0.487832  0  -0.131809  -0.344242  0  1.941717  0
O  O207  1  0.44849146  0.06427391  0.70926384  1  -0.487735  0  -0.131784  -0.344245  0  1.941562  0
O  O208  1  0.90903168  0.08408199  0.87050485  1  -0.442897  0  -0.134912  -0.337733  0  1.896567  0
O  O209  1  0.59097020  0.91591182  0.37050300  1  -0.44243  0  -0.134952  -0.337746  0  1.89652  0
O  O210  1  0.09096636  0.91591197  0.12949620  1  -0.442373  0  -0.134921  -0.337673  0  1.896558  0
O  O211  1  0.40903330  0.08408806  0.62949616  1  -0.442374  0  -0.134938  -0.337714  0  1.896482  0
O  O212  1  0.89005120  0.84771162  0.80040374  1  -0.449219  0  -0.137887  -0.335019  0  1.886588  0
O  O213  1  0.60995077  0.15228730  0.30040546  1  -0.449238  0  -0.137836  -0.334968  0  1.886723  0
O  O214  1  0.10994701  0.15228662  0.19959391  1  -0.449084  0  -0.137841  -0.335012  0  1.886546  0
O  O215  1  0.39005364  0.84771365  0.69959483  1  -0.449063  0  -0.137849  -0.334998  0  1.886587  0
O  O216  1  0.00764839  0.90676263  0.85185244  1  -0.490506  0  -0.135462  -0.354318  0  1.97692  0
O  O217  1  0.49235057  0.09323705  0.35185327  1  -0.490575  0  -0.135506  -0.354348  0  1.976897  0
O  O218  1  0.99234726  0.09323719  0.14814634  1  -0.490671  0  -0.135482  -0.354279  0  1.976847  0
O  O219  1  0.50765556  0.90676338  0.64814703  1  -0.490655  0  -0.135435  -0.354203  0  1.976902  0
