# generated using pymatgen
data_ZnH18C24N2O5
_symmetry_space_group_name_H-M   'P 1'
_cell_length_a   8.97604527
_cell_length_b   11.16326959
_cell_length_c   11.57389450
_cell_angle_alpha   69.01254571
_cell_angle_beta   76.28007784
_cell_angle_gamma   91.61072971
_symmetry_Int_Tables_number   1
_chemical_formula_structural   ZnH18C24N2O5
_chemical_formula_sum   'Zn2 H36 C48 N4 O10'
_cell_volume   1043.69085508
_cell_formula_units_Z   2
loop_
 _symmetry_equiv_pos_site_id
 _symmetry_equiv_pos_as_xyz
  1  'x, y, z'
loop_
 _atom_site_type_symbol
 _atom_site_label
 _atom_site_symmetry_multiplicity
 _atom_site_fract_x
 _atom_site_fract_y
 _atom_site_fract_z
 _atom_site_occupancy
 _atom_site_hle17_bader_spin_density
 _atom_site_hle17_ddec_charge
 _atom_site_hle17_ddec_spin_density
 _atom_site_hle17_ddec_sum_bond_order
 _atom_site_hle17_magmom
 _atom_site_hse06_10hf_bader_spin_density
 _atom_site_hse06_10hf_ddec_charge
 _atom_site_hse06_10hf_ddec_spin_density
 _atom_site_hse06_10hf_ddec_sum_bond_order
 _atom_site_hse06_10hf_magmom
 _atom_site_hse06_bader_spin_density
 _atom_site_hse06_ddec_charge
 _atom_site_hse06_ddec_spin_density
 _atom_site_hse06_ddec_sum_bond_order
 _atom_site_hse06_magmom
 _atom_site_pbe_bader_spin_density
 _atom_site_pbe_cm5_charge
 _atom_site_pbe_ddec_charge
 _atom_site_pbe_ddec_spin_density
 _atom_site_pbe_ddec_sum_bond_order
 _atom_site_pbe_magmom
Zn  Zn0  1  0.22270482  0.15756188  0.83901480  1  0  1.043213  0  1.783743  0  0  0.858326  0  2.235705  0  0  0.909502  0  2.179684  0  0  0.67133  0.822476  0  2.274159  0
Zn  Zn1  1  0.77729524  0.84244068  0.16098431  1  0  1.043184  0  1.783676  0  0  0.858301  0  2.235626  0  0  0.90948  0  2.179609  0  0  0.671313  0.822452  0  2.27407  0
H  H2  1  0.96916710  0.13676910  0.68457817  1  0  0.091651  0  0.959066  0  0  0.096264  0  1.027762  0  0  0.098678  0  1.02606  0  0  0.118864  0.094408  0  1.029172  0
H  H3  1  0.03083488  0.86323056  0.31542078  1  0  0.09161  0  0.959108  0  0  0.09628  0  1.027727  0  0  0.098695  0  1.026026  0  0  0.118885  0.094427  0  1.029137  0
H  H4  1  0.45420184  0.28240350  0.99524136  1  0  0.095983  0  0.994417  0  0  0.10382  0  1.061753  0  0  0.106269  0  1.061234  0  0  0.101602  0.102032  0  1.062239  0
H  H5  1  0.54579529  0.71759410  0.00475577  1  0  0.096026  0  0.994321  0  0  0.103882  0  1.061628  0  0  0.106332  0  1.061103  0  0  0.101604  0.102094  0  1.062109  0
H  H6  1  0.81921882  0.31721022  0.71385529  1  0  0.108107  0  0.969629  0  0  0.115229  0  1.033024  0  0  0.117607  0  1.033735  0  0  0.1064  0.113488  0  1.032706  0
H  H7  1  0.18078175  0.68278761  0.28614977  1  0  0.108153  0  0.969591  0  0  0.115258  0  1.033019  0  0  0.117638  0  1.033727  0  0  0.10641  0.113516  0  1.032704  0
H  H8  1  0.18396860  0.02771915  0.36987950  1  0  0.082064  0  0.960161  0  0  0.091124  0  1.028581  0  0  0.094081  0  1.026162  0  0  0.096758  0.088965  0  1.030317  0
H  H9  1  0.81603426  0.97228734  0.63011940  1  0  0.082005  0  0.960248  0  0  0.091118  0  1.028595  0  0  0.094073  0  1.026176  0  0  0.096774  0.088962  0  1.030327  0
H  H10  1  0.47310013  0.06235493  0.15030395  1  0  0.115779  0  0.946641  0  0  0.126921  0  1.00546  0  0  0.13078  0  1.003836  0  0  0.103088  0.124206  0  1.006717  0
H  H11  1  0.52689903  0.93764949  0.84969205  1  0  0.115773  0  0.946603  0  0  0.126913  0  1.005423  0  0  0.130774  0  1.003796  0  0  0.103082  0.124201  0  1.006682  0
H  H12  1  0.71580812  0.25601678  0.96937501  1  0  0.091812  0  0.950717  0  0  0.104279  0  1.011692  0  0  0.107166  0  1.008899  0  0  0.106867  0.102125  0  1.0138  0
H  H13  1  0.28419144  0.74398179  0.03062045  1  0  0.091903  0  0.950671  0  0  0.104374  0  1.011634  0  0  0.10726  0  1.00884  0  0  0.106912  0.102222  0  1.013739  0
H  H14  1  0.62679269  0.08063462  0.26558909  1  0  0.103186  0  0.964963  0  0  0.113888  0  1.026013  0  0  0.117136  0  1.023622  0  0  0.100111  0.111497  0  1.027853  0
H  H15  1  0.37321134  0.91936308  0.73440761  1  0  0.103244  0  0.964947  0  0  0.113936  0  1.025992  0  0  0.117195  0  1.02359  0  0  0.100137  0.111541  0  1.027835  0
H  H16  1  0.21489389  0.94926680  0.58342397  1  0  0.090301  0  0.947082  0  0  0.103505  0  1.005122  0  0  0.106415  0  1.003642  0  0  0.099411  0.10137  0  1.006304  0
H  H17  1  0.78511013  0.05073090  0.41657273  1  0  0.090301  0  0.94703  0  0  0.103481  0  1.005102  0  0  0.106391  0  1.003622  0  0  0.099403  0.101349  0  1.006286  0
H  H18  1  0.76516297  0.59738639  0.97408988  1  0  0.108535  0  0.945438  0  0  0.117876  0  1.005512  0  0  0.121166  0  1.003647  0  0  0.105642  0.115476  0  1.006977  0
H  H19  1  0.23483404  0.40261020  0.02590591  1  0  0.108546  0  0.945312  0  0  0.117867  0  1.005415  0  0  0.121158  0  1.00355  0  0  0.105666  0.11547  0  1.006881  0
H  H20  1  0.83818332  0.42995634  0.47801054  1  0  0.098054  0  0.927252  0  0  0.112874  0  0.979781  0  0  0.115494  0  0.978432  0  0  0.109955  0.110944  0  0.980827  0
H  H21  1  0.16181827  0.57004052  0.52199382  1  0  0.098064  0  0.927277  0  0  0.112894  0  0.979787  0  0  0.115516  0  0.978435  0  0  0.109938  0.110962  0  0.980838  0
H  H22  1  0.95406713  0.49374249  0.89096354  1  0  0.116443  0  0.945841  0  0  0.127923  0  1.00175  0  0  0.131929  0  1.000389  0  0  0.104576  0.125031  0  1.002937  0
H  H23  1  0.04593001  0.50625517  0.10903616  1  0  0.11639  0  0.945865  0  0  0.12791  0  1.001723  0  0  0.131918  0  1.000361  0  0  0.104595  0.125013  0  1.002917  0
H  H24  1  0.20045443  0.34116447  0.28195606  1  0  0.10349  0  0.940717  0  0  0.115617  0  0.99921  0  0  0.11762  0  0.998682  0  0  0.111325  0.114122  0  0.999667  0
H  H25  1  0.79955125  0.65883725  0.71804493  1  0  0.103578  0  0.940757  0  0  0.115712  0  0.999211  0  0  0.117716  0  0.998686  0  0  0.111377  0.114217  0  0.999667  0
H  H26  1  0.96173528  0.21577007  0.45351635  1  0  0.103701  0  0.947821  0  0  0.116339  0  1.002511  0  0  0.119309  0  1.002027  0  0  0.109107  0.114184  0  1.003048  0
H  H27  1  0.03826823  0.78423253  0.54648212  1  0  0.103669  0  0.94785  0  0  0.116288  0  1.00256  0  0  0.119258  0  1.002076  0  0  0.10908  0.114137  0  1.003095  0
H  H28  1  0.70762489  0.47557800  0.29688614  1  0  0.119065  0  0.967218  0  0  0.126771  0  1.029817  0  0  0.130864  0  1.027085  0  0  0.104051  0.123768  0  1.031905  0
H  H29  1  0.29237734  0.52442371  0.70311721  1  0  0.119041  0  0.967176  0  0  0.126727  0  1.029814  0  0  0.13082  0  1.027083  0  0  0.104006  0.123724  0  1.031902  0
H  H30  1  0.47769591  0.43982825  0.22683405  1  0  0.093658  0  0.995281  0  0  0.103342  0  1.058744  0  0  0.104072  0  1.062119  0  0  0.100256  0.102739  0  1.056545  0
H  H31  1  0.52230747  0.56017347  0.77316822  1  0  0.093659  0  0.995392  0  0  0.10335  0  1.058841  0  0  0.104081  0  1.06221  0  0  0.100267  0.102741  0  1.056646  0
H  H32  1  0.56774111  0.19000747  0.86074727  1  0  0.085045  0  0.943467  0  0  0.091919  0  1.00942  0  0  0.094638  0  1.006055  0  0  0.120461  0.089819  0  1.012024  0
H  H33  1  0.43225947  0.80999034  0.13925693  1  0  0.085034  0  0.943433  0  0  0.091906  0  1.009383  0  0  0.094625  0  1.006019  0  0  0.120479  0.089804  0  1.011984  0
H  H34  1  0.05805516  0.94995761  0.85724938  1  0  0.429456  0  0.877211  0  0  0.396487  0  0.943984  0  0  0.4083  0  0.927009  0  0  0.285791  0.388173  0  0.955901  0
H  H35  1  0.94194503  0.05004597  0.14275193  1  0  0.429459  0  0.877208  0  0  0.396489  0  0.943984  0  0  0.408303  0  0.927008  0  0  0.285798  0.388175  0  0.955901  0
H  H36  1  0.13530372  0.91281189  0.97024946  1  0  0.421014  0  0.886429  0  0  0.390441  0  0.950192  0  0  0.401035  0  0.934894  0  0  0.289285  0.382935  0  0.961014  0
H  H37  1  0.86469507  0.08718970  0.02975110  1  0  0.420994  0  0.886464  0  0  0.390415  0  0.950238  0  0  0.40101  0  0.934938  0  0  0.289262  0.382911  0  0.961055  0
C  C38  1  0.06988571  0.19206407  0.60736236  1  0  0.145293  0  3.681383  0  0  0.112201  0  3.938807  0  0  0.120505  0  3.955255  0  0  0.057511  0.106814  0  3.927614  0
C  C39  1  0.93011614  0.80793465  0.39263783  1  0  0.145322  0  3.681301  0  0  0.11221  0  3.938696  0  0  0.120514  0  3.955141  0  0  0.057518  0.106822  0  3.927508  0
C  C40  1  0.40748263  0.01658244  0.41282946  1  0  0.074147  0  3.816472  0  0  0.093715  0  4.050515  0  0  0.092681  0  4.075179  0  0  -0.015845  0.094359  0  4.033632  0
C  C41  1  0.59252228  0.98342211  0.58716805  1  0  0.074251  0  3.816156  0  0  0.093842  0  4.050175  0  0  0.092807  0  4.07484  0  0  -0.015753  0.094489  0  4.033289  0
C  C42  1  0.47431994  0.37738086  0.99901512  1  0  -0.107235  0  3.722427  0  0  -0.12746  0  3.9693  0  0  -0.12995  0  3.990204  0  0  -0.084814  -0.125661  0  3.955064  0
C  C43  1  0.52567949  0.62261677  0.00098158  1  0  -0.107257  0  3.72235  0  0  -0.127475  0  3.969233  0  0  -0.129964  0  3.990135  0  0  -0.084835  -0.125674  0  3.954987  0
C  C44  1  0.32605415  0.27786096  0.55143305  1  0  0.130229  0  3.762041  0  0  0.1226  0  4.000516  0  0  0.126635  0  4.022559  0  0  0.120207  0.119918  0  3.985632  0
C  C45  1  0.67394783  0.72213878  0.44856932  1  0  0.130316  0  3.762135  0  0  0.122669  0  4.000553  0  0  0.126706  0  4.022597  0  0  0.120254  0.119987  0  3.98567  0
C  C46  1  0.60048899  0.36307829  0.50012711  1  0  0.025814  0  3.795407  0  0  0.041794  0  4.02934  0  0  0.039469  0  4.0535  0  0  -0.000756  0.043181  0  4.013021  0
C  C47  1  0.39951184  0.63692146  0.49987634  1  0  0.025807  0  3.79552  0  0  0.041852  0  4.029308  0  0  0.039527  0  4.053468  0  0  -0.000743  0.043242  0  4.012987  0
C  C48  1  0.33342910  0.32905910  0.41866830  1  0  0.027152  0  3.795767  0  0  0.042535  0  4.028114  0  0  0.040012  0  4.052198  0  0  -0.000276  0.044051  0  4.011895  0
C  C49  1  0.66657518  0.67094063  0.58133193  1  0  0.027206  0  3.795828  0  0  0.042638  0  4.028097  0  0  0.040111  0  4.052189  0  0  -0.000185  0.044155  0  4.011873  0
C  C50  1  0.62675738  0.43044900  0.98044097  1  0  0.068368  0  3.827063  0  0  0.088976  0  4.058096  0  0  0.087963  0  4.081281  0  0  -0.011959  0.08963  0  4.04221  0
C  C51  1  0.37323950  0.56954666  0.01955691  1  0  0.068252  0  3.827019  0  0  0.088809  0  4.058142  0  0  0.087797  0  4.081327  0  0  -0.012064  0.089466  0  4.042253  0
C  C52  1  0.72080061  0.31322891  0.67502385  1  0  -0.122673  0  3.732839  0  0  -0.135804  0  3.99088  0  0  -0.143437  0  4.013781  0  0  -0.083496  -0.130867  0  3.975445  0
C  C53  1  0.27919997  0.68676890  0.32498034  1  0  -0.122726  0  3.732927  0  0  -0.135888  0  3.991008  0  0  -0.143521  0  4.01391  0  0  -0.083542  -0.130953  0  3.975577  0
C  C54  1  0.30788218  0.03393433  0.32705482  1  0  -0.05286  0  3.766644  0  0  -0.078603  0  4.020062  0  0  -0.074579  0  4.039586  0  0  -0.08257  -0.08086  0  4.006466  0
C  C55  1  0.69212146  0.96606926  0.67294414  1  0  -0.05286  0  3.766784  0  0  -0.078657  0  4.020202  0  0  -0.074632  0  4.039725  0  0  -0.082615  -0.080921  0  4.006606  0
C  C56  1  0.35229680  0.05827585  0.20018189  1  0  -0.247982  0  3.685137  0  0  -0.261532  0  3.944127  0  0  -0.274272  0  3.962555  0  0  -0.106036  -0.253168  0  3.931543  0
C  C57  1  0.64770249  0.94172957  0.79981545  1  0  -0.247998  0  3.685193  0  0  -0.261526  0  3.944181  0  0  -0.274268  0  3.962604  0  0  -0.106027  -0.253162  0  3.931599  0
C  C58  1  0.75145240  0.35605972  0.95448395  1  0  -0.033729  0  3.747946  0  0  -0.059348  0  3.996996  0  0  -0.054332  0  4.015004  0  0  -0.072072  -0.062377  0  3.984524  0
C  C59  1  0.24854358  0.64393783  0.04551167  1  0  -0.033875  0  3.748089  0  0  -0.059489  0  3.997166  0  0  -0.054474  0  4.015174  0  0  -0.072128  -0.062517  0  3.984696  0
C  C60  1  0.56965024  0.04570603  0.36790377  1  0  -0.093567  0  3.708576  0  0  -0.113309  0  3.954181  0  0  -0.115207  0  3.974521  0  0  -0.088331  -0.11189  0  3.940321  0
C  C61  1  0.43035327  0.95429653  0.63209298  1  0  -0.093692  0  3.708394  0  0  -0.113422  0  3.954001  0  0  -0.115329  0  3.974334  0  0  -0.088407  -0.112  0  3.940133  0
C  C62  1  0.34043128  0.97119284  0.54648515  1  0  -0.109296  0  3.738249  0  0  -0.129907  0  3.987989  0  0  -0.132415  0  4.009516  0  0  -0.090353  -0.128082  0  3.973258  0
C  C63  1  0.65957236  0.02881069  0.45351123  1  0  -0.109285  0  3.73818  0  0  -0.12988  0  3.987915  0  0  -0.132387  0  4.009437  0  0  -0.09037  -0.128062  0  3.973194  0
C  C64  1  0.65038199  0.55479352  0.98258762  1  0  -0.096721  0  3.708299  0  0  -0.114447  0  3.953308  0  0  -0.115339  0  3.970889  0  0  -0.082508  -0.113769  0  3.941393  0
C  C65  1  0.34961629  0.44520409  0.01740929  1  0  -0.096534  0  3.708072  0  0  -0.114232  0  3.953088  0  0  -0.115124  0  3.970668  0  0  -0.082434  -0.11356  0  3.941181  0
C  C66  1  0.46255245  0.29209610  0.59256234  1  0  0.134847  0  3.749321  0  0  0.127123  0  3.986148  0  0  0.131529  0  4.008052  0  0  0.121855  0.124179  0  3.971379  0
C  C67  1  0.53744826  0.70790267  0.40744063  1  0  0.134664  0  3.749722  0  0  0.126979  0  3.986365  0  0  0.131384  0  4.008269  0  0  0.121779  0.12403  0  3.971597  0
C  C68  1  0.73071704  0.37426077  0.54586009  1  0  -0.046788  0  3.698562  0  0  -0.072603  0  3.948725  0  0  -0.069677  0  3.966181  0  0  -0.062379  -0.074255  0  3.936711  0
C  C69  1  0.26928366  0.62573803  0.45414459  1  0  -0.046811  0  3.698727  0  0  -0.072653  0  3.948856  0  0  -0.069728  0  3.966311  0  0  -0.062324  -0.074306  0  3.936847  0
C  C70  1  0.90476519  0.39605951  0.90939790  1  0  -0.247702  0  3.685903  0  0  -0.260489  0  3.938937  0  0  -0.272538  0  3.955055  0  0  -0.10478  -0.252577  0  3.927987  0
C  C71  1  0.09523207  0.60393906  0.09059885  1  0  -0.247561  0  3.685985  0  0  -0.26039  0  3.938955  0  0  -0.272439  0  3.955076  0  0  -0.104765  -0.252477  0  3.928014  0
C  C72  1  0.19841600  0.30578878  0.38332599  1  0  -0.041235  0  3.681786  0  0  -0.064673  0  3.92753  0  0  -0.061765  0  3.945703  0  0  -0.059471  -0.066328  0  3.915067  0
C  C73  1  0.80158840  0.69421192  0.61667387  1  0  -0.041496  0  3.682001  0  0  -0.064955  0  3.927743  0  0  -0.062049  0  3.945919  0  0  -0.059606  -0.066611  0  3.915282  0
C  C74  1  0.06712117  0.23656784  0.47770013  1  0  -0.130013  0  3.74855  0  0  -0.143175  0  4.003946  0  0  -0.150536  0  4.024663  0  0  -0.084819  -0.138401  0  3.989956  0
C  C75  1  0.93288209  0.76343284  0.52229995  1  0  -0.129837  0  3.748465  0  0  -0.142989  0  4.003865  0  0  -0.150349  0  4.024584  0  0  -0.084742  -0.138221  0  3.989884  0
C  C76  1  0.24069011  0.08187084  0.11987512  1  0  0.693816  0  3.91737  0  0  0.646009  0  4.211455  0  0  0.681639  0  4.20251  0  0  0.199356  0.621921  0  4.216687  0
C  C77  1  0.75930676  0.91813367  0.88012646  1  0  0.693779  0  3.917323  0  0  0.645988  0  4.2114  0  0  0.681618  0  4.202453  0  0  0.199377  0.621901  0  4.216624  0
C  C78  1  0.01424642  0.30745002  0.88098893  1  0  0.658761  0  3.944319  0  0  0.61409  0  4.229788  0  0  0.649213  0  4.22236  0  0  0.188343  0.590427  0  4.233892  0
C  C79  1  0.98574970  0.69254851  0.11900717  1  0  0.658653  0  3.944409  0  0  0.614059  0  4.229773  0  0  0.649181  0  4.222346  0  0  0.188336  0.590394  0  4.233875  0
C  C80  1  0.60256452  0.41797910  0.36722821  1  0  -0.095664  0  3.706058  0  0  -0.118035  0  3.957747  0  0  -0.121511  0  3.979211  0  0  -0.0836  -0.115596  0  3.94329  0
C  C81  1  0.39743861  0.58202067  0.63277481  1  0  -0.095551  0  3.705862  0  0  -0.117947  0  3.957576  0  0  -0.121423  0  3.979041  0  0  -0.083588  -0.11551  0  3.943116  0
C  C82  1  0.47442067  0.39984108  0.32821608  1  0  -0.089648  0  3.724253  0  0  -0.11082  0  3.97443  0  0  -0.114436  0  3.999656  0  0  -0.082977  -0.108346  0  3.957425  0
C  C83  1  0.52558258  0.60015966  0.67178656  1  0  -0.089686  0  3.724349  0  0  -0.110892  0  3.974531  0  0  -0.114503  0  3.999751  0  0  -0.083011  -0.108411  0  3.957521  0
C  C84  1  0.57995290  0.24234408  0.75879765  1  0  0.158365  0  3.673785  0  0  0.123921  0  3.931703  0  0  0.132073  0  3.949111  0  0  0.063729  0.118632  0  3.919883  0
C  C85  1  0.42004666  0.75765468  0.24120639  1  0  0.158468  0  3.673774  0  0  0.124029  0  3.931634  0  0  0.132182  0  3.949041  0  0  0.06374  0.118747  0  3.919804  0
N  N86  1  0.19572087  0.21265784  0.64279161  1  0  -0.338269  0  3.260403  0  0  -0.269003  0  3.522322  0  0  -0.287288  0  3.53997  0  0  -0.309815  -0.256661  0  3.510265  0
N  N87  1  0.80428098  0.78734088  0.35720857  1  0  -0.33827  0  3.26038  0  0  -0.269036  0  3.522335  0  0  -0.287322  0  3.539984  0  0  -0.309841  -0.256693  0  3.510278  0
N  N88  1  0.45379159  0.23392517  0.71930128  1  0  -0.33395  0  3.244799  0  0  -0.263314  0  3.514439  0  0  -0.281662  0  3.53043  0  0  -0.308016  -0.250964  0  3.503589  0
N  N89  1  0.54620924  0.76607458  0.28070217  1  0  -0.334009  0  3.244971  0  0  -0.263328  0  3.514494  0  0  -0.281675  0  3.530484  0  0  -0.308019  -0.250977  0  3.503638  0
O  O90  1  0.15948809  0.96651406  0.87663475  1  0  -0.834589  0  1.923293  0  0  -0.769003  0  2.136124  0  0  -0.792867  0  2.100755  0  0  -0.579566  -0.752143  0  2.1606  0
O  O91  1  0.84051184  0.03348757  0.12336645  1  0  -0.834582  0  1.923344  0  0  -0.76897  0  2.136138  0  0  -0.792836  0  2.100768  0  0  -0.579549  -0.752116  0  2.160612  0
O  O92  1  0.09977849  0.08213869  0.17155610  1  0  -0.641432  0  1.948107  0  0  -0.585386  0  2.162936  0  0  -0.60944  0  2.151204  0  0  -0.329568  -0.56859  0  2.170477  0
O  O93  1  0.90022042  0.91786394  0.82844751  1  0  -0.641433  0  1.948111  0  0  -0.585365  0  2.162923  0  0  -0.609421  0  2.151194  0  0  -0.329584  -0.568575  0  2.170469  0
O  O94  1  0.96307570  0.19647361  0.88633702  1  0  -0.665161  0  2.011885  0  0  -0.595826  0  2.242365  0  0  -0.623016  0  2.230825  0  0  -0.323245  -0.576772  0  2.249578  0
O  O95  1  0.03691811  0.80352491  0.11366037  1  0  -0.665119  0  2.012029  0  0  -0.595826  0  2.242507  0  0  -0.62302  0  2.230977  0  0  -0.323224  -0.576775  0  2.249722  0
O  O96  1  0.15943369  0.34370608  0.84958115  1  0  -0.624298  0  1.960001  0  0  -0.563602  0  2.200229  0  0  -0.591048  0  2.189676  0  0  -0.315197  -0.544261  0  2.206562  0
O  O97  1  0.84056230  0.65629143  0.15041276  1  0  -0.624229  0  1.959904  0  0  -0.563581  0  2.200124  0  0  -0.591022  0  2.189561  0  0  -0.315191  -0.544237  0  2.206449  0
O  O98  1  0.30222972  0.10283487  0.00064367  1  0  -0.664585  0  2.027958  0  0  -0.589626  0  2.292151  0  0  -0.618527  0  2.276402  0  0  -0.333429  -0.569345  0  2.302214  0
O  O99  1  0.69776472  0.89716860  0.99935700  1  0  -0.664491  0  2.027833  0  0  -0.589622  0  2.292093  0  0  -0.618526  0  2.276351  0  0  -0.333452  -0.569347  0  2.302154  0
