# generated using pymatgen
data_CoSi2H32C30(SN3)2
_symmetry_space_group_name_H-M   'P 1'
_cell_length_a   9.81297861
_cell_length_b   9.82012901
_cell_length_c   10.38196556
_cell_angle_alpha   63.19185275
_cell_angle_beta   63.37482505
_cell_angle_gamma   79.80909939
_symmetry_Int_Tables_number   1
_chemical_formula_structural   CoSi2H32C30(SN3)2
_chemical_formula_sum   'Co1 Si2 H32 C30 S2 N6'
_cell_volume   797.84162498
_cell_formula_units_Z   1
loop_
 _symmetry_equiv_pos_site_id
 _symmetry_equiv_pos_as_xyz
  1  'x, y, z'
loop_
 _atom_site_type_symbol
 _atom_site_label
 _atom_site_symmetry_multiplicity
 _atom_site_fract_x
 _atom_site_fract_y
 _atom_site_fract_z
 _atom_site_occupancy
 _atom_site_hse06_10hf_ddec_charge
 _atom_site_hse06_10hf_ddec_spin_density
 _atom_site_hse06_10hf_ddec_sum_bond_order
 _atom_site_hse06_10hf_magmom
 _atom_site_hse06_ddec_charge
 _atom_site_hse06_ddec_spin_density
 _atom_site_hse06_ddec_sum_bond_order
 _atom_site_hse06_magmom
 _atom_site_pbe_cm5_charge
 _atom_site_pbe_ddec_charge
 _atom_site_pbe_ddec_spin_density
 _atom_site_pbe_ddec_sum_bond_order
 _atom_site_pbe_magmom
Co  Co0  1  0.30279541  0.69732144  0.49989152  1  0.590856  1.022762  3.283075  0.922  0.646322  1.020497  3.221352  0.931  0.715034  0.559362  1.017828  3.317692  0.907
Si  Si1  1  0.46729626  0.07916641  0.84204204  1  0.794353  0.000853  3.755494  0.001  0.814474  0.00063  3.752834  0.0  0.132362  0.781742  0.001117  3.756149  0.001
Si  Si2  1  0.92084377  0.53259959  0.15794926  1  0.794868  0.000956  3.760093  0.001  0.815063  0.000706  3.757285  0.001  0.131387  0.782163  0.001269  3.76084  0.001
H  H3  1  0.45070657  0.88073674  0.16041667  1  0.072771  0.000284  1.064176  0.001  0.074062  0.000193  1.063172  0.0  0.114455  0.071817  0.000306  1.065002  0.001
H  H4  1  0.11864075  0.54969409  0.83995336  1  0.071903  0.000357  1.064827  0.001  0.073228  0.000249  1.063865  0.001  0.113935  0.070937  0.000393  1.065645  0.001
H  H5  1  0.11213310  0.08759954  0.97538118  1  0.087542  -0.000228  1.034935  0.0  0.089897  -0.000145  1.033212  0.0  0.098083  0.085859  -0.000235  1.036236  0.0
H  H6  1  0.91256728  0.88779847  0.02450127  1  0.087288  -0.000228  1.034689  0.0  0.089666  -0.00015  1.032965  0.0  0.097945  0.085576  -0.000229  1.036021  0.0
H  H7  1  0.91432728  0.96649167  0.25199127  1  0.093131  0.000145  1.07717  0.0  0.096081  0.000108  1.077081  0.0  0.09094  0.092408  0.000187  1.07567  0.0
H  H8  1  0.03344485  0.08624312  0.74790704  1  0.092933  0.00018  1.077317  0.0  0.095879  0.000135  1.077231  0.0  0.090989  0.092248  0.000225  1.07578  0.0
H  H9  1  0.99598112  0.80631281  0.47350834  1  0.089782  0.000332  0.996751  0.001  0.091909  0.000252  0.994464  0.0  0.118734  0.088378  0.000475  0.998257  0.001
H  H10  1  0.19334664  0.00483807  0.52666002  1  0.088482  0.000406  0.99766  0.001  0.090648  0.000307  0.995386  0.001  0.118189  0.08705  0.00057  0.999186  0.001
H  H11  1  0.34291191  0.35956647  0.64958032  1  0.078684  0.000306  1.027436  0.001  0.080215  0.000218  1.026122  0.0  0.115939  0.077931  0.000359  1.028175  0.001
H  H12  1  0.64090791  0.65678829  0.34976320  1  0.0774  0.000376  1.027451  0.001  0.079078  0.000268  1.026048  0.001  0.115658  0.076598  0.000449  1.028191  0.001
H  H13  1  0.61192105  0.26899520  0.91335790  1  0.087152  -0.000302  1.058628  0.0  0.089743  -0.000216  1.056209  0.0  0.092413  0.085143  -0.000323  1.060348  0.0
H  H14  1  0.73091582  0.38799524  0.08677265  1  0.087115  -0.000295  1.058422  0.0  0.089694  -0.000217  1.056092  0.0  0.092486  0.085102  -0.000318  1.060083  0.0
H  H15  1  0.61607639  0.54870540  0.83629103  1  0.103668  0.000289  1.033596  0.0  0.106335  0.000211  1.033652  0.0  0.102068  0.10231  0.000299  1.032694  0.0
H  H16  1  0.45133919  0.38353990  0.16358391  1  0.103368  0.000321  1.034665  0.0  0.106088  0.000235  1.034632  0.0  0.101653  0.102021  0.00034  1.033761  0.0
H  H17  1  0.47293243  0.72048621  0.67497909  1  0.088985  0.000362  1.023715  0.001  0.09101  0.000271  1.02163  0.0  0.116546  0.088693  0.000462  1.023208  0.001
H  H18  1  0.27991014  0.52658561  0.32455949  1  0.088206  0.000431  1.023783  0.001  0.090268  0.00032  1.021749  0.001  0.115963  0.087913  0.000554  1.023232  0.001
H  H19  1  0.38678866  0.93935014  0.73822997  1  0.124637  2.2e-05  1.030512  0.0  0.125794  1.8e-05  1.032292  0.0  0.089745  0.123736  2.5e-05  1.029293  0.0
H  H20  1  0.06072632  0.61304119  0.26185053  1  0.124426  2.8e-05  1.031002  0.0  0.12559  2.2e-05  1.032757  0.0  0.089669  0.123532  3.2e-05  1.029781  0.0
H  H21  1  0.42700313  0.13114123  0.59611546  1  0.135155  4e-06  1.015436  0.0  0.13655  8e-06  1.016553  0.0  0.091942  0.134035  9e-06  1.015221  0.0
H  H22  1  0.86918606  0.57253000  0.40368922  1  0.135586  6e-06  1.014325  0.0  0.136991  9e-06  1.015412  0.0  0.092248  0.134463  1.1e-05  1.014128  0.0
H  H23  1  0.64266960  0.93535587  0.53165211  1  0.075019  -7.3e-05  1.027838  0.0  0.075108  -5.6e-05  1.028899  0.0  0.081517  0.075215  -3.9e-05  1.026776  0.0
H  H24  1  0.06500852  0.35669528  0.46872076  1  0.07482  -7.1e-05  1.029216  0.0  0.074945  -5.6e-05  1.030261  0.0  0.081447  0.074982  -3.6e-05  1.028179  0.0
H  H25  1  0.70238228  0.10197501  0.51790803  1  0.080634  -3.1e-05  0.986497  0.0  0.081037  -2e-05  0.987536  0.0  0.087281  0.080525  -2.6e-05  0.985791  0.0
H  H26  1  0.89839324  0.29712495  0.48215300  1  0.080493  -3.1e-05  0.986531  0.0  0.080912  -1.9e-05  0.987567  0.0  0.087398  0.080348  -2.5e-05  0.98588  0.0
H  H27  1  0.81243873  0.88077857  0.67982521  1  0.075463  -8e-06  1.005885  0.0  0.075807  -3e-06  1.007012  0.0  0.083171  0.074802  1.1e-05  1.005418  0.0
H  H28  1  0.11940834  0.18725951  0.32070787  1  0.074713  -4e-06  1.00641  0.0  0.075057  0.0  1.007526  0.0  0.082906  0.074018  1.9e-05  1.006007  0.0
H  H29  1  0.62996069  0.79033143  0.80645707  1  0.073033  1.6e-05  0.998867  0.0  0.073165  1e-05  1.000025  0.0  0.084233  0.073266  7e-06  0.997191  0.0
H  H30  1  0.20957776  0.36999939  0.19395511  1  0.072896  1.8e-05  0.998793  0.0  0.073026  1.2e-05  0.999942  0.0  0.084005  0.07312  9e-06  0.997139  0.0
H  H31  1  0.74216931  0.07989229  0.77703375  1  0.128074  -5.4e-05  1.032375  0.0  0.129344  -4e-05  1.033667  0.0  0.091898  0.126696  -7.3e-05  1.032473  0.0
H  H32  1  0.92011990  0.25770133  0.22311148  1  0.127749  -5.6e-05  1.032338  0.0  0.12902  -4.3e-05  1.033627  0.0  0.09193  0.126371  -7.3e-05  1.032419  0.0
H  H33  1  0.65866859  0.91411055  0.95135783  1  0.1276  -2.1e-05  1.044125  0.0  0.128807  -9e-06  1.045636  0.0  0.087541  0.126366  -3.7e-05  1.044238  0.0
H  H34  1  0.08561643  0.34152022  0.04894658  1  0.127579  -1.9e-05  1.04418  0.0  0.128783  -6e-06  1.045688  0.0  0.087312  0.126353  -3.4e-05  1.044273  0.0
C  C35  1  0.33355282  0.90300756  0.17444274  1  0.098535  -0.004524  3.96223  -0.003  0.107267  -0.003977  3.98138  -0.003  0.048275  0.092373  -0.005045  3.949974  -0.003
C  C36  1  0.09648877  0.66687126  0.82590509  1  0.098592  -0.004504  3.967048  -0.003  0.107141  -0.004136  3.986291  -0.003  0.048017  0.09269  -0.004855  3.954545  -0.003
C  C37  1  0.30144731  0.99283582  0.04258536  1  -0.275134  0.001363  3.966747  0.002  -0.287693  0.001299  3.989696  0.002  -0.056128  -0.267578  0.001472  3.951824  0.002
C  C38  1  0.00696805  0.69868661  0.95759686  1  -0.27555  0.001492  3.969636  0.002  -0.288033  0.001432  3.992671  0.002  -0.055887  -0.268095  0.001646  3.954674  0.002
C  C39  1  0.14674325  0.01659007  0.07179458  1  -0.002128  -0.006133  3.965705  -0.003  0.004356  -0.004473  3.98316  -0.003  -0.060871  -0.006049  -0.007464  3.953834  -0.004
C  C40  1  0.98339934  0.85341740  0.92820155  1  -0.002844  -0.005974  3.967216  -0.003  0.003384  -0.004541  3.984917  -0.003  -0.060925  -0.006563  -0.007186  3.955207  -0.004
C  C41  1  0.03511759  0.94978947  0.22711797  1  -0.124342  0.001511  3.980408  0.002  -0.133054  0.001406  4.001849  0.002  -0.084471  -0.119844  0.001513  3.966236  0.002
C  C42  1  0.05007358  0.96543822  0.77287796  1  -0.1239  0.001652  3.981349  0.002  -0.132508  0.001553  4.002879  0.002  -0.084773  -0.119456  0.001685  3.967043  0.003
C  C43  1  0.07925088  0.86159985  0.35048950  1  0.087001  -0.005088  3.934909  -0.003  0.096661  -0.004215  3.951055  -0.003  0.048953  0.080612  -0.005154  3.924995  -0.003
C  C44  1  0.13798109  0.92149349  0.64976944  1  0.086921  -0.004868  3.94157  -0.003  0.096376  -0.004233  3.957873  -0.003  0.048002  0.080722  -0.004793  3.931553  -0.003
C  C45  1  0.40312165  0.39487298  0.69642551  1  0.104861  -0.004051  3.949468  -0.003  0.113609  -0.003605  3.967853  -0.002  0.051902  0.098161  -0.004485  3.938271  -0.003
C  C46  1  0.60560725  0.59651785  0.30298560  1  0.105836  -0.004003  3.956343  -0.003  0.114235  -0.003731  3.974801  -0.003  0.051737  0.099432  -0.004264  3.944929  -0.003
C  C47  1  0.47526486  0.28885863  0.78895533  1  -0.276561  0.001532  3.96831  0.002  -0.289031  0.001367  3.99159  0.002  -0.057592  -0.267908  0.00173  3.951674  0.003
C  C48  1  0.71136772  0.52450253  0.21078504  1  -0.275711  0.001637  3.970599  0.002  -0.288091  0.001477  3.994015  0.002  -0.057522  -0.267074  0.001866  3.953739  0.003
C  C49  1  0.55242383  0.34557513  0.84147569  1  -0.005265  -0.00512  3.98003  -0.003  0.001099  -0.003872  3.997231  -0.002  -0.06136  -0.008375  -0.006383  3.966214  -0.004
C  C50  1  0.65446779  0.44737415  0.15844245  1  -0.006221  -0.004958  3.980264  -0.003  -0.000135  -0.003928  3.99774  -0.002  -0.061448  -0.009048  -0.006073  3.966148  -0.004
C  C51  1  0.55383431  0.50169825  0.80017906  1  -0.139971  0.00141  4.007186  0.002  -0.148238  0.001318  4.028255  0.002  -0.088957  -0.13554  0.001618  3.992464  0.002
C  C52  1  0.49839578  0.44577879  0.19960225  1  -0.140565  0.001503  4.007639  0.002  -0.14876  0.001423  4.028856  0.002  -0.089518  -0.136165  0.001732  3.992742  0.002
C  C53  1  0.47608892  0.59770789  0.70995004  1  0.085791  -0.003601  3.936833  -0.002  0.095109  -0.003335  3.953079  -0.002  0.045643  0.079402  -0.003711  3.925419  -0.002
C  C54  1  0.40269197  0.52341376  0.28952130  1  0.086331  -0.003405  3.940517  -0.002  0.095333  -0.003352  3.956878  -0.002  0.046167  0.080155  -0.003412  3.928971  -0.002
C  C55  1  0.46454679  0.03801522  0.68190645  1  -0.488213  -2.6e-05  3.898273  0.0  -0.496583  -6e-06  3.91041  0.0  -0.21061  -0.482226  3.7e-05  3.889721  0.0
C  C56  1  0.96218069  0.53517943  0.31808760  1  -0.488816  -1.4e-05  3.897992  0.0  -0.497209  4e-06  3.910148  0.0  -0.210832  -0.482809  5.7e-05  3.889423  0.0
C  C57  1  0.63164675  0.99623031  0.60234828  1  -0.106963  -1.7e-05  3.961839  0.0  -0.107166  -1e-05  3.97751  0.0  -0.162362  -0.10679  -5e-06  3.950894  0.0
C  C58  1  0.00406717  0.36789634  0.39785169  1  -0.107501  -9e-06  3.962819  0.0  -0.107751  -4e-06  3.978452  0.0  -0.162804  -0.107281  5e-06  3.951897  0.0
C  C59  1  0.69004589  0.90277686  0.73174569  1  -0.091671  2.9e-05  3.95196  0.0  -0.091873  2.7e-05  3.967519  0.0  -0.161374  -0.090885  4.4e-05  3.940237  0.0
C  C60  1  0.09729040  0.30974123  0.26863028  1  -0.090718  4.1e-05  3.951538  0.0  -0.090907  3.4e-05  3.967114  0.0  -0.160884  -0.089923  5.5e-05  3.939826  0.0
C  C61  1  0.65561149  0.98826015  0.83604829  1  -0.491403  -9.4e-05  3.893918  0.0  -0.499654  -5.6e-05  3.906444  0.0  -0.212307  -0.486109  -8.3e-05  3.886655  0.0
C  C62  1  0.01164738  0.34434235  0.16414669  1  -0.491556  -8.5e-05  3.894086  0.0  -0.499794  -4.8e-05  3.906564  0.0  -0.212534  -0.486237  -6.9e-05  3.886832  0.0
C  C63  1  0.05702903  0.45389532  0.68358109  1  0.253917  -0.011762  4.360634  -0.009  0.279645  -0.01115  4.370001  -0.008  0.139122  0.23614  -0.011711  4.3537  -0.008
C  C64  1  0.54629850  0.94298008  0.31634082  1  0.253607  -0.011946  4.360407  -0.009  0.279325  -0.011314  4.369808  -0.008  0.138987  0.235807  -0.011876  4.353479  -0.009
S  S65  1  0.92809802  0.32075294  0.81754504  1  -0.333655  -0.008028  2.360761  -0.003  -0.348986  -0.006957  2.353731  -0.003  -0.16001  -0.324268  -0.009591  2.368254  -0.004
S  S66  1  0.67945479  0.07188116  0.18243209  1  -0.333437  -0.008259  2.361223  -0.004  -0.348816  -0.007141  2.354236  -0.003  -0.15975  -0.323987  -0.009925  2.368721  -0.005
N  N67  1  0.22681946  0.83854430  0.32495732  1  -0.203897  0.016114  3.597462  0.027  -0.227842  0.013552  3.616297  0.023  -0.313836  -0.188099  0.019122  3.583218  0.031
N  N68  1  0.16073416  0.77393187  0.67555157  1  -0.208117  0.019525  3.596073  0.032  -0.231663  0.016468  3.614871  0.028  -0.31344  -0.192595  0.02301  3.581938  0.037
N  N69  1  0.40205831  0.54543096  0.65800956  1  -0.210309  0.017113  3.578098  0.028  -0.233474  0.014526  3.597421  0.025  -0.312331  -0.195498  0.020365  3.565908  0.033
N  N70  1  0.45528961  0.59740771  0.34109210  1  -0.215763  0.020459  3.58047  0.034  -0.238297  0.017373  3.599556  0.029  -0.313218  -0.201198  0.024155  3.568332  0.039
N  N71  1  0.15321500  0.55069820  0.58590868  1  -0.483969  -0.008001  3.58777  -0.003  -0.508969  -0.006472  3.589618  -0.002  -0.425006  -0.468703  -0.008783  3.583778  -0.004
N  N72  1  0.44950265  0.84677125  0.41393338  1  -0.483576  -0.007945  3.588002  -0.003  -0.508609  -0.006403  3.589909  -0.002  -0.425075  -0.468274  -0.00875  3.583949  -0.004
