# generated using pymatgen
data_Cu2H9(C8N5)2
_symmetry_space_group_name_H-M   'P 1'
_cell_length_a   27.63359015
_cell_length_b   29.20761138
_cell_length_c   33.47617472
_cell_angle_alpha   89.85526390
_cell_angle_beta   89.17819896
_cell_angle_gamma   86.46370724
_symmetry_Int_Tables_number   1
_chemical_formula_structural   Cu2H9(C8N5)2
_chemical_formula_sum   'Cu12 H54 C96 N60'
_cell_volume   26964.73780675
_cell_formula_units_Z   6
loop_
 _symmetry_equiv_pos_site_id
 _symmetry_equiv_pos_as_xyz
  1  'x, y, z'
loop_
 _atom_site_type_symbol
 _atom_site_label
 _atom_site_symmetry_multiplicity
 _atom_site_fract_x
 _atom_site_fract_y
 _atom_site_fract_z
 _atom_site_occupancy
 _atom_site_pbe_bader_charge
 _atom_site_pbe_bader_spin_density
 _atom_site_pbe_cm5_charge
 _atom_site_pbe_ddec_charge
 _atom_site_pbe_ddec_spin_density
 _atom_site_pbe_ddec_sum_bond_order
 _atom_site_pbe_magmom
Cu  Cu0  1  0.10237786  0.18393792  0.22370123  1  0.545641  0  0.486265  0.206921  0  2.108331  0
Cu  Cu1  1  0.15824686  0.16138699  0.14372827  1  0.537722  0  0.484214  0.200894  0  2.131512  0
Cu  Cu2  1  0.19582264  0.11317556  0.22290017  1  0.54881  0  0.490541  0.216182  0  2.088327  0
Cu  Cu3  1  0.90074891  0.81704929  0.20869624  1  0.543202  0  0.48727  0.206256  0  2.118889  0
Cu  Cu4  1  0.84694726  0.82795747  0.12714352  1  0.542769  0  0.48407  0.201628  0  2.123901  0
Cu  Cu5  1  0.79661913  0.86786319  0.20652174  1  0.548401  0  0.491659  0.215408  0  2.100015  0
Cu  Cu6  1  0.87757634  0.22327500  0.79177151  1  0.550563  0  0.491737  0.213951  0  2.102156  0
Cu  Cu7  1  0.81347664  0.21337438  0.86969475  1  0.535515  0  0.485323  0.205497  0  2.113144  0
Cu  Cu8  1  0.82177144  0.13237742  0.80826002  1  0.542145  0  0.483682  0.203802  0  2.112673  0
Cu  Cu9  1  0.13641562  0.77953111  0.77491331  1  0.549304  0  0.491776  0.216336  0  2.096432  0
Cu  Cu10  1  0.18501521  0.81634302  0.85245736  1  0.537848  0  0.48523  0.200241  0  2.133873  0
Cu  Cu11  1  0.18803786  0.87448321  0.77361672  1  0.545264  0  0.485842  0.206641  0  2.106242  0
H  H12  1  0.04529521  0.28009154  0.19984783  1  0.111106  0  0.127922  0.123598  0  0.977007  0
H  H13  1  0.11420438  0.23937011  0.08727583  1  0.0595  0  0.118265  0.109764  0  0.993453  0
H  H14  1  0.18642375  0.06927202  0.30934029  1  0.128354  0  0.127172  0.123039  0  0.976439  0
H  H15  1  0.05105440  0.15189970  0.30313176  1  0.094842  0  0.120261  0.112326  0  0.990127  0
H  H16  1  0.22719037  0.11020554  0.07963311  1  0.067508  0  0.11811  0.109551  0  0.99214  0
H  H17  1  0.29325621  0.05960088  0.18912810  1  0.121321  0  0.128376  0.123987  0  0.976921  0
H  H18  1  0.97261111  0.72892930  0.18924354  1  0.119065  0  0.127387  0.122409  0  0.977376  0
H  H19  1  0.90700110  0.75477506  0.07393665  1  0.077636  0  0.117865  0.1093  0  0.992653  0
H  H20  1  0.79108753  0.91368315  0.29335099  1  0.11687  0  0.127788  0.123339  0  0.97754  0
H  H21  1  0.93970889  0.85695552  0.28941654  1  0.105273  0  0.12043  0.112397  0  0.990735  0
H  H22  1  0.77198084  0.86905601  0.06281923  1  0.099818  0  0.117819  0.109181  0  0.993789  0
H  H23  1  0.69201899  0.89874873  0.17295582  1  0.134094  0  0.128298  0.124012  0  0.977575  0
H  H24  1  0.93941808  0.30766661  0.81578661  1  0.08489  0  0.127939  0.123353  0  0.977989  0
H  H25  1  0.85766610  0.28778382  0.92524264  1  0.093261  0  0.119211  0.111533  0  0.991434  0
H  H26  1  0.85423920  0.07478211  0.73159738  1  0.102054  0  0.118405  0.109632  0  0.991795  0
H  H27  1  0.91358049  0.20468396  0.70186045  1  0.124802  0  0.128262  0.123841  0  0.976991  0
H  H28  1  0.71751238  0.18783551  0.91780536  1  0.119472  0  0.126507  0.121593  0  0.979193  0
H  H29  1  0.74718917  0.06487819  0.84731697  1  0.085682  0  0.119163  0.111644  0  0.992062  0
H  H30  1  0.10552371  0.68164785  0.80645339  1  0.111005  0  0.128484  0.12355  0  0.978515  0
H  H31  1  0.15373841  0.74247600  0.91575418  1  0.124445  0  0.118228  0.109861  0  0.992507  0
H  H32  1  0.13815153  0.92135535  0.69841785  1  0.093193  0  0.119737  0.111608  0  0.990566  0
H  H33  1  0.07529594  0.78917141  0.69535819  1  0.123019  0  0.127435  0.123106  0  0.97715  0
H  H34  1  0.25257679  0.87086405  0.90796092  1  0.081469  0  0.118594  0.110258  0  0.991779  0
H  H35  1  0.27143648  0.94269941  0.79591639  1  0.14344  0  0.127696  0.123295  0  0.978517  0
H  H36  1  0.46044305  0.97823725  0.92195382  1  0.120241  0  0.117563  0.13345  0  0.989221  0
H  H37  1  0.46109211  0.01394886  0.04747387  1  0.095644  0  0.119957  0.136088  0  0.991222  0
H  H38  1  0.52695281  0.04548790  0.93752523  1  0.117113  0  0.11873  0.134991  0  0.98773  0
H  H39  1  0.52630276  0.94610952  0.03364748  1  0.134724  0  0.118358  0.132477  0  1.000598  0
H  H40  1  0.32583291  0.99958094  0.98772888  1  0.079088  0  0.113181  0.125073  0  1.007508  0
H  H41  1  0.66029931  0.00093739  0.99465524  1  0.071892  0  0.112681  0.124917  0  1.00783  0
H  H42  1  0.99614687  0.47555436  0.94695800  1  0.103058  0  0.118913  0.133622  0  0.995661  0
H  H43  1  0.04312117  0.46401078  0.06984603  1  0.115691  0  0.119416  0.135439  0  0.988472  0
H  H44  1  0.00096416  0.53847553  0.06783724  1  0.116271  0  0.119147  0.135236  0  0.989441  0
H  H45  1  0.06011142  0.52392327  0.94749346  1  0.106834  0  0.118664  0.132897  0  1.002029  0
H  H46  1  0.99514847  0.34602926  0.00847508  1  0.092915  0  0.113416  0.124809  0  1.007971  0
H  H47  1  0.04782739  0.65635144  0.00443327  1  0.091732  0  0.11231  0.122912  0  1.01428  0
H  H48  1  0.91218458  0.95586247  0.47363899  1  0.112929  0  0.119819  0.138005  0  0.980339  0
H  H49  1  0.03708084  0.03799368  0.48081301  1  0.117864  0  0.119255  0.136638  0  0.981087  0
H  H50  1  0.00846992  0.92714511  0.52900891  1  0.119896  0  0.119153  0.136513  0  0.980529  0
H  H51  1  0.93770583  0.06366127  0.53381437  1  0.113168  0  0.119057  0.136177  0  0.986407  0
H  H52  1  0.98307548  0.00052703  0.36618645  1  0.092991  0  0.1147  0.126063  0  1.006487  0
H  H53  1  0.97825303  0.99261968  0.64243193  1  0.066909  0  0.113784  0.124436  0  1.010055  0
H  H54  1  0.06015714  0.31244603  0.05007812  1  0.124175  0  0.129897  0.136523  0  0.992913  0
H  H55  1  0.97520858  0.68699467  0.04119400  1  0.119759  0  0.129009  0.13526  0  0.99425  0
H  H56  1  0.92813711  0.33959849  0.96522485  1  0.109702  0  0.129859  0.136433  0  0.993873  0
H  H57  1  0.10178472  0.67514525  0.95853100  1  0.089993  0  0.129427  0.135356  0  0.997311  0
H  H58  1  0.01274672  0.07650871  0.35215086  1  0.123867  0  0.131518  0.138652  0  0.988635  0
H  H59  1  0.05964570  0.95561611  0.65120969  1  0.120681  0  0.130657  0.137606  0  0.990901  0
H  H60  1  0.95959490  0.92700032  0.34612810  1  0.106104  0  0.130801  0.137295  0  0.991691  0
H  H61  1  0.91221281  0.03582964  0.66737238  1  0.087914  0  0.130259  0.136712  0  0.992966  0
H  H62  1  0.30090634  0.05740644  0.03586847  1  0.110484  0  0.129461  0.135773  0  0.993877  0
H  H63  1  0.69000881  0.02344028  0.92512798  1  0.118102  0  0.129035  0.134949  0  0.994282  0
H  H64  1  0.30962363  0.93523817  0.94487826  1  0.109255  0  0.129633  0.136753  0  0.99302  0
H  H65  1  0.69474287  0.93617888  0.02631945  1  0.096581  0  0.128437  0.133348  0  0.999025  0
C  C66  1  0.06535605  0.26312195  0.17543311  1  0.423577  0  0.016142  -0.031179  0  3.922556  0
C  C67  1  0.07045183  0.27743978  0.13561234  1  0.0567  0  -0.035253  -0.040389  0  4.107951  0
C  C68  1  0.10016380  0.24238483  0.11765930  1  0.426017  0  0.002253  -0.05964  0  3.975867  0
C  C69  1  0.15615654  0.09295168  0.30172274  1  0.385205  0  0.013457  -0.036472  0  3.931804  0
C  C70  1  0.11175148  0.10157841  0.32196708  1  0.062893  0  -0.034199  -0.040333  0  4.107559  0
C  C71  1  0.08661810  0.13470288  0.29843325  1  0.398636  0  0.003737  -0.057311  0  3.970832  0
C  C72  1  0.23698996  0.10134230  0.11009953  1  0.420084  0  0.002605  -0.057777  0  3.971506  0
C  C73  1  0.27666477  0.07425974  0.12455653  1  0.026497  0  -0.035848  -0.044041  0  4.109785  0
C  C74  1  0.27060937  0.07578960  0.16627575  1  0.446792  0  0.016539  -0.02948  0  3.91916  0
C  C75  1  0.95224787  0.74202651  0.16376739  1  0.452916  0  0.015993  -0.029481  0  3.922792  0
C  C76  1  0.95196322  0.72498839  0.12461519  1  0.019841  0  -0.03511  -0.04232  0  4.108699  0
C  C77  1  0.91915357  0.75527774  0.10461419  1  0.404797  0  0.002291  -0.058351  0  3.971992  0
C  C78  1  0.82582005  0.89609396  0.28617032  1  0.445087  0  0.015101  -0.033084  0  3.928887  0
C  C79  1  0.86915087  0.89483743  0.30757503  1  0.042331  0  -0.034152  -0.040008  0  4.106103  0
C  C80  1  0.90202545  0.86757917  0.28410737  1  0.372599  0  0.00386  -0.057982  0  3.970536  0
C  C81  1  0.75936122  0.87412520  0.09343281  1  0.355569  0  0.00242  -0.058786  0  3.97323  0
C  C82  1  0.71426594  0.89167035  0.10827860  1  0.05368  0  -0.035172  -0.041612  0  4.108854  0
C  C83  1  0.71855487  0.88867307  0.14995348  1  0.428107  0  0.017091  -0.030656  0  3.92687  0
C  C84  1  0.91497392  0.29709434  0.83921736  1  0.458147  0  0.015086  -0.031714  0  3.926395  0
C  C85  1  0.91018009  0.31254992  0.87882761  1  -0.019336  0  -0.035319  -0.043166  0  4.110311  0
C  C86  1  0.87358394  0.28685703  0.89539953  1  0.407033  0  0.003575  -0.057853  0  3.971949  0
C  C87  1  0.86654570  0.10935268  0.73068601  1  0.375822  0  0.003101  -0.058113  0  3.973157  0
C  C88  1  0.89115596  0.13192053  0.70021555  1  0.0876  0  -0.035074  -0.042389  0  4.109629  0
C  C89  1  0.89635406  0.17602288  0.71547265  1  0.404628  0  0.01538  -0.0325  0  3.924952  0
C  C90  1  0.73174671  0.16126240  0.89750346  1  0.422373  0  0.013651  -0.036243  0  3.938217  0
C  C91  1  0.71529378  0.11739239  0.89114062  1  0.044347  0  -0.035401  -0.041993  0  4.106149  0
C  C92  1  0.74710250  0.09801775  0.86192159  1  0.380776  0  0.003214  -0.05717  0  3.974742  0
C  C93  1  0.11997838  0.70297418  0.82932505  1  0.412422  0  0.016916  -0.028701  0  3.923171  0
C  C94  1  0.12242152  0.69543918  0.87069965  1  0.075836  0  -0.034923  -0.042109  0  4.112344  0
C  C95  1  0.14417266  0.73399524  0.88543168  1  0.351751  0  0.00194  -0.060086  0  3.975113  0
C  C96  1  0.12716276  0.88672564  0.70336025  1  0.441197  0  0.003546  -0.057479  0  3.970599  0
C  C97  1  0.09388588  0.86174179  0.68250759  1  0.018361  0  -0.03495  -0.041345  0  4.108831  0
C  C98  1  0.09549858  0.81892110  0.70167170  1  0.419563  0  0.014818  -0.032737  0  3.925955  0
C  C99  1  0.25092777  0.88448813  0.87777284  1  0.394177  0  0.002285  -0.058838  0  3.974936  0
C  C100  1  0.27728057  0.91869508  0.85971664  1  0.058594  0  -0.03478  -0.0403  0  4.107424  0
C  C101  1  0.26065891  0.92082354  0.82028559  1  0.387385  0  0.014944  -0.033051  0  3.92425  0
C  C102  1  0.44151434  0.98713433  0.94988492  1  0.007273  0  -0.080676  -0.209337  0  3.907059  0
C  C103  1  0.46690429  0.99609594  0.98464816  1  -0.013072  0  0.004384  0.109868  0  3.996206  0
C  C104  1  0.44171362  0.00627776  0.02045386  1  0.051549  0  -0.078735  -0.207103  0  3.899817  0
C  C105  1  0.39110883  0.00836932  0.02121890  1  0.313646  0  0.104817  0.187605  0  4.045292  0
C  C106  1  0.36527927  0.99866352  0.98704877  1  0.021672  0  -0.092202  -0.263161  0  3.958912  0
C  C107  1  0.39093659  0.98753398  0.95177715  1  0.310418  0  0.102952  0.180378  0  4.045709  0
C  C108  1  0.52058910  0.99516932  0.98495597  1  -0.006265  0  0.002994  0.107669  0  4.001607  0
C  C109  1  0.54594027  0.02306687  0.95897220  1  0.006594  0  -0.080491  -0.209441  0  3.913294  0
C  C110  1  0.59612282  0.02435246  0.96260632  1  0.345338  0  0.102259  0.180781  0  4.046855  0
C  C111  1  0.62168452  0.99734369  0.99071425  1  0.033727  0  -0.092581  -0.260481  0  3.949902  0
C  C112  1  0.59595405  0.96890764  0.01580287  1  0.369204  0  0.104592  0.185624  0  4.040096  0
C  C113  1  0.54561746  0.96783971  0.01322513  1  -0.027764  0  -0.081088  -0.211642  0  3.912906  0
C  C114  1  0.00353549  0.45543644  0.97384458  1  0.032539  0  -0.079407  -0.206038  0  3.903937  0
C  C115  1  0.02089345  0.47573064  0.00833666  1  0.015202  0  0.003074  0.105094  0  3.995073  0
C  C116  1  0.02880234  0.44926122  0.04294853  1  -0.014745  0  -0.078989  -0.206626  0  3.900341  0
C  C117  1  0.01983301  0.40274891  0.04242122  1  0.320351  0  0.103204  0.182428  0  4.045361  0
C  C118  1  0.00219112  0.38228837  0.00836343  1  0.034694  0  -0.090767  -0.259234  0  3.956073  0
C  C119  1  0.99388503  0.40910129  0.97428686  1  0.276296  0  0.104117  0.184059  0  4.049255  0
C  C120  1  0.03004038  0.52512890  0.00789174  1  0.032288  0  0.00261  0.105395  0  3.998432  0
C  C121  1  0.01753073  0.55267984  0.04120652  1  -0.000153  0  -0.079866  -0.208059  0  3.906945  0
C  C122  1  0.02394724  0.59963070  0.03927648  1  0.304087  0  0.102567  0.182764  0  4.053443  0
C  C123  1  0.04337155  0.61961272  0.00519649  1  0.009236  0  -0.093279  -0.263319  0  3.959209  0
C  C124  1  0.05621192  0.59178440  0.97239477  1  0.28933  0  0.10453  0.187314  0  4.042632  0
C  C125  1  0.04961267  0.54477607  0.97346695  1  0.046219  0  -0.080313  -0.209386  0  3.903089  0
C  C126  1  0.94061119  0.97461952  0.45938224  1  0.064418  0  -0.078235  -0.207006  0  3.901679  0
C  C127  1  0.97398400  0.99720000  0.48209696  1  0.001272  0  0.004847  0.105153  0  3.994444  0
C  C128  1  0.01063795  0.02086416  0.46332684  1  -0.059623  0  -0.078702  -0.206816  0  3.907564  0
C  C129  1  0.01348483  0.02191703  0.42168029  1  0.347848  0  0.102863  0.183287  0  4.051853  0
C  C130  1  0.98047011  0.99967586  0.39865365  1  0.049159  0  -0.088952  -0.256092  0  3.956376  0
C  C131  1  0.94437168  0.97597271  0.41771351  1  0.231884  0  0.103777  0.182153  0  4.04423  0
C  C132  1  0.97245989  0.99533840  0.52657552  1  0.076923  0  0.005016  0.107099  0  3.994075  0
C  C133  1  0.99283268  0.95633980  0.54596968  1  0.013736  0  -0.078832  -0.206586  0  3.907791  0
C  C134  1  0.99528765  0.95617086  0.58758788  1  0.307402  0  0.103425  0.173909  0  4.050198  0
C  C135  1  0.97602877  0.99332244  0.61000508  1  0.012964  0  -0.090695  -0.259501  0  3.96427  0
C  C136  1  0.95488544  0.03155015  0.59035423  1  0.361794  0  0.104948  0.185623  0  4.04268  0
C  C137  1  0.95347805  0.03316690  0.54863504  1  -0.043924  0  -0.079602  -0.208829  0  3.902654  0
C  C138  1  0.05115942  0.31941709  0.11715036  1  0.418534  0  0.085928  0.120412  0  4.121033  0
C  C139  1  0.04897292  0.33082699  0.07702601  1  0.341413  0  0.010267  -0.17084  0  3.898868  0
C  C140  1  0.97761065  0.68418011  0.10872202  1  0.443656  0  0.085669  0.122031  0  4.122142  0
C  C141  1  0.98523671  0.67098597  0.06934512  1  0.333308  0  0.009622  -0.171158  0  3.902798  0
C  C142  1  0.93814511  0.34611626  0.89830280  1  0.516518  0  0.087098  0.122952  0  4.120115  0
C  C143  1  0.94372617  0.35429249  0.93863870  1  0.313784  0  0.010749  -0.17012  0  3.897898  0
C  C144  1  0.10382737  0.65763387  0.89286204  1  0.447613  0  0.087796  0.122925  0  4.123268  0
C  C145  1  0.09519585  0.65319367  0.93344653  1  0.366908  0  0.010287  -0.169272  0  3.897243  0
C  C146  1  0.09410734  0.07860091  0.35719674  1  0.484569  0  0.087253  0.124465  0  4.114531  0
C  C147  1  0.04699897  0.06869778  0.36675003  1  0.281084  0  0.012089  -0.169408  0  3.903621  0
C  C148  1  0.06301898  0.87801935  0.65021412  1  0.411083  0  0.085841  0.122322  0  4.124726  0
C  C149  1  0.04983314  0.92287096  0.63975423  1  0.351821  0  0.011572  -0.178362  0  3.896925  0
C  C150  1  0.87897865  0.91815560  0.34441827  1  0.411264  0  0.086063  0.122739  0  4.120765  0
C  C151  1  0.92299655  0.93137315  0.35807588  1  0.36945  0  0.012424  -0.169629  0  3.90352  0
C  C152  1  0.90915207  0.11309757  0.66252113  1  0.409435  0  0.086696  0.123457  0  4.118896  0
C  C153  1  0.91777834  0.06760985  0.65176514  1  0.376081  0  0.011288  -0.169121  0  3.898936  0
C  C154  1  0.31566039  0.05064310  0.10204143  1  0.474806  0  0.086825  0.122062  0  4.119204  0
C  C155  1  0.32213784  0.04539015  0.06117257  1  0.298635  0  0.010074  -0.169232  0  3.890198  0
C  C156  1  0.67361862  0.09839489  0.91043014  1  0.459896  0  0.086534  0.122254  0  4.108274  0
C  C157  1  0.66683211  0.05471064  0.92478950  1  0.331098  0  0.010627  -0.16981  0  3.906074  0
C  C158  1  0.31433343  0.94442783  0.87779310  1  0.459776  0  0.085284  0.122241  0  4.12242  0
C  C159  1  0.32518239  0.94880617  0.91778616  1  0.323912  0  0.01  -0.174419  0  3.899413  0
C  C160  1  0.67226732  0.91030294  0.08704573  1  0.392348  0  0.087311  0.121549  0  4.11668  0
C  C161  1  0.66828498  0.93035239  0.04962713  1  0.395916  0  0.010455  -0.168722  0  3.897254  0
N  N162  1  0.11193254  0.20960795  0.14484584  1  -0.776253  0  -0.340728  -0.141809  0  3.777692  0
N  N163  1  0.09028457  0.22242356  0.18065827  1  -0.771779  0  -0.334567  -0.138689  0  3.756541  0
N  N164  1  0.11405816  0.14492446  0.26638020  1  -0.768941  0  -0.337078  -0.139534  0  3.77472  0
N  N165  1  0.15712616  0.11884163  0.26831485  1  -0.779777  0  -0.33476  -0.140844  0  3.748694  0
N  N166  1  0.23017300  0.10187002  0.17582023  1  -0.787955  0  -0.334189  -0.140246  0  3.754678  0
N  N167  1  0.20933288  0.11777095  0.14098684  1  -0.775563  0  -0.339747  -0.141278  0  3.775305  0
N  N168  1  0.90111117  0.78794671  0.13005260  1  -0.770254  0  -0.339306  -0.141636  0  3.769623  0
N  N169  1  0.92174269  0.77976096  0.16671574  1  -0.786534  0  -0.336244  -0.139782  0  3.761417  0
N  N170  1  0.87982060  0.85364611  0.25109375  1  -0.768301  0  -0.338313  -0.139064  0  3.77833  0
N  N171  1  0.83260286  0.87144760  0.25230699  1  -0.768897  0  -0.335831  -0.141769  0  3.757884  0
N  N172  1  0.76312648  0.87091740  0.15918334  1  -0.774192  0  -0.335665  -0.139716  0  3.757357  0
N  N173  1  0.78844378  0.86168114  0.12415421  1  -0.764771  0  -0.339131  -0.140898  0  3.769739  0
N  N174  1  0.85779458  0.25812755  0.86764868  1  -0.761256  0  -0.337637  -0.14004  0  3.773559  0
N  N175  1  0.88357894  0.26441654  0.83285392  1  -0.767697  0  -0.335104  -0.139561  0  3.762244  0
N  N176  1  0.87643621  0.17924900  0.75244597  1  -0.763909  0  -0.335342  -0.139216  0  3.75751  0
N  N177  1  0.85785007  0.13793131  0.76187183  1  -0.773024  0  -0.337297  -0.139389  0  3.775097  0
N  N178  1  0.78014702  0.12827493  0.85161660  1  -0.770537  0  -0.339569  -0.144384  0  3.764876  0
N  N179  1  0.77073757  0.16737022  0.87392837  1  -0.773565  0  -0.335688  -0.136579  0  3.760434  0
N  N180  1  0.15376767  0.76249814  0.85499482  1  -0.773761  0  -0.339046  -0.138394  0  3.779643  0
N  N181  1  0.13866714  0.74330356  0.82022222  1  -0.768172  0  -0.335217  -0.141432  0  3.755628  0
N  N182  1  0.12723844  0.81869291  0.73195492  1  -0.782209  0  -0.335252  -0.14213  0  3.757011  0
N  N183  1  0.14696570  0.86073640  0.73294486  1  -0.783777  0  -0.337322  -0.139454  0  3.774631  0
N  N184  1  0.22679529  0.89004369  0.81537511  1  -0.775458  0  -0.334283  -0.138143  0  3.754823  0
N  N185  1  0.22086632  0.86744369  0.85100779  1  -0.773709  0  -0.341303  -0.142066  0  3.783156  0
N  N186  1  0.02018646  0.39042584  0.11433649  1  -0.086003  0  -0.098129  -0.108558  0  3.120212  0
N  N187  1  0.03285307  0.35693514  0.13866856  1  -0.520037  0  -0.205584  -0.21313  0  3.214501  0
N  N188  1  0.02992273  0.37496113  0.07634438  1  -0.84698  0  -0.125157  0.10597  0  3.821269  0
N  N189  1  0.01548160  0.61584963  0.11038122  1  -0.070094  0  -0.097652  -0.106854  0  3.122787  0
N  N190  1  0.99708797  0.64941574  0.13261435  1  -0.544058  0  -0.206165  -0.214808  0  3.215357  0
N  N191  1  0.00845123  0.62853635  0.07144894  1  -0.841357  0  -0.12495  0.104786  0  3.827653  0
N  N192  1  0.98775747  0.40179075  0.90236981  1  -0.056191  0  -0.094972  -0.104355  0  3.124383  0
N  N193  1  0.96591967  0.37600399  0.87744867  1  -0.541267  0  -0.205026  -0.21435  0  3.218291  0
N  N194  1  0.97455032  0.38890522  0.94013719  1  -0.870647  0  -0.125071  0.106425  0  3.818342  0
N  N195  1  0.07204059  0.59119584  0.90113454  1  -0.085347  0  -0.091771  -0.099295  0  3.131475  0
N  N196  1  0.08906945  0.61874922  0.87446711  1  -0.540601  0  -0.201915  -0.210798  0  3.217597  0
N  N197  1  0.07548569  0.61175577  0.93762576  1  -0.845259  0  -0.123583  0.105635  0  3.816112  0
N  N198  1  0.09772477  0.04007804  0.41361241  1  -0.086733  0  -0.100252  -0.112357  0  3.118344  0
N  N199  1  0.12370141  0.06032267  0.38676675  1  -0.515417  0  -0.206134  -0.213515  0  3.217767  0
N  N200  1  0.05039236  0.04502093  0.40176308  1  -0.852405  0  -0.126165  0.10365  0  3.819132  0
N  N201  1  0.01437365  0.87441720  0.59911673  1  -0.076692  0  -0.100798  -0.121102  0  3.110545  0
N  N202  1  0.04025173  0.84971348  0.62456907  1  -0.529022  0  -0.207297  -0.215993  0  3.217755  0
N  N203  1  0.01988761  0.91944864  0.60811315  1  -0.847469  0  -0.125642  0.132305  0  3.791715  0
N  N204  1  0.86360845  0.95284435  0.40176752  1  -0.098742  0  -0.099067  -0.112767  0  3.118091  0
N  N205  1  0.84381536  0.93215944  0.37216556  1  -0.514138  0  -0.206711  -0.214302  0  3.216747  0
N  N206  1  0.91233219  0.95258899  0.39356701  1  -0.856943  0  -0.125427  0.108605  0  3.818053  0
N  N207  1  0.93830246  0.11335584  0.60113785  1  -0.070752  0  -0.096659  -0.107532  0  3.121728  0
N  N208  1  0.92232636  0.13968557  0.63051290  1  -0.54697  0  -0.204421  -0.212699  0  3.215106  0
N  N209  1  0.93570766  0.06886347  0.61367716  1  -0.84964  0  -0.124851  0.105767  0  3.814468  0
N  N210  1  0.38578308  0.01212922  0.09336116  1  -0.068207  0  -0.093563  -0.10274  0  3.132578  0
N  N211  1  0.35548816  0.02941907  0.12031527  1  -0.513399  0  -0.203278  -0.211448  0  3.218398  0
N  N212  1  0.36592467  0.02157037  0.05681760  1  -0.861115  0  -0.123925  0.103644  0  3.819794  0
N  N213  1  0.59983172  0.10061512  0.93580542  1  -0.078982  0  -0.095313  -0.103803  0  3.130444  0
N  N214  1  0.63158601  0.12508675  0.91805263  1  -0.537552  0  -0.204849  -0.213368  0  3.227788  0
N  N215  1  0.62075980  0.05708212  0.94007002  1  -0.861434  0  -0.125532  0.103053  0  3.808157  0
N  N216  1  0.37789293  0.98590523  0.87998657  1  -0.070113  0  -0.099293  -0.11223  0  3.126376  0
N  N217  1  0.34741969  0.96799370  0.85594965  1  -0.528373  0  -0.207341  -0.216341  0  3.218939  0
N  N218  1  0.36473096  0.97443917  0.91806827  1  -0.861499  0  -0.124053  0.112925  0  3.821213  0
N  N219  1  0.59535953  0.93176394  0.08011225  1  -0.083503  0  -0.090136  -0.096637  0  3.13387  0
N  N220  1  0.62658186  0.91208471  0.10438758  1  -0.517536  0  -0.201206  -0.210892  0  3.222595  0
N  N221  1  0.62021245  0.94321286  0.04615529  1  -0.876536  0  -0.123628  0.106658  0  3.806693  0
