# generated using pymatgen
data_CdH16C20S2(IN3)2
_symmetry_space_group_name_H-M   'P 1'
_cell_length_a   6.76874371
_cell_length_b   8.85753097
_cell_length_c   22.68968079
_cell_angle_alpha   79.24132141
_cell_angle_beta   81.42757184
_cell_angle_gamma   67.53433124
_symmetry_Int_Tables_number   1
_chemical_formula_structural   CdH16C20S2(IN3)2
_chemical_formula_sum   'Cd2 H32 C40 S4 I4 N12'
_cell_volume   1230.47503426
_cell_formula_units_Z   2
loop_
 _symmetry_equiv_pos_site_id
 _symmetry_equiv_pos_as_xyz
  1  'x, y, z'
loop_
 _atom_site_type_symbol
 _atom_site_label
 _atom_site_symmetry_multiplicity
 _atom_site_fract_x
 _atom_site_fract_y
 _atom_site_fract_z
 _atom_site_occupancy
 _atom_site_hle17_bader_spin_density
 _atom_site_hle17_ddec_charge
 _atom_site_hle17_ddec_spin_density
 _atom_site_hle17_ddec_sum_bond_order
 _atom_site_hle17_magmom
 _atom_site_hse06_10hf_bader_spin_density
 _atom_site_hse06_10hf_ddec_charge
 _atom_site_hse06_10hf_ddec_spin_density
 _atom_site_hse06_10hf_ddec_sum_bond_order
 _atom_site_hse06_10hf_magmom
 _atom_site_hse06_bader_spin_density
 _atom_site_hse06_ddec_charge
 _atom_site_hse06_ddec_spin_density
 _atom_site_hse06_ddec_sum_bond_order
 _atom_site_hse06_magmom
 _atom_site_pbe_bader_spin_density
 _atom_site_pbe_cm5_charge
 _atom_site_pbe_ddec_charge
 _atom_site_pbe_ddec_spin_density
 _atom_site_pbe_ddec_sum_bond_order
 _atom_site_pbe_magmom
Cd  Cd0  1  0.87034702  0.25030669  0.74989540  1  0  0.756621  0  2.107893  0  0  0.587829  0  2.572755  0  0  0.634119  0  2.536251  0  0  0.524615  0.556264  0  2.596736  0
Cd  Cd1  1  0.12965525  0.74968646  0.25010665  1  0  0.756647  0  2.107888  0  0  0.587859  0  2.572724  0  0  0.63415  0  2.536221  0  0  0.524651  0.556297  0  2.596709  0
H  H2  1  0.05729590  0.72166181  0.05607152  1  0  0.064279  0  0.967124  0  0  0.073748  0  1.034334  0  0  0.076844  0  1.030354  0  0  0.095383  0.071402  0  1.037278  0
H  H3  1  0.83497196  0.77846459  0.44385635  1  0  0.063853  0  0.966919  0  0  0.073396  0  1.034025  0  0  0.076497  0  1.030051  0  0  0.095273  0.071063  0  1.036954  0
H  H4  1  0.94269846  0.27834367  0.94392749  1  0  0.064287  0  0.967117  0  0  0.073754  0  1.034329  0  0  0.076849  0  1.030351  0  0  0.095383  0.071404  0  1.037272  0
H  H5  1  0.16502514  0.22153720  0.55614336  1  0  0.063864  0  0.966906  0  0  0.073409  0  1.034011  0  0  0.076511  0  1.030036  0  0  0.095293  0.071079  0  1.036938  0
H  H6  1  0.07557886  0.77105231  0.94204001  1  0  0.115677  0  0.97502  0  0  0.12148  0  1.04611  0  0  0.12576  0  1.044233  0  0  0.094242  0.118356  0  1.047769  0
H  H7  1  0.78871586  0.72900725  0.55788040  1  0  0.115994  0  0.975123  0  0  0.121349  0  1.046523  0  0  0.125646  0  1.044619  0  0  0.093964  0.118224  0  1.048203  0
H  H8  1  0.92441524  0.22895070  0.05795905  1  0  0.115744  0  0.975024  0  0  0.121552  0  1.046097  0  0  0.125838  0  1.044214  0  0  0.094262  0.118422  0  1.047774  0
H  H9  1  0.21128830  0.27098960  0.44211932  1  0  0.115994  0  0.97516  0  0  0.121339  0  1.046577  0  0  0.125636  0  1.044674  0  0  0.093955  0.118215  0  1.048258  0
H  H10  1  0.98982157  0.71059374  0.85108363  1  0  0.098113  0  0.958177  0  0  0.10272  0  1.031538  0  0  0.106084  0  1.028225  0  0  0.101253  0.100225  0  1.034007  0
H  H11  1  0.55100910  0.78973518  0.64899333  1  0  0.098033  0  0.957158  0  0  0.102584  0  1.030709  0  0  0.105938  0  1.02741  0  0  0.100999  0.100084  0  1.033186  0
H  H12  1  0.01018104  0.28940803  0.14891356  1  0  0.098121  0  0.958127  0  0  0.102726  0  1.031489  0  0  0.106091  0  1.028175  0  0  0.101254  0.100232  0  1.033958  0
H  H13  1  0.44898858  0.21026537  0.35100644  1  0  0.098008  0  0.957201  0  0  0.102569  0  1.030736  0  0  0.105925  0  1.027434  0  0  0.100981  0.100062  0  1.033219  0
H  H14  1  0.61828506  0.33487942  0.87304293  1  0  0.077803  0  0.973917  0  0  0.077856  0  1.0556  0  0  0.081317  0  1.051467  0  0  0.10433  0.075262  0  1.058665  0
H  H15  1  0.82633031  0.16506103  0.62683289  1  0  0.078087  0  0.974014  0  0  0.07809  0  1.055494  0  0  0.081652  0  1.051309  0  0  0.10444  0.07545  0  1.058591  0
H  H16  1  0.38171258  0.66512237  0.12695772  1  0  0.077798  0  0.973941  0  0  0.07785  0  1.055614  0  0  0.081311  0  1.051481  0  0  0.104329  0.075255  0  1.058678  0
H  H17  1  0.17367262  0.83493582  0.37316954  1  0  0.078116  0  0.974096  0  0  0.078107  0  1.055618  0  0  0.081669  0  1.051432  0  0  0.104452  0.075467  0  1.058714  0
H  H18  1  0.42449647  0.51559069  0.70031864  1  0  0.070603  0  0.960195  0  0  0.073404  0  1.036858  0  0  0.076445  0  1.033852  0  0  0.104213  0.071152  0  1.039065  0
H  H19  1  0.64138891  0.98445182  0.79964116  1  0  0.071385  0  0.960167  0  0  0.073639  0  1.037452  0  0  0.076675  0  1.034458  0  0  0.104359  0.07139  0  1.039642  0
H  H20  1  0.57551311  0.48440862  0.29968034  1  0  0.070614  0  0.960206  0  0  0.073414  0  1.036865  0  0  0.076455  0  1.033859  0  0  0.104225  0.071161  0  1.039072  0
H  H21  1  0.35860506  0.01554379  0.20036043  1  0  0.071358  0  0.960039  0  0  0.073593  0  1.037342  0  0  0.076627  0  1.03435  0  0  0.104334  0.071345  0  1.039535  0
H  H22  1  0.67224712  0.07892167  0.98148700  1  0  0.096386  0  0.94331  0  0  0.107785  0  1.011978  0  0  0.109224  0  1.011178  0  0  0.094001  0.106726  0  1.012606  0
H  H23  1  0.73279770  0.42102468  0.51840870  1  0  0.096671  0  0.943719  0  0  0.107748  0  1.012655  0  0  0.109202  0  1.011821  0  0  0.094065  0.106705  0  1.013281  0
H  H24  1  0.32773961  0.92108505  0.01851299  1  0  0.096472  0  0.943172  0  0  0.107821  0  1.011898  0  0  0.109264  0  1.011093  0  0  0.094009  0.106759  0  1.012526  0
H  H25  1  0.26721144  0.57897463  0.48159072  1  0  0.09663  0  0.94376  0  0  0.107732  0  1.012694  0  0  0.109182  0  1.011872  0  0  0.094071  0.106692  0  1.013309  0
H  H26  1  0.68751257  0.90875537  0.03993501  1  0  0.099485  0  0.949057  0  0  0.113301  0  1.013494  0  0  0.114738  0  1.012637  0  0  0.092126  0.112213  0  1.014237  0
H  H27  1  0.63602190  0.59126211  0.46001432  1  0  0.099907  0  0.948606  0  0  0.113793  0  1.013015  0  0  0.115278  0  1.012112  0  0  0.092415  0.112671  0  1.013812  0
H  H28  1  0.31248109  0.09124765  0.96006449  1  0  0.099455  0  0.949088  0  0  0.113264  0  1.013509  0  0  0.114707  0  1.012652  0  0  0.092111  0.112168  0  1.014259  0
H  H29  1  0.36398581  0.40873720  0.53998503  1  0  0.099852  0  0.948705  0  0  0.113806  0  1.013059  0  0  0.115292  0  1.012156  0  0  0.092435  0.112684  0  1.013857  0
H  H30  1  0.06878900  0.70548496  0.73924410  1  0  0.108543  0  0.952249  0  0  0.118338  0  1.009608  0  0  0.120914  0  1.010615  0  0  0.104372  0.116512  0  1.009076  0
H  H31  1  0.51400851  0.79465062  0.76081604  1  0  0.1078  0  0.951664  0  0  0.117935  0  1.008768  0  0  0.120509  0  1.009773  0  0  0.104586  0.116104  0  1.008249  0
H  H32  1  0.93121804  0.29451558  0.26075380  1  0  0.108472  0  0.952224  0  0  0.11826  0  1.009595  0  0  0.120835  0  1.010602  0  0  0.104341  0.116434  0  1.009064  0
H  H33  1  0.48598189  0.20535116  0.23918289  1  0  0.107874  0  0.951552  0  0  0.118  0  1.008671  0  0  0.120575  0  1.009674  0  0  0.104606  0.116169  0  1.008154  0
C  C34  1  0.29914026  0.52279064  0.87082041  1  0  -0.020657  0  3.733857  0  0  -0.001387  0  3.964632  0  0  -0.008238  0  3.986244  0  0  0.003528  0.002757  0  3.950143  0
C  C35  1  0.69259382  0.97732399  0.62914604  1  0  -0.02051  0  3.732894  0  0  -0.001872  0  3.964536  0  0  -0.008666  0  3.986163  0  0  0.003068  0.002248  0  3.95002  0
C  C36  1  0.70085915  0.47721114  0.12917848  1  0  -0.020619  0  3.733812  0  0  -0.001405  0  3.964586  0  0  -0.008249  0  3.986209  0  0  0.003476  0.002741  0  3.950096  0
C  C37  1  0.30741289  0.02267163  0.37085476  1  0  -0.020563  0  3.732964  0  0  -0.001932  0  3.96463  0  0  -0.00873  0  3.98626  0  0  0.003066  0.002188  0  3.950109  0
C  C38  1  0.26902380  0.51215857  0.93697780  1  0  0.272441  0  3.763616  0  0  0.266914  0  4.007881  0  0  0.279139  0  4.0256  0  0  0.135232  0.259069  0  3.995866  0
C  C39  1  0.71791024  0.98795244  0.56296532  1  0  0.271369  0  3.764358  0  0  0.266314  0  4.008552  0  0  0.278405  0  4.026455  0  0  0.135303  0.258569  0  3.996397  0
C  C40  1  0.73097429  0.48784692  0.06302045  1  0  0.27253  0  3.763597  0  0  0.267109  0  4.00774  0  0  0.279308  0  4.025497  0  0  0.135329  0.259263  0  3.995724  0
C  C41  1  0.28209718  0.01204564  0.43703498  1  0  0.271446  0  3.764205  0  0  0.266397  0  4.0084  0  0  0.278485  0  4.026311  0  0  0.135339  0.258652  0  3.996244  0
C  C42  1  0.33914341  0.34861976  0.02783375  1  0  0.33568  0  3.850893  0  0  0.320478  0  4.137035  0  0  0.337594  0  4.150327  0  0  0.233199  0.308884  0  4.128049  0
C  C43  1  0.71537174  0.15151972  0.47210880  1  0  0.335058  0  3.851314  0  0  0.319711  0  4.138087  0  0  0.336848  0  4.151344  0  0  0.232959  0.308108  0  4.129118  0
C  C44  1  0.66084992  0.65138696  0.97216563  1  0  0.335656  0  3.851306  0  0  0.320574  0  4.137258  0  0  0.33769  0  4.150554  0  0  0.233229  0.308969  0  4.128288  0
C  C45  1  0.28462992  0.84847959  0.52789211  1  0  0.334971  0  3.851434  0  0  0.319632  0  4.138186  0  0  0.336772  0  4.151443  0  0  0.23295  0.308032  0  4.129216  0
C  C46  1  0.14185270  0.62088494  0.02942771  1  0  0.193884  0  3.701589  0  0  0.1653  0  3.961645  0  0  0.176229  0  3.975185  0  0  0.054999  0.158382  0  3.952337  0
C  C47  1  0.79200138  0.87926886  0.47049878  1  0  0.194561  0  3.700731  0  0  0.166133  0  3.960665  0  0  0.177042  0  3.974216  0  0  0.055498  0.159208  0  3.951371  0
C  C48  1  0.85814353  0.37912055  0.97057092  1  0  0.193965  0  3.701702  0  0  0.165376  0  3.961762  0  0  0.176307  0  3.975302  0  0  0.055037  0.158464  0  3.952445  0
C  C49  1  0.20799960  0.12073168  0.52950068  1  0  0.194617  0  3.700583  0  0  0.166184  0  3.960527  0  0  0.177094  0  3.974075  0  0  0.05552  0.159259  0  3.951235  0
C  C50  1  0.15190980  0.64862726  0.96665379  1  0  -0.225297  0  3.683876  0  0  -0.246009  0  3.936807  0  0  -0.257273  0  3.956679  0  0  -0.097542  -0.239054  0  3.9239  0
C  C51  1  0.76702192  0.85148534  0.53327831  1  0  -0.224691  0  3.683728  0  0  -0.244932  0  3.936394  0  0  -0.256135  0  3.956271  0  0  -0.096936  -0.238028  0  3.923465  0
C  C52  1  0.84808372  0.35137699  0.03334521  1  0  -0.225462  0  3.684038  0  0  -0.246186  0  3.936902  0  0  -0.257447  0  3.956775  0  0  -0.097585  -0.239233  0  3.923992  0
C  C53  1  0.23298264  0.14851274  0.46672185  1  0  -0.224735  0  3.683784  0  0  -0.244986  0  3.936463  0  0  -0.256189  0  3.956339  0  0  -0.096963  -0.238082  0  3.923533  0
C  C54  1  0.14391144  0.62990500  0.83250946  1  0  -0.020143  0  3.674871  0  0  -0.047169  0  3.921244  0  0  -0.042007  0  3.937319  0  0  -0.058055  -0.050203  0  3.910296  0
C  C55  1  0.60615008  0.87032901  0.66751672  1  0  -0.020908  0  3.673686  0  0  -0.047812  0  3.920744  0  0  -0.042629  0  3.936749  0  0  -0.058364  -0.050857  0  3.90984  0
C  C56  1  0.85608783  0.37009801  0.16748892  1  0  -0.020137  0  3.674836  0  0  -0.047158  0  3.921201  0  0  -0.041996  0  3.937272  0  0  -0.058032  -0.05019  0  3.910252  0
C  C57  1  0.39384921  0.12966907  0.33248274  1  0  -0.020802  0  3.673785  0  0  -0.047693  0  3.92084  0  0  -0.042511  0  3.936848  0  0  -0.058317  -0.050731  0  3.909939  0
C  C58  1  0.49279934  0.41963142  0.84486855  1  0  0.114889  0  3.661345  0  0  0.075212  0  3.908551  0  0  0.083873  0  3.924103  0  0  0.052814  0.069666  0  3.898089  0
C  C59  1  0.75741659  0.08039517  0.65504901  1  0  0.114589  0  3.661642  0  0  0.07512  0  3.908862  0  0  0.083657  0  3.92439  0  0  0.052691  0.069635  0  3.898432  0
C  C60  1  0.50720040  0.58036666  0.15513046  1  0  0.114819  0  3.661315  0  0  0.075163  0  3.908507  0  0  0.083824  0  3.924059  0  0  0.05278  0.069619  0  3.898045  0
C  C61  1  0.24258810  0.91959798  0.34495361  1  0  0.114543  0  3.661596  0  0  0.075047  0  3.908829  0  0  0.083585  0  3.924356  0  0  0.052647  0.069562  0  3.898399  0
C  C62  1  0.38425744  0.52129231  0.74844472  1  0  0.126126  0  3.70876  0  0  0.094142  0  3.95807  0  0  0.101959  0  3.976159  0  0  0.043546  0.089178  0  3.945788  0
C  C63  1  0.65463466  0.97879529  0.75152584  1  0  0.1246  0  3.709329  0  0  0.092844  0  3.958551  0  0  0.100639  0  3.976661  0  0  0.042729  0.087904  0  3.946251  0
C  C64  1  0.61574511  0.47870700  0.25155531  1  0  0.126123  0  3.708739  0  0  0.094133  0  3.958047  0  0  0.10195  0  3.976136  0  0  0.043521  0.089169  0  3.945767  0
C  C65  1  0.34536132  0.02119909  0.24847588  1  0  0.124715  0  3.709379  0  0  0.093011  0  3.95853  0  0  0.100807  0  3.97664  0  0  0.042789  0.088068  0  3.946234  0
C  C66  1  0.57845900  0.02061210  0.01491089  1  0  -0.136253  0  3.666609  0  0  -0.171894  0  3.925105  0  0  -0.171104  0  3.936123  0  0  -0.154572  -0.172306  0  3.917307  0
C  C67  1  0.61391332  0.47936983  0.48503690  1  0  -0.136975  0  3.668504  0  0  -0.172981  0  3.928236  0  0  -0.172128  0  3.939046  0  0  -0.155023  -0.1734  0  3.920472  0
C  C68  1  0.42153176  0.97939215  0.98508937  1  0  -0.136287  0  3.666513  0  0  -0.171925  0  3.92515  0  0  -0.171082  0  3.936009  0  0  -0.154601  -0.17233  0  3.917354  0
C  C69  1  0.38609479  0.52063071  0.51496290  1  0  -0.136819  0  3.668604  0  0  -0.172887  0  3.928254  0  0  -0.172058  0  3.939115  0  0  -0.154979  -0.173301  0  3.920483  0
C  C70  1  0.18701930  0.62739004  0.77052577  1  0  -0.119371  0  3.741776  0  0  -0.127242  0  3.986366  0  0  -0.135435  0  4.008254  0  0  -0.083618  -0.122141  0  3.971761  0
C  C71  1  0.58518862  0.87281753  0.72950129  1  0  -0.117196  0  3.739795  0  0  -0.125053  0  3.983935  0  0  -0.133233  0  4.005808  0  0  -0.082793  -0.119961  0  3.969346  0
C  C72  1  0.81298527  0.37261174  0.22947244  1  0  -0.119334  0  3.74169  0  0  -0.127186  0  3.986258  0  0  -0.135378  0  4.008148  0  0  -0.083583  -0.122083  0  3.971648  0
C  C73  1  0.41480565  0.12717932  0.27049935  1  0  -0.117435  0  3.739892  0  0  -0.125313  0  3.984045  0  0  -0.133493  0  4.005915  0  0  -0.082898  -0.120221  0  3.969458  0
S  S74  1  0.44770326  0.15564600  0.07154760  1  0  -0.006773  0  2.382898  0  0  -0.001188  0  2.726108  0  0  -0.00962  0  2.726528  0  0  0.0294  0.005121  0  2.725711  0
S  S75  1  0.67436592  0.34446349  0.42839406  1  0  -0.005846  0  2.384624  0  0  5.6e-05  0  2.728134  0  0  -0.008395  0  2.728565  0  0  0.029679  0.006373  0  2.727713  0
S  S76  1  0.55229178  0.84435825  0.92845286  1  0  -0.00666  0  2.383098  0  0  -0.0011  0  2.726248  0  0  -0.009536  0  2.726654  0  0  0.029464  0.005211  0  2.725851  0
S  S77  1  0.32563560  0.65553706  0.57160635  1  0  -0.005832  0  2.384555  0  0  5.7e-05  0  2.728117  0  0  -0.008392  0  2.728553  0  0  0.029662  0.006372  0  2.727693  0
I  I78  1  0.07535165  0.07351328  0.84903502  1  0  -0.489181  0  1.088716  0  0  -0.436368  0  1.41423  0  0  -0.455623  0  1.391731  0  0  -0.2287  -0.422545  0  1.429324  0
I  I79  1  0.99759830  0.42729007  0.65082841  1  0  -0.48931  0  1.090405  0  0  -0.436347  0  1.415791  0  0  -0.455689  0  1.393411  0  0  -0.228305  -0.422519  0  1.430875  0
I  I80  1  0.92464435  0.92648727  0.15096790  1  0  -0.489178  0  1.088677  0  0  -0.436373  0  1.414179  0  0  -0.455622  0  1.391676  0  0  -0.228715  -0.422548  0  1.429278  0
I  I81  1  0.00240844  0.57270061  0.34917346  1  0  -0.489315  0  1.090441  0  0  -0.436346  0  1.415836  0  0  -0.455689  0  1.393453  0  0  -0.228314  -0.422522  0  1.430924  0
N  N82  1  0.36474506  0.36130804  0.96781229  1  0  -0.424265  0  3.048124  0  0  -0.383979  0  3.307161  0  0  -0.401672  0  3.321686  0  0  -0.314562  -0.372147  0  3.297317  0
N  N83  1  0.69346172  0.13881571  0.53213303  1  0  -0.423717  0  3.049168  0  0  -0.383591  0  3.308182  0  0  -0.401293  0  3.322839  0  0  -0.314461  -0.371776  0  3.298264  0
N  N84  1  0.63525372  0.63869621  0.03218741  1  0  -0.424303  0  3.048226  0  0  -0.384107  0  3.307234  0  0  -0.40179  0  3.321756  0  0  -0.314592  -0.372274  0  3.297395  0
N  N85  1  0.30654254  0.86118114  0.46786808  1  0  -0.423707  0  3.049033  0  0  -0.383576  0  3.308038  0  0  -0.401266  0  3.322669  0  0  -0.314473  -0.371757  0  3.298108  0
N  N86  1  0.23384110  0.47189697  0.06094088  1  0  -0.398265  0  3.027999  0  0  -0.363766  0  3.302125  0  0  -0.379798  0  3.314645  0  0  -0.328769  -0.353016  0  3.293562  0
N  N87  1  0.76649815  0.02823760  0.43899221  1  0  -0.399079  0  3.027593  0  0  -0.36463  0  3.301838  0  0  -0.380676  0  3.314345  0  0  -0.329369  -0.353873  0  3.293296  0
N  N88  1  0.76615478  0.52810851  0.93905958  1  0  -0.398397  0  3.028273  0  0  -0.363947  0  3.302384  0  0  -0.379971  0  3.314881  0  0  -0.328891  -0.353193  0  3.293821  0
N  N89  1  0.23350012  0.97176171  0.56100762  1  0  -0.399105  0  3.027556  0  0  -0.364654  0  3.301802  0  0  -0.380701  0  3.314307  0  0  -0.329389  -0.353894  0  3.29325  0
N  N90  1  0.53513796  0.42037908  0.78526738  1  0  -0.312348  0  3.303061  0  0  -0.225966  0  3.559496  0  0  -0.246794  0  3.579485  0  0  -0.339511  -0.212006  0  3.545609  0
N  N91  1  0.74120944  0.07971352  0.71464177  1  0  -0.311686  0  3.302014  0  0  -0.22505  0  3.558101  0  0  -0.245868  0  3.578129  0  0  -0.338714  -0.211098  0  3.544193  0
N  N92  1  0.46486543  0.57962147  0.21473266  1  0  -0.312306  0  3.302975  0  0  -0.225933  0  3.559397  0  0  -0.246762  0  3.579388  0  0  -0.339489  -0.211974  0  3.545512  0
N  N93  1  0.25878999  0.92027962  0.28536015  1  0  -0.311658  0  3.30199  0  0  -0.225008  0  3.558038  0  0  -0.245828  0  3.578065  0  0  -0.338665  -0.211057  0  3.544131  0
