# generated using pymatgen
data_ZnH13C18N3O7
_symmetry_space_group_name_H-M   'P 1'
_cell_length_a   8.56864564
_cell_length_b   9.06459196
_cell_length_c   11.98862231
_cell_angle_alpha   84.25886665
_cell_angle_beta   77.33687098
_cell_angle_gamma   74.79726457
_symmetry_Int_Tables_number   1
_chemical_formula_structural   ZnH13C18N3O7
_chemical_formula_sum   'Zn2 H26 C36 N6 O14'
_cell_volume   875.83132940
_cell_formula_units_Z   2
loop_
 _symmetry_equiv_pos_site_id
 _symmetry_equiv_pos_as_xyz
  1  'x, y, z'
loop_
 _atom_site_type_symbol
 _atom_site_label
 _atom_site_symmetry_multiplicity
 _atom_site_fract_x
 _atom_site_fract_y
 _atom_site_fract_z
 _atom_site_occupancy
 _atom_site_pbe_bader_spin_density
 _atom_site_pbe_cm5_charge
 _atom_site_pbe_ddec_charge
 _atom_site_pbe_ddec_spin_density
 _atom_site_pbe_ddec_sum_bond_order
 _atom_site_pbe_magmom
Zn  Zn0  1  0.10141003  0.50736569  0.27840911  1  0  0.689381  0.856536  0  2.30292  0
Zn  Zn1  1  0.89858889  0.49263881  0.72158851  1  0  0.689381  0.856567  0  2.302942  0
H  H2  1  0.84452499  0.48256500  0.43988274  1  0  0.287454  0.384875  0  0.96266  0
H  H3  1  0.15547578  0.51743721  0.56011809  1  0  0.28744  0.384828  0  0.962681  0
H  H4  1  0.97805083  0.33076145  0.46303501  1  0  0.295682  0.396139  0  0.938756  0
H  H5  1  0.02194849  0.66923732  0.53696129  1  0  0.295674  0.396086  0  0.938819  0
H  H6  1  0.63353208  0.84531744  0.28581572  1  0  0.115521  0.126656  0  1.008775  0
H  H7  1  0.36645554  0.15468464  0.71418219  1  0  0.115496  0.126659  0  1.008839  0
H  H8  1  0.90001043  0.06826202  0.45251658  1  0  0.111284  0.121802  0  1.023922  0
H  H9  1  0.09998745  0.93173329  0.54748020  1  0  0.111241  0.121734  0  1.023949  0
H  H10  1  0.66245761  0.29666547  0.47669192  1  0  0.112728  0.127511  0  0.993556  0
H  H11  1  0.33754473  0.70333102  0.52330658  1  0  0.112742  0.127526  0  0.993577  0
H  H12  1  0.26750594  0.78508863  0.20433255  1  0  0.118259  0.092877  0  1.003489  0
H  H13  1  0.73250065  0.21490559  0.79567128  1  0  0.118255  0.092852  0  1.003432  0
H  H14  1  0.41587519  0.89183304  0.02284019  1  0  0.107818  0.119824  0  1.01495  0
H  H15  1  0.58413435  0.10816349  0.97716551  1  0  0.10778  0.119798  0  1.015017  0
H  H16  1  0.46239965  0.75374259  0.84086552  1  0  0.102316  0.097792  0  1.050935  0
H  H17  1  0.53760383  0.24625847  0.15913913  1  0  0.102306  0.097742  0  1.050965  0
H  H18  1  0.35342471  0.52717682  0.84575474  1  0  0.115531  0.12853  0  0.982513  0
H  H19  1  0.64657779  0.47282771  0.15424481  1  0  0.115526  0.128527  0  0.982515  0
H  H20  1  0.26186156  0.33370051  0.86437761  1  0  0.114649  0.126399  0  1.000675  0
H  H21  1  0.73814373  0.66629830  0.13562192  1  0  0.11468  0.126414  0  1.000673  0
H  H22  1  0.14785574  0.10791489  0.89918259  1  0  0.106186  0.099623  0  1.021169  0
H  H23  1  0.85215290  0.89208051  0.10081750  1  0  0.10618  0.099619  0  1.021179  0
H  H24  1  0.99830209  0.04879408  0.09964438  1  0  0.10683  0.109178  0  1.018766  0
H  H25  1  0.00170591  0.95120361  0.90035648  1  0  0.106859  0.109211  0  1.018743  0
H  H26  1  0.96924653  0.22928668  0.25306522  1  0  0.117668  0.09076  0  1.031216  0
H  H27  1  0.03075725  0.77071327  0.74693446  1  0  0.117656  0.090748  0  1.031179  0
C  C28  1  0.51232260  0.20182449  0.39618417  1  0  0.000807  -0.05367  0  3.925376  0
C  C29  1  0.48767044  0.79817534  0.60381722  1  0  0.00073  -0.053925  0  3.925459  0
C  C30  1  0.51003108  0.07327515  0.34074261  1  0  0.075879  0.028597  0  3.960838  0
C  C31  1  0.48995983  0.92672809  0.65926054  1  0  0.076032  0.028849  0  3.9608  0
C  C32  1  0.64256000  0.94499982  0.32505786  1  0  -0.074518  -0.139975  0  3.969782  0
C  C33  1  0.35742883  0.05500226  0.67494236  1  0  -0.074642  -0.140199  0  3.969991  0
C  C34  1  0.78406066  0.94203177  0.36559864  1  0  -0.015325  -0.029203  0  3.968828  0
C  C35  1  0.21593117  0.05796807  0.63439710  1  0  -0.015293  -0.02913  0  3.968757  0
C  C36  1  0.79038562  0.06966886  0.42011495  1  0  -0.069421  -0.068151  0  3.923056  0
C  C37  1  0.20960980  0.93033101  0.57988355  1  0  -0.069348  -0.068063  0  3.922985  0
C  C38  1  0.65631027  0.19741410  0.43498032  1  0  -0.077116  -0.08805  0  3.917964  0
C  C39  1  0.34368786  0.80258465  0.56501784  1  0  -0.077087  -0.087964  0  3.917963  0
C  C40  1  0.37182858  0.34438041  0.40992020  1  0  0.213529  0.593311  0  4.231383  0
C  C41  1  0.62816622  0.65562173  0.59008157  1  0  0.213472  0.593317  0  4.231426  0
C  C42  1  0.92366825  0.80008693  0.35394817  1  0  0.206626  0.571169  0  4.22125  0
C  C43  1  0.07632149  0.19991178  0.64604214  1  0  0.206812  0.571343  0  4.221441  0
C  C44  1  0.28938935  0.73123202  0.12297474  1  0  0.054242  0.104836  0  3.931873  0
C  C45  1  0.71061811  0.26876335  0.87702971  1  0  0.054262  0.104909  0  3.931882  0
C  C46  1  0.37163527  0.79003583  0.02183629  1  0  -0.082676  -0.132818  0  3.965325  0
C  C47  1  0.62837068  0.20996066  0.97816914  1  0  -0.082643  -0.132809  0  3.965454  0
C  C48  1  0.39559951  0.71466792  0.92134717  1  0  -0.069402  -0.019339  0  3.959302  0
C  C49  1  0.60440699  0.28533088  0.07865718  1  0  -0.069383  -0.019287  0  3.959233  0
C  C50  1  0.33518259  0.58580455  0.92417932  1  0  -0.076221  -0.148998  0  3.931131  0
C  C51  1  0.66482143  0.41419884  0.07582174  1  0  -0.076225  -0.148987  0  3.931133  0
C  C52  1  0.25309652  0.53384568  0.02877381  1  0  0.119236  0.158447  0  4.004677  0
C  C53  1  0.74690369  0.46615422  0.97122895  1  0  0.119243  0.158502  0  4.004706  0
C  C54  1  0.18296637  0.39860490  0.04120658  1  0  0.121675  0.167562  0  3.986008  0
C  C55  1  0.81703741  0.60139504  0.95879310  1  0  0.121696  0.167618  0  3.985944  0
C  C56  1  0.19973499  0.30676215  0.95030577  1  0  -0.075418  -0.148876  0  3.924247  0
C  C57  1  0.80026944  0.69323550  0.04969482  1  0  -0.075499  -0.149006  0  3.924217  0
C  C58  1  0.13342076  0.17959411  0.97019372  1  0  -0.06323  -0.012145  0  3.95345  0
C  C59  1  0.86658724  0.82040358  0.02980630  1  0  -0.063176  -0.012044  0  3.953371  0
C  C60  1  0.05022475  0.14795472  0.07976963  1  0  -0.080878  -0.126226  0  3.965439  0
C  C61  1  0.94978238  0.85204181  0.92023144  1  0  -0.080964  -0.126336  0  3.965549  0
C  C62  1  0.03442468  0.24639462  0.16588858  1  0  0.05453  0.1099  0  3.940057  0
C  C63  1  0.96557997  0.75360648  0.83411088  1  0  0.054583  0.109963  0  3.939859  0
N  N64  1  0.23316918  0.60616282  0.12577854  1  0  -0.313678  -0.262359  0  3.517855  0
N  N65  1  0.76683644  0.39383485  0.87422269  1  0  -0.313682  -0.262445  0  3.517853  0
N  N66  1  0.09980713  0.36779409  0.14701224  1  0  -0.317905  -0.264882  0  3.502925  0
N  N67  1  0.90019546  0.63220584  0.85298764  1  0  -0.317922  -0.264945  0  3.502835  0
N  N68  1  0.36422739  0.06627975  0.29874756  1  0  0.056566  0.51858  0  4.191649  0
N  N69  1  0.63576415  0.93372121  0.70125482  1  0  0.056471  0.518487  0  4.191961  0
O  O70  1  0.32172610  0.39899478  0.31744092  1  0  -0.333443  -0.584225  0  2.377915  0
O  O71  1  0.67827164  0.60100968  0.68256189  1  0  -0.333391  -0.584165  0  2.377845  0
O  O72  1  0.94678981  0.40721082  0.40140067  1  0  -0.580579  -0.766214  0  2.169881  0
O  O73  1  0.05321238  0.59279484  0.59859885  1  0  -0.580568  -0.766112  0  2.169967  0
O  O74  1  0.32292798  0.39626754  0.50786877  1  0  -0.298538  -0.514072  0  2.186371  0
O  O75  1  0.67707398  0.60373467  0.49213354  1  0  -0.29854  -0.514106  0  2.186397  0
O  O76  1  0.03473427  0.78273402  0.41118945  1  0  -0.3206  -0.563935  0  2.181318  0
O  O77  1  0.96525065  0.21725199  0.58880673  1  0  -0.320732  -0.564071  0  2.181451  0
O  O78  1  0.91926521  0.70335874  0.28383700  1  0  -0.323673  -0.555059  0  2.341604  0
O  O79  1  0.08073039  0.29664465  0.71614705  1  0  -0.323722  -0.555126  0  2.341921  0
O  O80  1  0.22612192  0.11713701  0.35779128  1  0  -0.095575  -0.2961  0  2.024686  0
O  O81  1  0.77386865  0.88286739  0.64220934  1  0  -0.095575  -0.2961  0  2.024805  0
O  O82  1  0.38929192  0.00641932  0.20497978  1  0  -0.136171  -0.356548  0  1.96132  0
O  O83  1  0.61070192  0.99358625  0.79502190  1  0  -0.136152  -0.356542  0  1.961361  0
