# generated using pymatgen
data_TbAg3H6C14N2O11
_symmetry_space_group_name_H-M   'P 1'
_cell_length_a   8.08136630
_cell_length_b   13.88011702
_cell_length_c   14.59714744
_cell_angle_alpha   90.00005626
_cell_angle_beta   90.00014479
_cell_angle_gamma   90.00006874
_symmetry_Int_Tables_number   1
_chemical_formula_structural   TbAg3H6C14N2O11
_chemical_formula_sum   'Tb4 Ag12 H24 C56 N8 O44'
_cell_volume   1637.36655032
_cell_formula_units_Z   4
loop_
 _symmetry_equiv_pos_site_id
 _symmetry_equiv_pos_as_xyz
  1  'x, y, z'
loop_
 _atom_site_type_symbol
 _atom_site_label
 _atom_site_symmetry_multiplicity
 _atom_site_fract_x
 _atom_site_fract_y
 _atom_site_fract_z
 _atom_site_occupancy
 _atom_site_hle17_bader_spin_density
 _atom_site_hle17_ddec_charge
 _atom_site_hle17_ddec_spin_density
 _atom_site_hle17_ddec_sum_bond_order
 _atom_site_hle17_magmom
 _atom_site_hse06_10hf_bader_spin_density
 _atom_site_hse06_10hf_ddec_charge
 _atom_site_hse06_10hf_ddec_spin_density
 _atom_site_hse06_10hf_ddec_sum_bond_order
 _atom_site_hse06_10hf_magmom
 _atom_site_hse06_bader_spin_density
 _atom_site_hse06_ddec_charge
 _atom_site_hse06_ddec_spin_density
 _atom_site_hse06_ddec_sum_bond_order
 _atom_site_hse06_magmom
 _atom_site_pbe_bader_spin_density
 _atom_site_pbe_cm5_charge
 _atom_site_pbe_ddec_charge
 _atom_site_pbe_ddec_spin_density
 _atom_site_pbe_ddec_sum_bond_order
 _atom_site_pbe_magmom
Tb  Tb0  1  0.97172687  0.74999919  0.24999988  1  0  2.163376  0  1.709996  0  0  1.978907  0  2.215076  0  0  2.031684  0  2.169986  0  0  1.484834  1.938633  0  2.25066  0
Tb  Tb1  1  0.52827453  0.75000073  0.75000000  1  0  2.16337  0  1.710063  0  0  1.978896  0  2.215173  0  0  2.031693  0  2.170047  0  0  1.48485  1.938605  0  2.250789  0
Tb  Tb2  1  0.02827316  0.25000045  0.75000078  1  0  2.163369  0  1.710026  0  0  1.97887  0  2.215167  0  0  2.031663  0  2.170047  0  0  1.484836  1.938614  0  2.25073  0
Tb  Tb3  1  0.47172551  0.25000035  0.24999929  1  0  2.163362  0  1.710014  0  0  1.978851  0  2.215181  0  0  2.031652  0  2.170046  0  0  1.484848  1.938614  0  2.250712  0
Ag  Ag4  1  0.55442923  0.82403745  0.48535451  1  0  0.674894  0  1.257687  0  0  0.56135  0  1.689702  0  0  0.60104  0  1.624695  0  0  0.447785  0.532539  0  1.73572  0
Ag  Ag5  1  0.94556737  0.82403832  0.51464544  1  0  0.674912  0  1.25771  0  0  0.561339  0  1.689733  0  0  0.60103  0  1.624726  0  0  0.447796  0.532529  0  1.735751  0
Ag  Ag6  1  0.94557199  0.67596488  0.98535515  1  0  0.674868  0  1.257754  0  0  0.561322  0  1.689746  0  0  0.601015  0  1.624736  0  0  0.447807  0.53251  0  1.735762  0
Ag  Ag7  1  0.55443049  0.67596280  0.01464603  1  0  0.674889  0  1.257773  0  0  0.561328  0  1.68979  0  0  0.601018  0  1.624784  0  0  0.447793  0.532519  0  1.735805  0
Ag  Ag8  1  0.44557204  0.17596292  0.51464684  1  0  0.674884  0  1.25773  0  0  0.561328  0  1.689713  0  0  0.60102  0  1.624704  0  0  0.447784  0.53252  0  1.735728  0
Ag  Ag9  1  0.05443143  0.17596276  0.48535522  1  0  0.674895  0  1.257747  0  0  0.561329  0  1.689783  0  0  0.601018  0  1.624775  0  0  0.447786  0.532523  0  1.735796  0
Ag  Ag10  1  0.05442928  0.32403476  0.01464483  1  0  0.67486  0  1.257772  0  0  0.561304  0  1.689798  0  0  0.600996  0  1.624788  0  0  0.447797  0.532495  0  1.735817  0
Ag  Ag11  1  0.44556954  0.32403612  0.98535257  1  0  0.674875  0  1.257722  0  0  0.561321  0  1.689736  0  0  0.601014  0  1.624726  0  0  0.447787  0.532509  0  1.735754  0
Ag  Ag12  1  0.24999820  0.94341026  0.50000105  1  0  0.649285  0  1.307729  0  0  0.538871  0  1.744165  0  0  0.574961  0  1.683807  0  0  0.43409  0.51291  0  1.786825  0
Ag  Ag13  1  0.24999893  0.55658741  0.99999582  1  0  0.649244  0  1.307744  0  0  0.53881  0  1.744207  0  0  0.574908  0  1.683841  0  0  0.43408  0.512872  0  1.786822  0
Ag  Ag14  1  0.74999813  0.05658794  0.50000030  1  0  0.649272  0  1.307753  0  0  0.538841  0  1.744207  0  0  0.57494  0  1.683837  0  0  0.434084  0.512878  0  1.786871  0
Ag  Ag15  1  0.74999987  0.44341079  0.00000142  1  0  0.649274  0  1.307687  0  0  0.538854  0  1.74415  0  0  0.574948  0  1.683788  0  0  0.43409  0.512894  0  1.786814  0
H  H16  1  0.22651212  0.76843455  0.05557507  1  0  0.43992  0  0.857622  0  0  0.409155  0  0.919537  0  0  0.420304  0  0.903648  0  0  0.294366  0.401242  0  0.930773  0
H  H17  1  0.27348886  0.76843431  0.94442617  1  0  0.439915  0  0.857632  0  0  0.409151  0  0.919544  0  0  0.420299  0  0.903657  0  0  0.294371  0.401237  0  0.930783  0
H  H18  1  0.27349042  0.73156410  0.55557484  1  0  0.439879  0  0.857686  0  0  0.40911  0  0.919606  0  0  0.42026  0  0.903715  0  0  0.294343  0.401196  0  0.930843  0
H  H19  1  0.22651172  0.73156403  0.44442500  1  0  0.439901  0  0.857654  0  0  0.409133  0  0.919573  0  0  0.420282  0  0.903685  0  0  0.294354  0.401219  0  0.930809  0
H  H20  1  0.77348915  0.23156581  0.94442490  1  0  0.439898  0  0.857658  0  0  0.409129  0  0.919576  0  0  0.420279  0  0.903688  0  0  0.294363  0.401215  0  0.930813  0
H  H21  1  0.72650994  0.23156461  0.05557449  1  0  0.439896  0  0.857665  0  0  0.409126  0  0.919587  0  0  0.420277  0  0.903694  0  0  0.294361  0.401213  0  0.93082  0
H  H22  1  0.72651086  0.26843554  0.44442514  1  0  0.4399  0  0.857657  0  0  0.409132  0  0.919575  0  0  0.420282  0  0.903685  0  0  0.29435  0.401218  0  0.930811  0
H  H23  1  0.77348955  0.26843561  0.55557429  1  0  0.439909  0  0.857645  0  0  0.409142  0  0.91956  0  0  0.420294  0  0.903667  0  0  0.294369  0.401229  0  0.930796  0
H  H24  1  0.61548526  0.47333362  0.43347507  1  0  0.143504  0  0.924387  0  0  0.151271  0  0.987227  0  0  0.155904  0  0.984734  0  0  0.116564  0.147952  0  0.989209  0
H  H25  1  0.88451185  0.47333235  0.56652455  1  0  0.143496  0  0.924402  0  0  0.151268  0  0.98723  0  0  0.1559  0  0.984738  0  0  0.116561  0.147949  0  0.989213  0
H  H26  1  0.88451594  0.02666844  0.93347343  1  0  0.143467  0  0.924465  0  0  0.151253  0  0.987268  0  0  0.155883  0  0.984774  0  0  0.116555  0.147934  0  0.98925  0
H  H27  1  0.61548645  0.02666789  0.06652440  1  0  0.143488  0  0.924399  0  0  0.15125  0  0.987247  0  0  0.155883  0  0.984753  0  0  0.116557  0.14793  0  0.98923  0
H  H28  1  0.38451230  0.52666674  0.56652422  1  0  0.143499  0  0.924391  0  0  0.151271  0  0.987214  0  0  0.155903  0  0.98472  0  0  0.11655  0.147951  0  0.989198  0
H  H29  1  0.11548695  0.52666657  0.43347475  1  0  0.143518  0  0.924394  0  0  0.15129  0  0.987219  0  0  0.155924  0  0.984724  0  0  0.116577  0.147971  0  0.989204  0
H  H30  1  0.11548534  0.97333193  0.06652723  1  0  0.143482  0  0.924465  0  0  0.151265  0  0.987268  0  0  0.155897  0  0.984773  0  0  0.116564  0.147946  0  0.989251  0
H  H31  1  0.38451606  0.97333247  0.93347283  1  0  0.143477  0  0.924456  0  0  0.151257  0  0.98727  0  0  0.155888  0  0.984776  0  0  0.116563  0.147938  0  0.989252  0
H  H32  1  0.90124943  0.35426473  0.20917523  1  0  0.137494  0  0.922442  0  0  0.14584  0  0.986509  0  0  0.150819  0  0.982396  0  0  0.116993  0.142194  0  0.989762  0
H  H33  1  0.59874744  0.35426564  0.79082633  1  0  0.137529  0  0.922398  0  0  0.145881  0  0.986447  0  0  0.15086  0  0.982335  0  0  0.117005  0.142236  0  0.989701  0
H  H34  1  0.59874828  0.14573422  0.70917398  1  0  0.137518  0  0.922423  0  0  0.145868  0  0.986481  0  0  0.150847  0  0.982368  0  0  0.117002  0.142223  0  0.989735  0
H  H35  1  0.90125064  0.14573411  0.29082533  1  0  0.137546  0  0.92239  0  0  0.145904  0  0.986433  0  0  0.150883  0  0.98232  0  0  0.117017  0.142257  0  0.98969  0
H  H36  1  0.09875061  0.64573419  0.79082543  1  0  0.137555  0  0.922399  0  0  0.145902  0  0.98645  0  0  0.15088  0  0.982338  0  0  0.117019  0.142255  0  0.989708  0
H  H37  1  0.40125012  0.64573400  0.20917433  1  0  0.137531  0  0.922413  0  0  0.14588  0  0.98646  0  0  0.15086  0  0.982348  0  0  0.117005  0.142233  0  0.989716  0
H  H38  1  0.40125052  0.85426614  0.29082737  1  0  0.137508  0  0.922416  0  0  0.145861  0  0.986469  0  0  0.15084  0  0.982355  0  0  0.117002  0.142214  0  0.989724  0
H  H39  1  0.09874816  0.85426625  0.70917464  1  0  0.137521  0  0.922413  0  0  0.145872  0  0.986457  0  0  0.150852  0  0.982346  0  0  0.117007  0.142227  0  0.989711  0
C  C40  1  0.69657067  0.66274414  0.39364689  1  0  0.634015  0  3.90529  0  0  0.584567  0  4.188652  0  0  0.618606  0  4.182588  0  0  0.20885  0.561344  0  4.191672  0
C  C41  1  0.80343674  0.66274357  0.60635085  1  0  0.634137  0  3.905234  0  0  0.584579  0  4.188763  0  0  0.61862  0  4.182698  0  0  0.208853  0.561354  0  4.191785  0
C  C42  1  0.80344623  0.83725954  0.89365707  1  0  0.634096  0  3.905411  0  0  0.584467  0  4.189084  0  0  0.618506  0  4.183022  0  0  0.208818  0.561244  0  4.192103  0
C  C43  1  0.69656649  0.83725693  0.10634974  1  0  0.634145  0  3.90525  0  0  0.584596  0  4.18876  0  0  0.618636  0  4.182694  0  0  0.208859  0.561373  0  4.191779  0
C  C44  1  0.30343308  0.33725694  0.60634966  1  0  0.6341  0  3.905381  0  0  0.584572  0  4.188857  0  0  0.618612  0  4.182794  0  0  0.208855  0.561349  0  4.191878  0
C  C45  1  0.19656453  0.33725607  0.39364844  1  0  0.634063  0  3.905306  0  0  0.584541  0  4.188778  0  0  0.618582  0  4.182714  0  0  0.208846  0.561319  0  4.191798  0
C  C46  1  0.19655752  0.16274083  0.10634565  1  0  0.633978  0  3.905503  0  0  0.584401  0  4.189065  0  0  0.618438  0  4.183007  0  0  0.208808  0.561179  0  4.192079  0
C  C47  1  0.30344345  0.16274127  0.89365435  1  0  0.634035  0  3.905494  0  0  0.58444  0  4.189088  0  0  0.61848  0  4.183026  0  0  0.208815  0.561218  0  4.192105  0
C  C48  1  0.75634873  0.57137387  0.34990684  1  0  0.139937  0  3.785505  0  0  0.144525  0  4.031534  0  0  0.148069  0  4.049095  0  0  0.114134  0.142182  0  4.019589  0
C  C49  1  0.74365106  0.57137474  0.65009425  1  0  0.139835  0  3.785461  0  0  0.144449  0  4.031512  0  0  0.147991  0  4.049073  0  0  0.114112  0.142106  0  4.019569  0
C  C50  1  0.74364322  0.92862616  0.84990879  1  0  0.139854  0  3.785351  0  0  0.144479  0  4.031434  0  0  0.148017  0  4.048995  0  0  0.114138  0.142139  0  4.019488  0
C  C51  1  0.75635360  0.92862652  0.15009468  1  0  0.139714  0  3.785642  0  0  0.144333  0  4.031702  0  0  0.147873  0  4.049266  0  0  0.114064  0.14199  0  4.019757  0
C  C52  1  0.24364512  0.42862577  0.65009314  1  0  0.139867  0  3.785567  0  0  0.144478  0  4.031601  0  0  0.148018  0  4.049165  0  0  0.114134  0.142137  0  4.019657  0
C  C53  1  0.25635145  0.42862562  0.34990505  1  0  0.139808  0  3.78567  0  0  0.144422  0  4.031714  0  0  0.147962  0  4.049279  0  0  0.114114  0.14208  0  4.019769  0
C  C54  1  0.25635558  0.07137348  0.15009324  1  0  0.139822  0  3.785521  0  0  0.144441  0  4.031576  0  0  0.14798  0  4.04914  0  0  0.114122  0.1421  0  4.019631  0
C  C55  1  0.24364520  0.07137384  0.84990736  1  0  0.139773  0  3.785515  0  0  0.144396  0  4.031576  0  0  0.147934  0  4.04914  0  0  0.114095  0.142055  0  4.019629  0
C  C56  1  0.70172056  0.48082420  0.37659074  1  0  -0.208926  0  3.594287  0  0  -0.242891  0  3.850526  0  0  -0.250819  0  3.86688  0  0  -0.081776  -0.237914  0  3.839881  0
C  C57  1  0.79827905  0.48082364  0.62340889  1  0  -0.208958  0  3.594267  0  0  -0.242881  0  3.850546  0  0  -0.25081  0  3.866902  0  0  -0.081782  -0.237904  0  3.839903  0
C  C58  1  0.79827914  0.01917853  0.87659308  1  0  -0.208928  0  3.594193  0  0  -0.242858  0  3.850407  0  0  -0.250786  0  3.866775  0  0  -0.081771  -0.237882  0  3.839761  0
C  C59  1  0.70171951  0.01917594  0.12340886  1  0  -0.20885  0  3.594202  0  0  -0.242807  0  3.850469  0  0  -0.250731  0  3.866823  0  0  -0.08175  -0.237831  0  3.839822  0
C  C60  1  0.29827948  0.51917617  0.62340856  1  0  -0.208933  0  3.594236  0  0  -0.242875  0  3.850493  0  0  -0.250802  0  3.86685  0  0  -0.081762  -0.2379  0  3.839849  0
C  C61  1  0.20172099  0.51917528  0.37659040  1  0  -0.208962  0  3.594345  0  0  -0.242901  0  3.850614  0  0  -0.250826  0  3.866966  0  0  -0.081812  -0.237926  0  3.839971  0
C  C62  1  0.20172213  0.98082184  0.12340759  1  0  -0.208893  0  3.594204  0  0  -0.242826  0  3.850437  0  0  -0.250749  0  3.866789  0  0  -0.08175  -0.237854  0  3.839798  0
C  C63  1  0.29827805  0.98082226  0.87659317  1  0  -0.208884  0  3.594176  0  0  -0.242823  0  3.850394  0  0  -0.250745  0  3.866744  0  0  -0.081767  -0.237848  0  3.839751  0
C  C64  1  0.74898836  0.39890485  0.32480048  1  0  0.418804  0  3.864214  0  0  0.407175  0  4.1241  0  0  0.425775  0  4.134555  0  0  0.102083  0.394631  0  4.116512  0
C  C65  1  0.75100613  0.39890431  0.67519908  1  0  0.418913  0  3.864056  0  0  0.407139  0  4.124124  0  0  0.425739  0  4.134577  0  0  0.10206  0.394597  0  4.116534  0
C  C66  1  0.75100369  0.10109638  0.82479871  1  0  0.418836  0  3.864272  0  0  0.407143  0  4.124223  0  0  0.425738  0  4.134679  0  0  0.10209  0.394604  0  4.116629  0
C  C67  1  0.74899390  0.10109532  0.17520056  1  0  0.418831  0  3.864132  0  0  0.407142  0  4.124091  0  0  0.425739  0  4.134548  0  0  0.102089  0.394601  0  4.116499  0
C  C68  1  0.25100797  0.60109479  0.67520019  1  0  0.418871  0  3.864174  0  0  0.407158  0  4.124162  0  0  0.425756  0  4.134618  0  0  0.102057  0.394617  0  4.116572  0
C  C69  1  0.24899143  0.60109533  0.32480022  1  0  0.418873  0  3.864149  0  0  0.407141  0  4.124169  0  0  0.425741  0  4.134623  0  0  0.102075  0.3946  0  4.116578  0
C  C70  1  0.24899511  0.89890398  0.17520058  1  0  0.41885  0  3.864154  0  0  0.407137  0  4.124143  0  0  0.425733  0  4.134598  0  0  0.10207  0.394596  0  4.116551  0
C  C71  1  0.25100119  0.89890360  0.82479942  1  0  0.418834  0  3.864212  0  0  0.407139  0  4.124156  0  0  0.425737  0  4.134611  0  0  0.102085  0.394598  0  4.116563  0
C  C72  1  0.86043223  0.41479592  0.25095668  1  0  -0.207708  0  3.601574  0  0  -0.240052  0  3.855048  0  0  -0.247597  0  3.871849  0  0  -0.083595  -0.235203  0  3.843949  0
C  C73  1  0.63956105  0.41479755  0.74904494  1  0  -0.207902  0  3.601663  0  0  -0.240175  0  3.855154  0  0  -0.247724  0  3.87197  0  0  -0.083684  -0.235326  0  3.844058  0
C  C74  1  0.63956195  0.08520667  0.75095680  1  0  -0.207767  0  3.601463  0  0  -0.240067  0  3.854965  0  0  -0.247611  0  3.871783  0  0  -0.08366  -0.235221  0  3.843868  0
C  C75  1  0.86043684  0.08520504  0.24904314  1  0  -0.207844  0  3.601544  0  0  -0.240157  0  3.855007  0  0  -0.247705  0  3.87182  0  0  -0.083679  -0.235309  0  3.843909  0
C  C76  1  0.13956533  0.58520516  0.74904329  1  0  -0.20789  0  3.601584  0  0  -0.240188  0  3.855081  0  0  -0.247732  0  3.871884  0  0  -0.08368  -0.235341  0  3.843988  0
C  C77  1  0.36043527  0.58520426  0.25095504  1  0  -0.207815  0  3.601512  0  0  -0.240103  0  3.854994  0  0  -0.247652  0  3.871803  0  0  -0.083656  -0.235257  0  3.8439  0
C  C78  1  0.36043808  0.91479370  0.24904386  1  0  -0.207795  0  3.601404  0  0  -0.240089  0  3.854905  0  0  -0.247631  0  3.871718  0  0  -0.083697  -0.235242  0  3.843808  0
C  C79  1  0.13955701  0.91479316  0.75095889  1  0  -0.207759  0  3.601366  0  0  -0.240045  0  3.854836  0  0  -0.247596  0  3.871651  0  0  -0.083642  -0.235198  0  3.843741  0
C  C80  1  0.90943390  0.50809558  0.23061100  1  0  0.118012  0  3.813724  0  0  0.126942  0  4.054794  0  0  0.127689  0  4.075958  0  0  0.102788  0.126545  0  4.040388  0
C  C81  1  0.59056824  0.50810007  0.76938591  1  0  0.118005  0  3.813895  0  0  0.126973  0  4.055031  0  0  0.127713  0  4.076203  0  0  0.102857  0.126576  0  4.040625  0
C  C82  1  0.59056742  0.99189784  0.73061280  1  0  0.117963  0  3.813677  0  0  0.126856  0  4.054926  0  0  0.127584  0  4.076112  0  0  0.102847  0.126463  0  4.040515  0
C  C83  1  0.90943572  0.99190060  0.26938661  1  0  0.117979  0  3.81377  0  0  0.126908  0  4.054871  0  0  0.127649  0  4.076041  0  0  0.102837  0.126512  0  4.040462  0
C  C84  1  0.09056367  0.49190046  0.76938692  1  0  0.118062  0  3.813788  0  0  0.126958  0  4.054906  0  0  0.1277  0  4.076076  0  0  0.102837  0.126562  0  4.040501  0
C  C85  1  0.40943303  0.49190029  0.23061338  1  0  0.117967  0  3.813826  0  0  0.126885  0  4.054933  0  0  0.12763  0  4.076096  0  0  0.102821  0.126489  0  4.040527  0
C  C86  1  0.40943386  0.00810252  0.26938717  1  0  0.117911  0  3.813766  0  0  0.126825  0  4.054996  0  0  0.127553  0  4.076185  0  0  0.102855  0.126432  0  4.040584  0
C  C87  1  0.09056432  0.00810193  0.73061473  1  0  0.117985  0  3.813647  0  0  0.126876  0  4.054858  0  0  0.127617  0  4.076028  0  0  0.102826  0.126482  0  4.04045  0
C  C88  1  0.01833566  0.53394443  0.15170730  1  0  0.628007  0  3.893829  0  0  0.574171  0  4.177515  0  0  0.609869  0  4.171251  0  0  0.209819  0.549605  0  4.180869  0
C  C89  1  0.48166360  0.53395000  0.84829099  1  0  0.6283  0  3.893313  0  0  0.574225  0  4.177373  0  0  0.609925  0  4.171109  0  0  0.209828  0.549659  0  4.180731  0
C  C90  1  0.48166607  0.96605216  0.65170689  1  0  0.628409  0  3.893326  0  0  0.574415  0  4.177308  0  0  0.610119  0  4.171038  0  0  0.209909  0.549849  0  4.180665  0
C  C91  1  0.01833903  0.96605400  0.34829248  1  0  0.628277  0  3.893423  0  0  0.574382  0  4.177203  0  0  0.610081  0  4.170938  0  0  0.209945  0.549817  0  4.180557  0
C  C92  1  0.98166190  0.46605377  0.84829268  1  0  0.628049  0  3.893688  0  0  0.574203  0  4.177402  0  0  0.609903  0  4.171138  0  0  0.209848  0.549638  0  4.180761  0
C  C93  1  0.51833644  0.46605325  0.15170694  1  0  0.628175  0  3.893555  0  0  0.574301  0  4.177296  0  0  0.61  0  4.171027  0  0  0.209869  0.549735  0  4.180655  0
C  C94  1  0.51833644  0.03394820  0.34829240  1  0  0.628324  0  3.8933  0  0  0.574278  0  4.177339  0  0  0.609981  0  4.171073  0  0  0.20982  0.549714  0  4.180694  0
C  C95  1  0.98166472  0.03394780  0.65170749  1  0  0.628296  0  3.893421  0  0  0.57433  0  4.177355  0  0  0.61003  0  4.171087  0  0  0.209913  0.549765  0  4.180712  0
N  N96  1  0.85882012  0.58578945  0.27861901  1  0  -0.473872  0  3.30704  0  0  -0.427799  0  3.558892  0  0  -0.443641  0  3.58028  0  0  -0.415752  -0.416758  0  3.544228  0
N  N97  1  0.64118218  0.58578817  0.72138003  1  0  -0.473824  0  3.307313  0  0  -0.427744  0  3.559148  0  0  -0.443584  0  3.580536  0  0  -0.415738  -0.416701  0  3.544484  0
N  N98  1  0.64118017  0.91421338  0.77862150  1  0  -0.473831  0  3.30743  0  0  -0.427734  0  3.559304  0  0  -0.443567  0  3.580695  0  0  -0.415752  -0.416694  0  3.54464  0
N  N99  1  0.85882280  0.91421317  0.22137990  1  0  -0.473707  0  3.30739  0  0  -0.427636  0  3.559238  0  0  -0.443474  0  3.580628  0  0  -0.415713  -0.416597  0  3.544572  0
N  N100  1  0.14117497  0.41421307  0.72137959  1  0  -0.473834  0  3.307383  0  0  -0.427757  0  3.559251  0  0  -0.443597  0  3.580641  0  0  -0.415749  -0.41672  0  3.544587  0
N  N101  1  0.35882157  0.41421292  0.27861858  1  0  -0.473759  0  3.30737  0  0  -0.427685  0  3.559231  0  0  -0.443526  0  3.580617  0  0  -0.41573  -0.41665  0  3.544566  0
N  N102  1  0.35882110  0.08578626  0.22137916  1  0  -0.473735  0  3.307489  0  0  -0.42763  0  3.559338  0  0  -0.443463  0  3.58073  0  0  -0.415715  -0.416597  0  3.544672  0
N  N103  1  0.14117971  0.08578719  0.77862145  1  0  -0.473783  0  3.307478  0  0  -0.427685  0  3.559332  0  0  -0.443523  0  3.580721  0  0  -0.415728  -0.416649  0  3.544666  0
O  O104  1  0.76778266  0.74146179  0.36697807  1  0  -0.763503  0  2.093021  0  0  -0.696456  0  2.363655  0  0  -0.726958  0  2.351678  0  0  -0.399094  -0.674316  0  2.37096  0
O  O105  1  0.73221749  0.74146263  0.63302317  1  0  -0.763565  0  2.09294  0  0  -0.696486  0  2.363625  0  0  -0.726993  0  2.351645  0  0  -0.399099  -0.674339  0  2.37093  0
O  O106  1  0.73221680  0.75853682  0.86697780  1  0  -0.763681  0  2.092603  0  0  -0.696567  0  2.363319  0  0  -0.727079  0  2.35134  0  0  -0.399144  -0.674418  0  2.370624  0
O  O107  1  0.76778709  0.75853789  0.13302209  1  0  -0.763621  0  2.092955  0  0  -0.696547  0  2.363631  0  0  -0.727051  0  2.351652  0  0  -0.399143  -0.674405  0  2.370936  0
O  O108  1  0.23221367  0.25853785  0.63302259  1  0  -0.763602  0  2.092917  0  0  -0.696539  0  2.3636  0  0  -0.727042  0  2.351611  0  0  -0.399154  -0.6744  0  2.370905  0
O  O109  1  0.26778502  0.25853701  0.36697680  1  0  -0.763559  0  2.093003  0  0  -0.696497  0  2.363681  0  0  -0.727001  0  2.351694  0  0  -0.399108  -0.67436  0  2.370984  0
O  O110  1  0.26778324  0.24146210  0.13302287  1  0  -0.763583  0  2.09285  0  0  -0.696486  0  2.363553  0  0  -0.726996  0  2.351574  0  0  -0.399127  -0.674347  0  2.370853  0
O  O111  1  0.23221665  0.24146319  0.86697652  1  0  -0.763597  0  2.092823  0  0  -0.69649  0  2.363525  0  0  -0.727002  0  2.351548  0  0  -0.399109  -0.674348  0  2.370827  0
O  O112  1  0.58070301  0.65963392  0.45085319  1  0  -0.56714  0  1.992994  0  0  -0.503704  0  2.233058  0  0  -0.533431  0  2.225793  0  0  -0.300761  -0.482757  0  2.237375  0
O  O113  1  0.91929449  0.65963553  0.54914660  1  0  -0.567131  0  1.993238  0  0  -0.503634  0  2.233338  0  0  -0.533358  0  2.226075  0  0  -0.300724  -0.482687  0  2.237654  0
O  O114  1  0.91928816  0.84036693  0.95085189  1  0  -0.566935  0  1.993773  0  0  -0.503451  0  2.233921  0  0  -0.533166  0  2.226657  0  0  -0.300653  -0.48251  0  2.238238  0
O  O115  1  0.58070724  0.84036346  0.04914670  1  0  -0.567104  0  1.993281  0  0  -0.503601  0  2.233366  0  0  -0.533324  0  2.226103  0  0  -0.300696  -0.482656  0  2.237682  0
O  O116  1  0.41929208  0.34036428  0.54914884  1  0  -0.567082  0  1.993384  0  0  -0.503582  0  2.233434  0  0  -0.533307  0  2.226171  0  0  -0.300691  -0.482636  0  2.237748  0
O  O117  1  0.08070307  0.34036411  0.45085200  1  0  -0.567098  0  1.993182  0  0  -0.503614  0  2.233253  0  0  -0.53334  0  2.22599  0  0  -0.300729  -0.482668  0  2.237568  0
O  O118  1  0.08070940  0.15963199  0.04914672  1  0  -0.566969  0  1.993503  0  0  -0.503485  0  2.233607  0  0  -0.533203  0  2.226344  0  0  -0.30068  -0.482544  0  2.23792  0
O  O119  1  0.41929032  0.15963330  0.95085259  1  0  -0.566971  0  1.993566  0  0  -0.503498  0  2.233707  0  0  -0.533217  0  2.226443  0  0  -0.300686  -0.482555  0  2.238019  0
O  O120  1  0.68531590  0.31340123  0.34062677  1  0  -0.728007  0  2.051307  0  0  -0.663628  0  2.299749  0  0  -0.688223  0  2.290504  0  0  -0.419009  -0.645586  0  2.305302  0
O  O121  1  0.81468212  0.31340144  0.65937476  1  0  -0.728016  0  2.051267  0  0  -0.66359  0  2.299773  0  0  -0.688183  0  2.290527  0  0  -0.418988  -0.645538  0  2.305309  0
O  O122  1  0.81468240  0.18659929  0.84062449  1  0  -0.728052  0  2.051307  0  0  -0.66364  0  2.299772  0  0  -0.688233  0  2.290527  0  0  -0.419046  -0.645588  0  2.305307  0
O  O123  1  0.68531907  0.18659961  0.15937486  1  0  -0.728001  0  2.051234  0  0  -0.663594  0  2.299715  0  0  -0.688189  0  2.290471  0  0  -0.419015  -0.645542  0  2.305243  0
O  O124  1  0.31468166  0.68659913  0.65937458  1  0  -0.72801  0  2.051265  0  0  -0.663605  0  2.299749  0  0  -0.688201  0  2.290505  0  0  -0.418988  -0.645537  0  2.305263  0
O  O125  1  0.18532039  0.68659892  0.34062591  1  0  -0.728016  0  2.051299  0  0  -0.663612  0  2.299801  0  0  -0.688205  0  2.290557  0  0  -0.419009  -0.645549  0  2.305318  0
O  O126  1  0.18531516  0.81340107  0.15937617  1  0  -0.728055  0  2.051287  0  0  -0.663645  0  2.299759  0  0  -0.688236  0  2.290515  0  0  -0.41901  -0.645587  0  2.305289  0
O  O127  1  0.31468344  0.81340147  0.84062443  1  0  -0.728048  0  2.051285  0  0  -0.663651  0  2.299745  0  0  -0.688244  0  2.2905  0  0  -0.419019  -0.645596  0  2.30529  0
O  O128  1  0.07975579  0.46944785  0.09979580  1  0  -0.651761  0  2.200694  0  0  -0.571837  0  2.499637  0  0  -0.60641  0  2.484595  0  0  -0.320173  -0.547452  0  2.509248  0
O  O129  1  0.42025200  0.46945559  0.90020105  1  0  -0.652078  0  2.200585  0  0  -0.572043  0  2.499579  0  0  -0.606609  0  2.484528  0  0  -0.320321  -0.547665  0  2.509199  0
O  O130  1  0.42025087  0.03054415  0.59979764  1  0  -0.652084  0  2.200637  0  0  -0.572063  0  2.499576  0  0  -0.606626  0  2.484518  0  0  -0.320326  -0.547683  0  2.509197  0
O  O131  1  0.07975973  0.03054897  0.40020429  1  0  -0.651982  0  2.200651  0  0  -0.572041  0  2.499629  0  0  -0.606611  0  2.484584  0  0  -0.320304  -0.547655  0  2.50924  0
O  O132  1  0.92024672  0.53054891  0.90020418  1  0  -0.651793  0  2.200597  0  0  -0.571856  0  2.499528  0  0  -0.606424  0  2.48448  0  0  -0.320226  -0.547474  0  2.509145  0
O  O133  1  0.57975299  0.53054910  0.09979687  1  0  -0.651926  0  2.200615  0  0  -0.571989  0  2.499586  0  0  -0.606558  0  2.484536  0  0  -0.320287  -0.547607  0  2.509202  0
O  O134  1  0.57975288  0.96945621  0.40020165  1  0  -0.652058  0  2.20061  0  0  -0.572064  0  2.499663  0  0  -0.606631  0  2.484615  0  0  -0.320313  -0.547681  0  2.509276  0
O  O135  1  0.92025145  0.96945572  0.59979774  1  0  -0.65205  0  2.20073  0  0  -0.572042  0  2.499668  0  0  -0.606605  0  2.484611  0  0  -0.320321  -0.547664  0  2.509291  0
O  O136  1  0.04611321  0.62395881  0.13961116  1  0  -0.703563  0  2.165887  0  0  -0.625275  0  2.430291  0  0  -0.65648  0  2.421414  0  0  -0.363044  -0.602978  0  2.435715  0
O  O137  1  0.45389242  0.62396869  0.86038515  1  0  -0.703455  0  2.165711  0  0  -0.625085  0  2.430222  0  0  -0.656292  0  2.421344  0  0  -0.362962  -0.602785  0  2.43565  0
O  O138  1  0.45389094  0.87603273  0.63961474  1  0  -0.703581  0  2.165774  0  0  -0.625245  0  2.430277  0  0  -0.656452  0  2.421393  0  0  -0.363017  -0.602942  0  2.435703  0
O  O139  1  0.04610902  0.87603749  0.36038866  1  0  -0.703588  0  2.165725  0  0  -0.625283  0  2.430188  0  0  -0.656485  0  2.421305  0  0  -0.363056  -0.602987  0  2.435615  0
O  O140  1  0.95388930  0.37603723  0.86038882  1  0  -0.703536  0  2.165853  0  0  -0.625255  0  2.430324  0  0  -0.656461  0  2.421442  0  0  -0.363042  -0.60296  0  2.435755  0
O  O141  1  0.54611133  0.37603744  0.13961071  1  0  -0.703511  0  2.165888  0  0  -0.625226  0  2.430393  0  0  -0.656435  0  2.421512  0  0  -0.362995  -0.602931  0  2.43582  0
O  O142  1  0.54610786  0.12396763  0.36038524  1  0  -0.703498  0  2.165624  0  0  -0.625127  0  2.430123  0  0  -0.656334  0  2.421242  0  0  -0.362979  -0.602833  0  2.435548  0
O  O143  1  0.95389225  0.12396792  0.63961406  1  0  -0.70356  0  2.165756  0  0  -0.625225  0  2.430234  0  0  -0.656432  0  2.421351  0  0  -0.363043  -0.602927  0  2.435662  0
O  O144  1  0.25000056  0.72812075  0.99999983  1  0  -0.872809  0  2.035036  0  0  -0.784388  0  2.269043  0  0  -0.815603  0  2.230248  0  0  -0.579238  -0.76202  0  2.295749  0
O  O145  1  0.25000049  0.77187857  0.50000028  1  0  -0.872792  0  2.035088  0  0  -0.784369  0  2.269114  0  0  -0.81558  0  2.230307  0  0  -0.579216  -0.762001  0  2.29582  0
O  O146  1  0.74999970  0.27187837  0.99999997  1  0  -0.872761  0  2.035038  0  0  -0.784328  0  2.26905  0  0  -0.81554  0  2.230245  0  0  -0.579215  -0.761958  0  2.295753  0
O  O147  1  0.75000078  0.22812108  0.49999970  1  0  -0.872797  0  2.035059  0  0  -0.784371  0  2.269075  0  0  -0.815586  0  2.230279  0  0  -0.579214  -0.761999  0  2.29578  0
