# generated using pymatgen
data_TbCu2H8C8(N3O4)3
_symmetry_space_group_name_H-M   'P 1'
_cell_length_a   7.25982061
_cell_length_b   11.17452431
_cell_length_c   11.81297576
_cell_angle_alpha   102.33483080
_cell_angle_beta   90.00291519
_cell_angle_gamma   89.99725998
_symmetry_Int_Tables_number   1
_chemical_formula_structural   TbCu2H8C8(N3O4)3
_chemical_formula_sum   'Tb2 Cu4 H16 C16 N18 O24'
_cell_volume   936.20599965
_cell_formula_units_Z   2
loop_
 _symmetry_equiv_pos_site_id
 _symmetry_equiv_pos_as_xyz
  1  'x, y, z'
loop_
 _atom_site_type_symbol
 _atom_site_label
 _atom_site_symmetry_multiplicity
 _atom_site_fract_x
 _atom_site_fract_y
 _atom_site_fract_z
 _atom_site_occupancy
 _atom_site_hle17_ddec_charge
 _atom_site_hle17_ddec_spin_density
 _atom_site_hle17_ddec_sum_bond_order
 _atom_site_hle17_magmom
 _atom_site_hse06_10hf_ddec_charge
 _atom_site_hse06_10hf_ddec_spin_density
 _atom_site_hse06_10hf_ddec_sum_bond_order
 _atom_site_hse06_10hf_magmom
 _atom_site_hse06_ddec_charge
 _atom_site_hse06_ddec_spin_density
 _atom_site_hse06_ddec_sum_bond_order
 _atom_site_hse06_magmom
 _atom_site_pbe_cm5_charge
 _atom_site_pbe_ddec_charge
 _atom_site_pbe_ddec_spin_density
 _atom_site_pbe_ddec_sum_bond_order
 _atom_site_pbe_magmom
Tb  Tb0  1  0.50088462  0.24999700  0.99999649  1  2.342276  -0.000931  1.626807  -0.001  2.267733  -0.001039  1.963603  -0.002  2.310132  -0.00063  1.921305  -0.001  1.520757  2.169413  -0.001456  2.120918  -0.002
Tb  Tb1  1  0.49911560  0.75000245  0.00000187  1  2.342299  0.000932  1.626796  0.001  2.267772  0.00104  1.963597  0.002  2.310168  0.000629  1.921297  0.001  1.520748  2.169506  0.001456  2.120838  0.002
Cu  Cu2  1  0.86136489  0.88874837  0.57465121  1  0.733044  -0.679592  2.085016  -0.476  0.703816  -0.783427  2.51911  -0.608  0.791491  -0.87184  2.45043  -0.704  0.806526  0.652971  -0.706693  2.566219  -0.535
Cu  Cu3  1  0.86135380  0.61125803  0.42534301  1  0.732692  -0.679538  2.085287  -0.476  0.703302  -0.78338  2.519517  -0.608  0.791076  -0.871803  2.450769  -0.704  0.806389  0.652485  -0.706641  2.566623  -0.535
Cu  Cu4  1  0.13862981  0.11125376  0.42535280  1  0.73295  0.679569  2.085063  0.476  0.703761  0.783424  2.51907  0.608  0.791396  0.871852  2.450513  0.704  0.806514  0.6529  0.706687  2.566196  0.535
Cu  Cu5  1  0.13864642  0.38874140  0.57465704  1  0.732918  0.679535  2.085051  0.476  0.703503  0.783357  2.519261  0.608  0.79124  0.87179  2.45046  0.704  0.806419  0.652679  0.706617  2.566364  0.535
H  H6  1  0.22917009  0.05168123  0.92759214  1  0.431401  -5e-06  0.872244  0.0  0.401673  0.0  0.933933  0.0  0.413585  -4e-06  0.916469  0.0  0.296881  0.39305  1.2e-05  0.946383  0.0
H  H7  1  0.22917811  0.44831919  0.07240391  1  0.431498  -5e-06  0.872119  0.0  0.401787  0.0  0.933785  0.0  0.413701  -4e-06  0.916317  0.0  0.296957  0.393164  1.2e-05  0.946235  0.0
H  H8  1  0.77083013  0.94831543  0.07240901  1  0.431473  5e-06  0.872143  0.0  0.401713  -0.0  0.933875  0.0  0.413625  4e-06  0.916411  0.0  0.296875  0.393093  -1.2e-05  0.946321  0.0
H  H9  1  0.77082349  0.55168390  0.92759692  1  0.431513  5e-06  0.872101  0.0  0.4018  -0.0  0.933762  0.0  0.413712  4e-06  0.916298  0.0  0.296961  0.393177  -1.2e-05  0.946213  0.0
H  H10  1  0.31101519  0.03673429  0.04772100  1  0.438963  -8.9e-05  0.8615  0.0  0.407478  -3.1e-05  0.926664  0.0  0.419314  -2.1e-05  0.909146  0.0  0.303066  0.399213  -3.3e-05  0.938513  0.0
H  H11  1  0.31102576  0.46326217  0.95228188  1  0.438912  -8.9e-05  0.86159  0.0  0.407445  -3.1e-05  0.926706  0.0  0.419272  -2.1e-05  0.909203  0.0  0.303078  0.399178  -3.3e-05  0.938556  0.0
H  H12  1  0.68898641  0.96326694  0.95228112  1  0.439  8.9e-05  0.861453  0.0  0.407511  3.1e-05  0.926624  0.0  0.419348  2.1e-05  0.909104  0.0  0.303082  0.399245  3.3e-05  0.938474  0.0
H  H13  1  0.68897308  0.53673816  0.04771921  1  0.43893  8.9e-05  0.861566  0.0  0.407501  3.1e-05  0.926642  0.0  0.419334  2.1e-05  0.909128  0.0  0.303088  0.399238  3.3e-05  0.938489  0.0
H  H14  1  0.30871679  0.27204909  0.77258833  1  0.445834  -4.1e-05  0.837282  0.0  0.416172  2.1e-05  0.8983  0.0  0.426107  -2.6e-05  0.883883  0.0  0.30727  0.408999  9.4e-05  0.908553  0.0
H  H15  1  0.30870834  0.22793752  0.22739884  1  0.44597  -4.1e-05  0.837099  0.0  0.416297  2.1e-05  0.89815  0.0  0.426236  -2.7e-05  0.883721  0.0  0.307322  0.409126  9.5e-05  0.908402  0.0
H  H16  1  0.69127792  0.72794212  0.22740743  1  0.445897  4.1e-05  0.837202  0.0  0.41622  -2.1e-05  0.898246  0.0  0.426156  2.7e-05  0.883825  0.0  0.307302  0.40905  -9.4e-05  0.908497  0.0
H  H17  1  0.69128774  0.77206003  0.77260419  1  0.445881  4.1e-05  0.837226  0.0  0.416255  -2.1e-05  0.898183  0.0  0.426189  2.7e-05  0.883766  0.0  0.307293  0.409087  -9.4e-05  0.908431  0.0
H  H18  1  0.27013175  0.13304951  0.78052261  1  0.447605  -3.4e-05  0.822774  0.0  0.422653  -2.9e-05  0.87903  0.0  0.431012  -2.5e-05  0.866838  0.0  0.315795  0.416388  -1.6e-05  0.888017  0.0
H  H19  1  0.27014685  0.36694539  0.21946679  1  0.447574  -3.4e-05  0.822794  0.0  0.422702  -2.9e-05  0.878964  0.0  0.431038  -2.5e-05  0.866804  0.0  0.315788  0.416455  -1.7e-05  0.887931  0.0
H  H20  1  0.72986434  0.86694349  0.21947777  1  0.447635  3.4e-05  0.822838  0.0  0.422762  2.9e-05  0.878891  0.0  0.431098  2.5e-05  0.866731  0.0  0.315845  0.416513  1.6e-05  0.88786  0.0
H  H21  1  0.72985336  0.63305585  0.78053533  1  0.447598  3.4e-05  0.822793  0.0  0.422718  2.9e-05  0.878953  0.0  0.431054  2.5e-05  0.866793  0.0  0.315773  0.416469  1.6e-05  0.88792  0.0
C  C22  1  0.71732092  0.04124593  0.77595137  1  0.696145  0.005151  3.821347  0.008  0.648272  0.000992  4.116386  0.003  0.686666  0.000916  4.1063  0.003  0.243163  0.621441  0.000889  4.122103  0.003
C  C23  1  0.71734480  0.45875535  0.22403407  1  0.696781  0.005149  3.820922  0.008  0.648718  0.000993  4.116179  0.003  0.687111  0.000916  4.106086  0.003  0.24338  0.621895  0.000889  4.121908  0.003
C  C24  1  0.28267104  0.95876079  0.22405276  1  0.696191  -0.005151  3.82101  -0.008  0.648383  -0.000992  4.115869  -0.003  0.686772  -0.000914  4.105784  -0.003  0.243172  0.621553  -0.000889  4.121589  -0.003
C  C25  1  0.28266231  0.54124228  0.77596221  1  0.696769  -0.005148  3.821114  -0.008  0.648741  -0.000991  4.116328  -0.003  0.687133  -0.000914  4.106239  -0.003  0.243372  0.621913  -0.000889  4.122052  -0.003
C  C26  1  0.79268712  0.35936916  0.80963603  1  0.707671  0.000206  3.882086  0.0  0.662649  0.000208  4.171759  0.0  0.697392  0.000144  4.160096  0.0  0.238557  0.638254  0.000256  4.178373  0.0
C  C27  1  0.79272612  0.14063557  0.19036608  1  0.707551  0.000206  3.882403  0.0  0.66279  0.000207  4.171631  0.0  0.697522  0.000142  4.159968  0.0  0.238618  0.638441  0.000257  4.178246  0.0
C  C28  1  0.20730896  0.64063212  0.19036272  1  0.707764  -0.000206  3.882064  0.0  0.662762  -0.000206  4.171733  0.0  0.697508  -0.000143  4.160066  0.0  0.238628  0.638374  -0.000256  4.178354  0.0
C  C29  1  0.20727410  0.85936570  0.80963351  1  0.707534  -0.000206  3.882361  0.0  0.662827  -0.000205  4.171553  0.0  0.697561  -0.000142  4.159891  0.0  0.238701  0.638447  -0.000256  4.178164  0.0
C  C30  1  0.81549817  0.12395730  0.71365814  1  -0.006316  0.0017  3.684431  0.002  -0.009608  0.001323  3.937575  0.002  -0.008289  0.001366  3.950222  0.002  0.101927  -0.009943  0.001117  3.929397  0.001
C  C31  1  0.81558286  0.37605459  0.28631235  1  -0.006764  0.001705  3.685047  0.002  -0.010042  0.001324  3.938344  0.002  -0.00872  0.001369  3.950985  0.002  0.101734  -0.01034  0.001118  3.930205  0.001
C  C32  1  0.18450755  0.87604296  0.28634970  1  -0.006434  -0.0017  3.684437  -0.002  -0.009639  -0.001323  3.937436  -0.002  -0.008314  -0.001368  3.950081  -0.002  0.101983  -0.009964  -0.001117  3.929257  -0.001
C  C33  1  0.18442149  0.62394490  0.71368263  1  -0.006732  -0.001703  3.685094  -0.002  -0.010001  -0.001324  3.938381  -0.002  -0.008686  -0.00137  3.951026  -0.002  0.101697  -0.010334  -0.001119  3.930224  -0.001
C  C34  1  0.86117431  0.24851886  0.72645765  1  0.022886  0.003824  3.663614  0.006  0.019723  0.001891  3.916002  0.003  0.021154  0.00055  3.927335  0.002  0.1126  0.018468  0.003012  3.909164  0.005
C  C35  1  0.86124507  0.25148897  0.27352612  1  0.023256  0.003825  3.663213  0.006  0.020014  0.001894  3.915511  0.003  0.021475  0.00055  3.926822  0.002  0.112675  0.018631  0.003013  3.908839  0.005
C  C36  1  0.13882591  0.75148143  0.27354681  1  0.022725  -0.003823  3.663337  -0.006  0.019492  -0.001892  3.915779  -0.003  0.020915  -0.00055  3.927122  -0.002  0.112454  0.01824  -0.003012  3.908953  -0.005
C  C37  1  0.13875790  0.74851048  0.72647140  1  0.023165  -0.003823  3.663435  -0.006  0.019841  -0.001893  3.915826  -0.003  0.021298  -0.000551  3.927142  -0.002  0.112611  0.018571  -0.003013  3.909009  -0.005
N  N38  1  0.90385257  0.06418771  0.61713826  1  -0.217376  -0.053561  3.385291  -0.066  -0.20149  -0.041187  3.728709  -0.055  -0.219576  -0.036127  3.743751  -0.051  -0.259399  -0.191575  -0.042308  3.721276  -0.055
N  N39  1  0.90394770  0.43582658  0.38283130  1  -0.217024  -0.053544  3.385799  -0.066  -0.201173  -0.041194  3.729274  -0.055  -0.219291  -0.036138  3.74437  -0.051  -0.259262  -0.191259  -0.042307  3.721836  -0.055
N  N40  1  0.09613938  0.93581353  0.38286386  1  -0.217153  0.053558  3.385155  0.066  -0.201278  0.041186  3.728504  0.055  -0.219364  0.036127  3.743574  0.051  -0.259346  -0.191354  0.042301  3.721069  0.055
N  N41  1  0.09606078  0.56417291  0.61716284  1  -0.21716  0.053542  3.385842  0.066  -0.201286  0.041195  3.729246  0.055  -0.219385  0.036139  3.744308  0.051  -0.259286  -0.191373  0.042304  3.721821  0.055
N  N42  1  0.97712093  0.25580067  0.63828678  1  -0.217366  -0.001333  3.198827  -0.001  -0.195132  0.002523  3.504969  0.004  -0.208196  0.001857  3.521347  0.003  -0.222887  -0.186091  0.002645  3.495189  0.004
N  N43  1  0.97721464  0.24420981  0.36169615  1  -0.217554  -0.001308  3.199252  -0.001  -0.195202  0.00255  3.505266  0.004  -0.208285  0.001883  3.521689  0.003  -0.222886  -0.186104  0.002672  3.49551  0.004
N  N44  1  0.02286551  0.74420059  0.36171366  1  -0.217208  0.001335  3.198451  0.001  -0.194988  -0.00252  3.504646  -0.004  -0.208058  -0.001857  3.521051  -0.003  -0.222838  -0.185941  -0.002645  3.494876  -0.004
N  N45  1  0.02279108  0.75578965  0.63830137  1  -0.217558  0.001309  3.199506  0.001  -0.195199  -0.002546  3.505532  -0.004  -0.208286  -0.00188  3.521944  -0.003  -0.222873  -0.186135  -0.002673  3.495747  -0.004
N  N46  1  0.69481735  0.75002569  0.49994083  1  -0.511685  -0.13411  2.973457  -0.162  -0.590611  -0.063527  3.39586  -0.083  -0.64514  -0.043917  3.40629  -0.062  -0.375746  -0.559613  -0.073085  3.392625  -0.091
N  N47  1  0.30518562  0.24996532  0.50007182  1  -0.511862  0.13407  2.973767  0.162  -0.590751  0.063516  3.396214  0.083  -0.645259  0.043902  3.406641  0.062  -0.3759  -0.559761  0.073091  3.39298  0.091
N  N48  1  0.00035796  0.85624957  0.42578176  1  -0.046029  -0.065937  3.313031  -0.079  -0.019928  -0.055373  3.64422  -0.073  -0.036347  -0.048011  3.666329  -0.067  -0.138162  -0.011431  -0.057218  3.63249  -0.072
N  N49  1  0.00027135  0.64373933  0.57423904  1  -0.045942  -0.065938  3.314137  -0.079  -0.01979  -0.05536  3.645209  -0.073  -0.036224  -0.047999  3.667357  -0.067  -0.138143  -0.011303  -0.057207  3.633482  -0.072
N  N50  1  0.99963261  0.14375168  0.57421952  1  -0.045915  0.065934  3.31295  0.079  -0.019816  0.055374  3.644096  0.073  -0.036233  0.048012  3.666219  0.067  -0.138181  -0.011319  0.057219  3.632367  0.072
N  N51  1  0.99973576  0.35626107  0.42575698  1  -0.045945  0.065939  3.314001  0.079  -0.019862  0.055361  3.645197  0.073  -0.036281  0.047997  3.667313  0.067  -0.138147  -0.01137  0.057204  3.633457  0.072
N  N52  1  0.52806943  0.74998100  0.50001082  1  0.390827  0.047108  4.117236  0.07  0.458506  0.007303  4.434686  0.017  0.481851  0.009875  4.46888  0.019  0.101945  0.443838  0.003633  4.413043  0.013
N  N53  1  0.47192390  0.25002582  0.49998487  1  0.391128  -0.047135  4.116759  -0.07  0.458675  -0.00731  4.434425  -0.017  0.482013  -0.009883  4.468632  -0.019  0.102076  0.443994  -0.003645  4.412767  -0.013
N  N54  1  0.36836714  0.74994927  0.50006505  1  -0.229441  -0.166658  2.367122  -0.183  -0.286708  -0.069808  2.61029  -0.08  -0.299862  -0.05445  2.626589  -0.066  -0.137127  -0.279285  -0.079528  2.600194  -0.088
N  N55  1  0.63163583  0.25007147  0.49991836  1  -0.229658  0.166753  2.366519  0.183  -0.286826  0.069836  2.609711  0.08  -0.299983  0.054473  2.626022  0.066  -0.137185  -0.279402  0.079571  2.599602  0.088
O  O56  1  0.65278913  0.07612791  0.87659831  1  -0.680553  -0.011116  2.10385  -0.014  -0.636651  -0.006949  2.345502  -0.009  -0.66283  -0.003706  2.332952  -0.005  -0.343884  -0.609622  -0.010102  2.355242  -0.013
O  O57  1  0.65277146  0.42387220  0.12338908  1  -0.680784  -0.01111  2.103497  -0.014  -0.636853  -0.006948  2.345232  -0.009  -0.663031  -0.003706  2.332679  -0.005  -0.343975  -0.609821  -0.010099  2.354976  -0.013
O  O58  1  0.34721935  0.92387509  0.12341012  1  -0.680544  0.011117  2.103655  0.014  -0.636697  0.00695  2.345277  0.009  -0.662877  0.003705  2.33273  0.005  -0.3439  -0.609675  0.010103  2.355019  0.013
O  O59  1  0.34723013  0.57613006  0.87660480  1  -0.680786  0.011107  2.103488  0.014  -0.636865  0.006947  2.345225  0.009  -0.663041  0.003705  2.332673  0.005  -0.344028  -0.609847  0.010099  2.354967  0.013
O  O60  1  0.27994137  0.09977313  0.00256336  1  -0.93987  -2.1e-05  1.860754  0.0  -0.900844  -1.4e-05  2.044909  0.0  -0.919217  -1.2e-05  2.008653  0.0  -0.670263  -0.877998  -2.4e-05  2.076112  0.0
O  O61  1  0.27993275  0.40022238  0.99743071  1  -0.939863  -2.1e-05  1.860758  0.0  -0.900908  -1.4e-05  2.044999  0.0  -0.919283  -1.2e-05  2.008743  0.0  -0.670359  -0.878065  -2.4e-05  2.076204  0.0
O  O62  1  0.72006436  0.90022539  0.99743565  1  -0.939972  2.1e-05  1.860655  0.0  -0.900932  1.4e-05  2.044863  0.0  -0.919305  1.1e-05  2.008607  0.0  -0.670287  -0.878096  2.5e-05  2.076062  0.0
O  O63  1  0.72006884  0.59977886  0.00257141  1  -0.939905  2.1e-05  1.860701  0.0  -0.900984  1.4e-05  2.044876  0.0  -0.919361  1.2e-05  2.00862  0.0  -0.670381  -0.878148  2.4e-05  2.076073  0.0
O  O64  1  0.35537325  0.20197233  0.80212514  1  -0.891483  0.00018  1.834286  0.0  -0.84937  0.000113  2.004827  0.0  -0.867287  2.6e-05  1.976387  0.0  -0.615303  -0.829032  0.0002  2.029209  0.0
O  O65  1  0.35538752  0.29801568  0.19787820  1  -0.891627  0.00018  1.834066  0.0  -0.849602  0.000113  2.004485  0.0  -0.867485  2.6e-05  1.976105  0.0  -0.615359  -0.829283  0.0002  2.028821  0.0
O  O66  1  0.64461870  0.79802157  0.19787627  1  -0.891591  -0.000181  1.834324  0.0  -0.849556  -0.000113  2.00471  0.0  -0.867441  -2.6e-05  1.976325  0.0  -0.615376  -0.829239  -0.0002  2.029043  0.0
O  O67  1  0.64460581  0.70198191  0.80212146  1  -0.89154  -0.000181  1.834206  0.0  -0.849527  -0.000112  2.004608  0.0  -0.867414  -2.5e-05  1.976226  0.0  -0.615299  -0.829216  -0.0002  2.028943  0.0
O  O68  1  0.68236465  0.33920590  0.88734202  1  -0.760132  0.000681  2.082455  0.001  -0.717331  5.6e-05  2.3362  0.0  -0.74225  -4.2e-05  2.322584  0.0  -0.428382  -0.688227  -6.1e-05  2.348359  0.0
O  O69  1  0.68238198  0.16078958  0.11266310  1  -0.760222  0.00068  2.082818  0.001  -0.717469  5.6e-05  2.336349  0.0  -0.74242  -4.2e-05  2.322817  0.0  -0.428346  -0.68836  -6.1e-05  2.348493  0.0
O  O70  1  0.31764108  0.66079257  0.11266121  1  -0.760167  -0.000681  2.082588  -0.001  -0.717355  -5.7e-05  2.336303  0.0  -0.74227  4.2e-05  2.322676  0.0  -0.428382  -0.68826  6.1e-05  2.348474  0.0
O  O71  1  0.31762374  0.83920529  0.88733345  1  -0.760213  -0.000679  2.082678  -0.001  -0.717482  -5.6e-05  2.336236  0.0  -0.742416  4.2e-05  2.32266  0.0  -0.428373  -0.688386  6.2e-05  2.348395  0.0
O  O72  1  0.71134237  0.92803438  0.72128503  1  -0.556089  -0.098563  2.014278  -0.127  -0.517216  -0.068567  2.272488  -0.098  -0.561433  -0.052618  2.265787  -0.079  -0.297828  -0.490054  -0.07645  2.279107  -0.106
O  O73  1  0.71133585  0.57196298  0.27870167  1  -0.556434  -0.098509  2.014483  -0.127  -0.517245  -0.068543  2.272561  -0.098  -0.561479  -0.052605  2.265878  -0.079  -0.29793  -0.490076  -0.076414  2.27915  -0.105
O  O74  1  0.28866198  0.07197141  0.27872060  1  -0.556106  0.098561  2.014074  0.127  -0.517223  0.068568  2.272229  0.098  -0.56143  0.052619  2.265543  0.079  -0.297823  -0.49006  0.076447  2.278855  0.106
O  O75  1  0.28866024  0.42803185  0.72129910  1  -0.55644  0.098508  2.014664  0.127  -0.517271  0.068545  2.27273  0.098  -0.561483  0.052605  2.265996  0.079  -0.297848  -0.490099  0.07642  2.2793  0.105
O  O76  1  0.84440723  0.46422764  0.79877270  1  -0.604267  -0.002403  1.899224  -0.003  -0.559306  -0.001157  2.10911  -0.002  -0.584775  -0.000646  2.099337  -0.001  -0.304539  -0.541995  -0.001812  2.116745  -0.002
O  O77  1  0.84444795  0.03577200  0.20124012  1  -0.604183  -0.002401  1.899139  -0.003  -0.559343  -0.001158  2.108933  -0.002  -0.584802  -0.000646  2.099156  -0.001  -0.304609  -0.542029  -0.001812  2.116556  -0.002
O  O78  1  0.15559574  0.53577176  0.20122988  1  -0.604307  0.002403  1.899142  0.003  -0.559345  0.001156  2.109024  0.002  -0.584816  0.000645  2.099249  0.001  -0.304573  -0.542025  0.001812  2.11666  0.002
O  O79  1  0.15554675  0.96422739  0.79876246  1  -0.604061  0.002401  1.899186  0.003  -0.559265  0.001156  2.108986  0.001  -0.584726  0.000645  2.099215  0.001  -0.304603  -0.541949  0.001813  2.116614  0.002
