# generated using pymatgen
data_CuH15C17N3O4
_symmetry_space_group_name_H-M   'P 1'
_cell_length_a   5.34057571
_cell_length_b   16.73250969
_cell_length_c   18.15177627
_cell_angle_alpha   98.46711464
_cell_angle_beta   98.45741152
_cell_angle_gamma   90.02247072
_symmetry_Int_Tables_number   1
_chemical_formula_structural   CuH15C17N3O4
_chemical_formula_sum   'Cu4 H60 C68 N12 O16'
_cell_volume   1586.53552603
_cell_formula_units_Z   4
loop_
 _symmetry_equiv_pos_site_id
 _symmetry_equiv_pos_as_xyz
  1  'x, y, z'
loop_
 _atom_site_type_symbol
 _atom_site_label
 _atom_site_symmetry_multiplicity
 _atom_site_fract_x
 _atom_site_fract_y
 _atom_site_fract_z
 _atom_site_occupancy
 _atom_site_pbe_bader_charge
 _atom_site_pbe_bader_spin_density
 _atom_site_pbe_cm5_charge
 _atom_site_pbe_ddec_charge
 _atom_site_pbe_ddec_spin_density
 _atom_site_pbe_ddec_sum_bond_order
 _atom_site_pbe_magmom
Cu  Cu0  1  0.03183602  0.91063309  0.69525586  1  1.044331  0.559189  0.789824  0.745136  0.751694  2.50523  0.557
Cu  Cu1  1  0.33646708  0.58919989  0.30468963  1  1.042939  -0.559194  0.790002  0.74466  -0.75227  2.505208  -0.557
Cu  Cu2  1  0.96815980  0.08937133  0.30474725  1  1.044362  -0.559191  0.789809  0.7452  -0.751692  2.505038  -0.557
Cu  Cu3  1  0.66353906  0.41080221  0.69531032  1  1.04298  0.559188  0.789977  0.744618  0.752261  2.505097  0.557
H  H4  1  0.09322383  0.84359389  0.55429189  1  0.443214  0.004018  0.312246  0.321429  0.002714  0.91343  0.003
H  H5  1  0.53921642  0.65621295  0.44554921  1  0.451566  -0.004033  0.312489  0.321067  -0.002707  0.913542  -0.003
H  H6  1  0.90677388  0.15641349  0.44571338  1  0.44297  -0.004019  0.312276  0.321451  -0.002714  0.913724  -0.003
H  H7  1  0.46079014  0.34379183  0.55444371  1  0.451614  0.004036  0.312466  0.32102  0.002709  0.913618  0.003
H  H8  1  0.02297804  0.69244027  0.68404102  1  0.072033  1.4e-05  0.099164  0.111248  1.9e-05  0.995546  0.0
H  H9  1  0.33855894  0.80785583  0.31581950  1  0.082265  -1.3e-05  0.099133  0.111409  -1.9e-05  0.995191  0.0
H  H10  1  0.97700360  0.30756364  0.31595917  1  0.072186  -1.3e-05  0.099154  0.11124  -1.9e-05  0.995498  0.0
H  H11  1  0.66142118  0.19215582  0.68416828  1  0.081695  1.3e-05  0.099114  0.111361  1.9e-05  0.995355  0.0
H  H12  1  0.79555514  0.64905323  0.60571498  1  0.042411  -0.000219  0.098533  0.098396  -0.000157  1.011477  0.0
H  H13  1  0.18913225  0.85112341  0.39408569  1  -0.004489  0.000228  0.098098  0.098049  0.00016  1.012285  0.0
H  H14  1  0.20446385  0.35094424  0.39427843  1  0.042572  0.00022  0.098524  0.098347  0.000157  1.011614  0.0
H  H15  1  0.81087645  0.14888521  0.60590204  1  -0.004371  -0.000228  0.098102  0.098043  -0.00016  1.012285  0.0
H  H16  1  0.79105370  0.61783049  0.69535666  1  0.073436  3.1e-05  0.097237  0.101913  4.3e-05  1.03583  0.0
H  H17  1  0.09476163  0.88219156  0.30440318  1  0.072074  -2.9e-05  0.097382  0.101826  -4.2e-05  1.036615  0.0
H  H18  1  0.20891631  0.38216886  0.30463520  1  0.07376  -3.1e-05  0.097266  0.101914  -4.3e-05  1.035784  0.0
H  H19  1  0.90520802  0.11780787  0.69558640  1  0.072145  2.9e-05  0.097351  0.101794  4.2e-05  1.036405  0.0
H  H20  1  0.95124898  0.70205848  0.80702938  1  0.098474  0.000831  0.099967  0.110042  0.000422  1.051168  0.001
H  H21  1  0.14404690  0.79795009  0.19287245  1  0.092756  -0.000833  0.099615  0.11042  -0.000423  1.05129  -0.001
H  H22  1  0.04874077  0.29793417  0.19296276  1  0.098177  -0.000831  0.100014  0.110066  -0.000422  1.051144  -0.001
H  H23  1  0.85592347  0.20204918  0.80712168  1  0.092328  0.000833  0.09966  0.110408  0.000423  1.051176  0.001
H  H24  1  0.89842116  0.76638911  0.93480008  1  0.060057  -2.9e-05  0.090516  0.086551  -1.4e-05  1.042848  0.0
H  H25  1  0.96369033  0.73345766  0.06510430  1  0.059618  2.9e-05  0.090577  0.08714  1.4e-05  1.043298  0.0
H  H26  1  0.10155706  0.23359803  0.06519333  1  0.060054  2.9e-05  0.090526  0.086561  1.4e-05  1.042808  0.0
H  H27  1  0.03628347  0.26654155  0.93489140  1  0.059958  -2.9e-05  0.090613  0.087143  -1.4e-05  1.043241  0.0
H  H28  1  0.55630262  0.86521828  0.95400924  1  0.053604  0.000464  0.092141  0.090922  0.000277  1.047538  0.0
H  H29  1  0.60235147  0.63460591  0.04594729  1  0.053943  -0.000458  0.092605  0.09145  -0.000273  1.047528  0.0
H  H30  1  0.44366859  0.13476325  0.04598812  1  0.05378  -0.000464  0.092126  0.090886  -0.000277  1.04737  0.0
H  H31  1  0.39762872  0.36538735  0.95404480  1  0.05381  0.000458  0.092654  0.091505  0.000273  1.047659  0.0
H  H32  1  0.21088250  0.92915752  0.91118098  1  0.089365  0.010321  0.111009  0.065669  0.005433  1.04173  0.006
H  H33  1  0.29916565  0.57072532  0.08874261  1  0.085652  -0.010286  0.111155  0.065913  -0.005417  1.042416  -0.006
H  H34  1  0.78907365  0.07082811  0.08882062  1  0.089845  -0.01032  0.111108  0.06568  -0.005433  1.041729  -0.006
H  H35  1  0.70083060  0.42927982  0.91125715  1  0.08572  0.010288  0.111109  0.065893  0.005418  1.042357  0.006
H  H36  1  0.14570251  0.03620608  0.93944896  1  0.057838  0.000411  0.099209  0.100972  0.000254  1.039349  0.0
H  H37  1  0.20579791  0.46362160  0.06055152  1  0.031304  -0.000418  0.099481  0.101174  -0.000252  1.039224  0.0
H  H38  1  0.85426798  0.96378186  0.06055586  1  0.05774  -0.000411  0.099131  0.100913  -0.000254  1.039292  0.0
H  H39  1  0.79420040  0.53637364  0.93945335  1  0.03136  0.000419  0.099497  0.101095  0.000253  1.039275  0.0
H  H40  1  0.87941750  0.13616420  0.99789654  1  0.056883  0.000319  0.096493  0.088562  0.000101  1.046808  0.0
H  H41  1  0.88050293  0.36385867  0.00209000  1  0.051281  -0.000322  0.096103  0.088221  -0.000105  1.048297  0.0
H  H42  1  0.12059506  0.86383019  0.00211504  1  0.057109  -0.000319  0.096482  0.088505  -0.000101  1.04702  0.0
H  H43  1  0.11952392  0.63613528  0.99791684  1  0.051088  0.000322  0.096104  0.088248  0.000104  1.04841  0.0
H  H44  1  0.46474969  0.17243383  0.92540794  1  0.074872  -2e-05  0.095428  0.095197  -3e-06  1.036557  0.0
H  H45  1  0.53804752  0.32766042  0.07451094  1  0.044947  1.6e-05  0.095069  0.095053  2e-06  1.036989  0.0
H  H46  1  0.53526766  0.82757642  0.07460213  1  0.074663  2e-05  0.095428  0.095203  3e-06  1.036767  0.0
H  H47  1  0.46196362  0.67233430  0.92549154  1  0.045252  -1.6e-05  0.095046  0.094988  -2e-06  1.037027  0.0
H  H48  1  0.34208667  0.10466991  0.79376365  1  0.11724  2.3e-05  0.102479  0.107993  5.9e-05  1.032269  0.0
H  H49  1  0.54703163  0.39539661  0.20615128  1  0.118303  -2.6e-05  0.103153  0.109533  -5.9e-05  1.031912  0.0
H  H50  1  0.65794029  0.89533819  0.20623873  1  0.117172  -2.3e-05  0.102487  0.108055  -5.9e-05  1.03209  0.0
H  H51  1  0.45297816  0.60460354  0.79385221  1  0.118394  2.6e-05  0.103164  0.109544  5.9e-05  1.031961  0.0
H  H52  1  0.79273568  0.94465973  0.44314299  1  0.126617  -0.000413  0.111266  0.182002  -0.000267  0.981288  0.0
H  H53  1  0.35010869  0.55516381  0.55682816  1  0.123305  0.000416  0.111367  0.182054  0.00027  0.981997  0.0
H  H54  1  0.20725898  0.05533746  0.55685834  1  0.126547  0.000413  0.111278  0.182044  0.000267  0.981227  0.0
H  H55  1  0.64994410  0.44483232  0.44316871  1  0.123282  -0.000416  0.111342  0.182063  -0.00027  0.981791  0.0
H  H56  1  0.49650346  0.90844734  0.45495779  1  0.0724  0.001459  0.102746  0.151184  0.000712  1.027107  0.001
H  H57  1  0.04241373  0.59141387  0.54511171  1  0.083652  -0.001461  0.103301  0.152207  -0.000714  1.02586  -0.001
H  H58  1  0.50349563  0.09154854  0.54504600  1  0.072443  -0.001458  0.102713  0.15119  -0.000712  1.027111  -0.001
H  H59  1  0.95762842  0.40858311  0.45489556  1  0.083393  0.001461  0.103334  0.152278  0.000714  1.025944  0.001
H  H60  1  0.74444598  0.83884576  0.43850172  1  0.087285  -8.4e-05  0.107962  0.169313  -4.8e-05  0.983296  0.0
H  H61  1  0.30710580  0.66100510  0.56147477  1  0.09346  9e-05  0.108017  0.169907  5e-05  0.982248  0.0
H  H62  1  0.25556643  0.16115975  0.56150487  1  0.087326  8.4e-05  0.107986  0.169301  4.8e-05  0.983255  0.0
H  H63  1  0.69294411  0.33899147  0.43852690  1  0.093344  -9e-05  0.108034  0.16991  -5e-05  0.982397  0.0
C  C64  1  0.82714352  0.66909347  0.66657118  1  0.387965  -0.000236  -0.145315  -0.176141  -0.000256  3.891457  0.0
C  C65  1  0.16000659  0.83103369  0.33325933  1  0.42275  0.000236  -0.144493  -0.175388  0.000259  3.891636  0.0
C  C66  1  0.17283934  0.33090986  0.33342828  1  0.387073  0.000236  -0.145306  -0.176076  0.000256  3.891183  0.0
C  C67  1  0.84000338  0.16897710  0.66673562  1  0.423283  -0.000236  -0.144533  -0.175537  -0.000259  3.892255  0.0
C  C68  1  0.63855895  0.76293637  0.75190228  1  0.405039  0.01076  0.068835  0.128633  0.007501  4.046995  0.009
C  C69  1  0.88658944  0.73699083  0.24799639  1  0.439221  -0.010656  0.069251  0.128652  -0.007497  4.048963  -0.009
C  C70  1  0.36144971  0.23706538  0.24809060  1  0.40492  -0.010759  0.068774  0.128448  -0.007501  4.04702  -0.009
C  C71  1  0.11343629  0.26300061  0.75199568  1  0.438917  0.010656  0.069322  0.128871  0.007497  4.049006  0.009
C  C72  1  0.79932327  0.74465606  0.81385238  1  -0.005787  -0.002062  -0.107175  -0.186574  -0.001369  4.008  -0.001
C  C73  1  0.98547456  0.75526414  0.18605861  1  -0.009174  0.002058  -0.108256  -0.189  0.001369  4.011246  0.001
C  C74  1  0.20068343  0.25534622  0.18614240  1  -0.005446  0.002063  -0.107261  -0.186601  0.00137  4.008056  0.001
C  C75  1  0.01453790  0.24472906  0.81393550  1  -0.008679  -0.002058  -0.108348  -0.189066  -0.001369  4.010948  -0.001
C  C76  1  0.76920791  0.78203837  0.88709161  1  -0.029936  0.000537  -0.117683  -0.107688  0.000305  4.101244  0.0
C  C77  1  0.88227623  0.71777273  0.11283532  1  -0.026054  -0.000514  -0.117504  -0.108213  -0.000292  4.101505  0.0
C  C78  1  0.23079299  0.21795537  0.11290425  1  -0.030038  -0.000537  -0.117625  -0.107708  -0.000305  4.101035  0.0
C  C79  1  0.11772493  0.28222403  0.88716105  1  -0.025993  0.000514  -0.117601  -0.108258  0.000292  4.101566  0.0
C  C80  1  0.57879693  0.83604557  0.89758659  1  -0.099685  -0.002345  -0.108206  -0.14088  -0.001476  4.035478  -0.001
C  C81  1  0.68142262  0.66370255  0.10237555  1  -0.060818  0.002336  -0.108827  -0.141812  0.001474  4.034599  0.001
C  C82  1  0.42119220  0.16393767  0.10241373  1  -0.099776  0.002345  -0.108151  -0.14065  0.001477  4.035071  0.001
C  C83  1  0.31855982  0.33629595  0.89762309  1  -0.060786  -0.002336  -0.108861  -0.141905  -0.001474  4.035013  -0.001
C  C84  1  0.40831673  0.85609605  0.83502446  1  0.034224  0.005673  -0.040462  -0.077422  0.003705  4.056057  0.005
C  C85  1  0.57337201  0.64368198  0.16491979  1  -0.026275  -0.00567  -0.039836  -0.075415  -0.003691  4.053815  -0.005
C  C86  1  0.59165663  0.14388950  0.16497926  1  0.031916  -0.005679  -0.040598  -0.07796  -0.003705  4.056453  -0.005
C  C87  1  0.42661040  0.35631827  0.83508089  1  -0.026234  0.00567  -0.039736  -0.075156  0.003691  4.053409  0.005
C  C88  1  0.43788300  0.81955484  0.76049772  1  0.730093  -0.00082  0.094011  0.230953  0.001012  4.096655  -0.002
C  C89  1  0.67744218  0.68026623  0.23944352  1  0.709459  0.000744  0.095515  0.23349  -0.001011  4.094274  0.002
C  C90  1  0.56210274  0.18044610  0.23950062  1  0.732501  0.000825  0.094077  0.231349  -0.001012  4.096732  0.002
C  C91  1  0.32256485  0.31972931  0.76055296  1  0.709136  -0.000744  0.095365  0.233113  0.001012  4.094482  -0.002
C  C92  1  0.21611719  0.91216381  0.85085018  1  0.521381  -0.00632  0.067402  0.114876  -0.003848  3.94132  -0.005
C  C93  1  0.36501036  0.58768952  0.14906439  1  0.526836  0.006317  0.066491  0.113228  0.003844  3.941776  0.005
C  C94  1  0.78384878  0.08782423  0.14915199  1  0.520607  0.00632  0.067398  0.115128  0.003848  3.941138  0.005
C  C95  1  0.63497611  0.41231577  0.85093123  1  0.527022  -0.006319  0.066544  0.113142  -0.003845  3.941501  -0.005
C  C96  1  0.89322300  0.00661443  0.83359926  1  0.33272  0.002101  0.095861  0.19738  0.002129  3.958696  0.001
C  C97  1  0.05894586  0.49333888  0.16638469  1  0.329993  -0.00208  0.09667  0.199258  -0.002114  3.957216  -0.001
C  C98  1  0.10676252  0.99339466  0.16640913  1  0.333588  -0.002094  0.095931  0.197428  -0.002127  3.958769  -0.001
C  C99  1  0.94107127  0.50665818  0.83362024  1  0.330539  0.00208  0.096581  0.198996  0.002115  3.95736  0.001
C  C100  1  0.96431537  0.04794212  0.90748068  1  0.018899  0.004893  -0.097348  -0.168887  0.003471  3.969545  0.004
C  C101  1  0.05615618  0.45197886  0.09249852  1  0.056755  -0.004883  -0.098109  -0.169129  -0.003473  3.971223  -0.004
C  C102  1  0.03568825  0.95205171  0.09252946  1  0.018035  -0.0049  -0.097332  -0.168954  -0.003473  3.969133  -0.004
C  C103  1  0.94384860  0.54802005  0.90750555  1  0.056577  0.004883  -0.098141  -0.168967  0.003472  3.971269  0.004
C  C104  1  0.81354221  0.10587908  0.94091828  1  -0.118168  -0.000893  -0.09938  -0.082575  -0.000634  4.048717  0.0
C  C105  1  0.87166746  0.39411648  0.05906033  1  -0.138172  0.000901  -0.0988  -0.082198  0.000647  4.049385  0.001
C  C106  1  0.18646615  0.89411493  0.05908708  1  -0.118603  0.000893  -0.099304  -0.082277  0.000634  4.048632  0.0
C  C107  1  0.12832494  0.60588604  0.94094490  1  -0.137611  -0.000901  -0.098711  -0.082122  -0.000647  4.049641  -0.001
C  C108  1  0.58458575  0.12618518  0.90101336  1  -0.002317  0.001354  -0.101443  -0.095759  0.000896  4.022667  0.001
C  C109  1  0.68240576  0.37388835  0.09892098  1  0.041577  -0.001378  -0.100934  -0.095558  -0.000915  4.022263  -0.001
C  C110  1  0.41541139  0.87381556  0.09899078  1  -0.002058  -0.001355  -0.101541  -0.096014  -0.000896  4.02314  -0.001
C  C111  1  0.31757191  0.62611799  0.90107923  1  0.040887  0.001379  -0.100933  -0.095592  0.000916  4.022376  0.001
C  C112  1  0.51603619  0.08876355  0.82724866  1  -0.060271  -0.000894  -0.087635  -0.08438  -0.000555  3.968756  -0.001
C  C113  1  0.68770957  0.41129891  0.17269237  1  -0.106875  0.000899  -0.088525  -0.086999  0.000559  3.973232  0.001
C  C114  1  0.48397233  0.91124089  0.17275389  1  -0.060365  0.000895  -0.087659  -0.084467  0.000555  3.96806  0.001
C  C115  1  0.31228930  0.58870082  0.82730576  1  -0.107275  -0.0009  -0.088561  -0.087062  -0.000559  3.973076  -0.001
C  C116  1  0.66533786  0.03027436  0.79162011  1  -0.0661  0.001384  -0.012123  -0.098984  0.000699  3.890407  0.001
C  C117  1  0.87291627  0.46974053  0.20835342  1  -0.011953  -0.001374  -0.013234  -0.100788  -0.000694  3.892006  -0.001
C  C118  1  0.33464348  0.96973239  0.20838577  1  -0.065364  -0.001386  -0.012089  -0.098891  -0.000701  3.889754  -0.001
C  C119  1  0.12709269  0.53024996  0.79164843  1  -0.012134  0.001375  -0.013192  -0.10066  0.000695  3.891965  0.001
C  C120  1  0.55849821  0.00342816  0.70989960  1  1.384666  -0.000102  0.210885  0.429272  0.000899  4.228372  0.002
C  C121  1  0.84807676  0.49651883  0.29009701  1  1.375079  9.9e-05  0.208099  0.426593  -0.000895  4.229474  -0.002
C  C122  1  0.44151292  0.99658359  0.29010238  1  1.384726  0.000103  0.210846  0.429253  -0.000898  4.228395  -0.002
C  C123  1  0.15193963  0.50348014  0.70990540  1  1.375028  -0.0001  0.208096  0.426539  0.000894  4.229364  0.002
C  C124  1  0.77920028  0.90592251  0.55013997  1  1.257289  -0.001094  0.237123  0.523544  -0.00024  4.049675  -0.001
C  C125  1  0.22937810  0.59390936  0.44984084  1  1.248627  0.001064  0.236813  0.52345  0.000213  4.051515  0.001
C  C126  1  0.22079358  0.09408440  0.44986136  1  1.256772  0.001097  0.237234  0.523946  0.000244  4.049082  0.001
C  C127  1  0.77064968  0.40609332  0.55015999  1  1.248395  -0.001069  0.236809  0.523566  -0.000216  4.050972  -0.001
C  C128  1  0.69930136  0.89820681  0.46736090  1  -0.076744  0.005912  -0.233128  -0.511896  0.004555  3.908793  0.005
C  C129  1  0.23269530  0.60165304  0.53264169  1  -0.090527  -0.005904  -0.234365  -0.514579  -0.004558  3.908314  -0.005
C  C130  1  0.30068295  0.10179230  0.53263777  1  -0.076801  -0.005911  -0.233207  -0.512114  -0.004555  3.908879  -0.005
C  C131  1  0.76733775  0.39834138  0.46735229  1  -0.09041  0.005907  -0.234447  -0.514739  0.004559  3.908205  0.005
N  N132  1  0.05056958  0.94540317  0.80385813  1  -1.178614  0.089616  -0.364773  -0.312464  0.062147  3.602768  0.078
N  N133  1  0.24625616  0.55452166  0.19608553  1  -1.179751  -0.089534  -0.364312  -0.311972  -0.062018  3.602416  -0.078
N  N134  1  0.94942059  0.05459451  0.19614636  1  -1.178752  -0.089616  -0.364824  -0.31253  -0.062146  3.602762  -0.078
N  N135  1  0.75374321  0.44548176  0.80391149  1  -1.179968  0.089519  -0.364367  -0.311903  0.062008  3.602432  0.078
N  N136  1  0.72628323  0.96672289  0.66901222  1  -0.672208  0.087535  -0.323144  -0.33307  0.061508  3.37669  0.077
N  N137  1  0.05692827  0.53315575  0.33097936  1  -0.663787  -0.087635  -0.321865  -0.331465  -0.061495  3.375859  -0.077
N  N138  1  0.27373214  0.03328535  0.33098609  1  -0.672236  -0.087521  -0.323133  -0.333057  -0.061498  3.376676  -0.077
N  N139  1  0.94309401  0.46684201  0.66902316  1  -0.663671  0.087633  -0.321777  -0.331256  0.061495  3.375612  0.077
N  N140  1  0.97618671  0.87675282  0.58570761  1  -1.24273  0.094644  -0.542219  -0.630795  0.064559  3.359493  0.077
N  N141  1  0.39065397  0.62305872  0.41419535  1  -1.241526  -0.094726  -0.542074  -0.629019  -0.064596  3.360243  -0.077
N  N142  1  0.02378995  0.12326298  0.41430004  1  -1.24225  -0.094654  -0.542328  -0.631001  -0.064567  3.359043  -0.077
N  N143  1  0.60934109  0.37694525  0.58580311  1  -1.241191  0.094737  -0.541971  -0.628936  0.064604  3.360027  0.077
O  O144  1  0.64795836  0.73109408  0.67895058  1  -1.077488  0.000847  -0.189305  -0.152667  0.00052  2.627975  0.0
O  O145  1  0.96881414  0.76887477  0.32093548  1  -1.072351  -0.000851  -0.189886  -0.153018  -0.00052  2.6285  0.0
O  O146  1  0.35203791  0.26890697  0.32104502  1  -1.077097  -0.000847  -0.189317  -0.15261  -0.00052  2.627504  0.0
O  O147  1  0.03118718  0.23111753  0.67906644  1  -1.072351  0.000851  -0.189793  -0.152805  0.00052  2.629324  0.0
O  O148  1  0.29367479  0.83271347  0.69991891  1  -1.093524  0.107526  -0.330045  -0.462745  0.071864  2.457491  0.098
O  O149  1  0.59384887  0.66711192  0.30004138  1  -1.088733  -0.1076  -0.331433  -0.464867  -0.071909  2.457065  -0.098
O  O150  1  0.70631033  0.16729295  0.30007926  1  -1.0934  -0.107539  -0.330017  -0.462883  -0.071873  2.457622  -0.098
O  O151  1  0.40614046  0.33288432  0.69995254  1  -1.088582  0.107614  -0.331341  -0.464721  0.071919  2.45687  0.098
O  O152  1  0.33648996  0.02089607  0.68449733  1  -1.157199  0.011674  -0.322961  -0.53744  0.007713  2.228682  0.011
O  O153  1  0.65144873  0.47905051  0.31552142  1  -1.153268  -0.011581  -0.321446  -0.535611  -0.00766  2.22827  -0.011
O  O154  1  0.66352898  0.97911157  0.31550072  1  -1.157236  -0.011672  -0.322929  -0.537403  -0.007712  2.228435  -0.011
O  O155  1  0.34856406  0.52095512  0.68448172  1  -1.153398  0.011577  -0.321446  -0.535591  0.007657  2.228128  0.011
O  O156  1  0.62279148  0.95108563  0.58994957  1  -0.761458  0.008684  -0.057503  -0.090317  0.005342  2.477981  0.006
O  O157  1  0.03286097  0.54875091  0.41008396  1  -0.763729  -0.008706  -0.056952  -0.090174  -0.005362  2.477835  -0.006
O  O158  1  0.37720324  0.04892293  0.41005661  1  -0.761312  -0.008681  -0.057497  -0.090459  -0.00534  2.477832  -0.006
O  O159  1  0.96716102  0.45125419  0.58991696  1  -0.763593  0.008706  -0.057004  -0.090361  0.005362  2.47761  0.006
