# generated using pymatgen
data_CuH32C42S2N12(OF)6
_symmetry_space_group_name_H-M   'P 1'
_cell_length_a   9.01015601
_cell_length_b   11.17424416
_cell_length_c   12.02586595
_cell_angle_alpha   114.89949393
_cell_angle_beta   104.33149491
_cell_angle_gamma   93.86703279
_symmetry_Int_Tables_number   1
_chemical_formula_structural   CuH32C42S2N12(OF)6
_chemical_formula_sum   'Cu1 H32 C42 S2 N12 O6 F6'
_cell_volume   1043.56569291
_cell_formula_units_Z   1
loop_
 _symmetry_equiv_pos_site_id
 _symmetry_equiv_pos_as_xyz
  1  'x, y, z'
loop_
 _atom_site_type_symbol
 _atom_site_label
 _atom_site_symmetry_multiplicity
 _atom_site_fract_x
 _atom_site_fract_y
 _atom_site_fract_z
 _atom_site_occupancy
 _atom_site_hle17_ddec_charge
 _atom_site_hle17_ddec_spin_density
 _atom_site_hle17_ddec_sum_bond_order
 _atom_site_hle17_magmom
 _atom_site_hse06_10hf_ddec_charge
 _atom_site_hse06_10hf_ddec_spin_density
 _atom_site_hse06_10hf_ddec_sum_bond_order
 _atom_site_hse06_10hf_magmom
 _atom_site_hse06_ddec_charge
 _atom_site_hse06_ddec_spin_density
 _atom_site_hse06_ddec_sum_bond_order
 _atom_site_hse06_magmom
 _atom_site_pbe_cm5_charge
 _atom_site_pbe_ddec_charge
 _atom_site_pbe_ddec_spin_density
 _atom_site_pbe_ddec_sum_bond_order
 _atom_site_pbe_magmom
Cu  Cu0  1  0.50000005  0.50000077  0.50000138  1  0.818218  -0.706888  1.817384  -0.537  0.773469  -0.779738  2.203501  -0.635  0.848849  -0.840824  2.151382  -0.711  0.819888  0.727494  -0.736837  2.23931  -0.585
H  H1  1  0.25360477  0.06734436  0.78841808  1  0.108356  2e-06  0.990195  0.0  0.11585  -4e-06  1.058814  0.0  0.118928  -1e-06  1.056655  0.0  0.098762  0.113587  -6e-06  1.060577  0.0
H  H2  1  0.74639396  0.93265619  0.21158153  1  0.108343  6e-06  0.990188  0.0  0.115811  -3e-06  1.058845  0.0  0.118892  -1e-06  1.056675  0.0  0.098757  0.113552  -6e-06  1.0606  0.0
H  H3  1  0.22290863  0.47666586  0.70148127  1  0.105656  -0.000376  0.984019  -0.001  0.11032  -0.000244  1.053421  0.0  0.112742  -0.000151  1.053359  0.0  0.105304  0.108732  -0.000328  1.053221  0.0
H  H4  1  0.77709171  0.52333168  0.29851745  1  0.105686  -0.000374  0.984006  -0.001  0.110344  -0.000244  1.053408  0.0  0.112766  -0.000151  1.053346  0.0  0.105313  0.108756  -0.000328  1.053209  0.0
H  H5  1  0.70576266  0.62052482  0.81811927  1  0.124689  -0.000221  0.950499  0.0  0.134217  -0.000169  1.009726  0.0  0.136639  -0.000109  1.008817  0.0  0.109235  0.132539  -0.000226  1.01026  0.0
H  H6  1  0.29423584  0.37947472  0.18188156  1  0.124661  -0.000222  0.950524  0.0  0.134192  -0.000169  1.009749  0.0  0.136615  -0.000109  1.008841  0.0  0.109222  0.132515  -0.000226  1.010284  0.0
H  H7  1  0.48232133  0.22448578  0.86809122  1  0.122148  -0.000365  0.952551  -0.001  0.128769  -0.000238  1.016474  0.0  0.131546  -0.000152  1.015281  0.0  0.109776  0.126799  -0.000312  1.017351  0.0
H  H8  1  0.51767923  0.77551275  0.13191044  1  0.122131  -0.000364  0.952589  -0.001  0.128743  -0.000238  1.016519  0.0  0.131518  -0.000152  1.015327  0.0  0.109755  0.126755  -0.000312  1.017411  0.0
H  H9  1  0.78326185  0.25255744  0.68413682  1  0.095083  -3e-06  0.958844  0.0  0.102528  -1.3e-05  1.023896  0.0  0.105009  -1.1e-05  1.023735  0.0  0.100724  0.100745  -1.4e-05  1.024152  0.0
H  H10  1  0.21673780  0.74744212  0.31586174  1  0.095082  -4e-06  0.958845  0.0  0.102555  -1.3e-05  1.023866  0.0  0.10504  -1.1e-05  1.023707  0.0  0.100727  0.100773  -1.4e-05  1.024125  0.0
H  H11  1  0.05307635  0.24181547  0.49093430  1  0.086334  -0.000102  0.966911  0.0  0.094091  -8.1e-05  1.044578  0.0  0.094818  -3.9e-05  1.04454  0.0  0.114955  0.093529  -0.000129  1.044615  0.0
H  H12  1  0.94692261  0.75818609  0.50906493  1  0.086313  -0.0001  0.966906  0.0  0.094084  -8.1e-05  1.044583  0.0  0.094811  -3.9e-05  1.044545  0.0  0.114956  0.093525  -0.000129  1.044615  0.0
H  H13  1  0.85824302  0.15565809  0.44141156  1  0.115219  -1.4e-05  0.921409  0.0  0.13066  -4.3e-05  0.984038  0.0  0.131415  -2.3e-05  0.984109  0.0  0.127215  0.130116  -5.5e-05  0.984153  0.0
H  H14  1  0.14175571  0.84434246  0.55858723  1  0.115174  -1.3e-05  0.921361  0.0  0.130631  -4.4e-05  0.984013  0.0  0.131386  -2.3e-05  0.984084  0.0  0.127203  0.130086  -5.5e-05  0.984129  0.0
H  H15  1  0.82342372  0.77188476  0.69445220  1  0.119094  -0.000235  0.98296  0.0  0.120823  -0.000167  1.056576  0.0  0.123857  -0.000111  1.054222  0.0  0.104884  0.118394  -0.000223  1.058794  0.0
H  H16  1  0.17657982  0.22811681  0.30554954  1  0.119167  -0.000235  0.983  0.0  0.120892  -0.000167  1.056589  0.0  0.123926  -0.000111  1.054238  0.0  0.104915  0.118461  -0.000223  1.058807  0.0
H  H17  1  0.31799080  0.05562655  0.61148526  1  0.114884  -0.000288  0.903465  0.0  0.130886  -0.00016  0.960487  0.0  0.13238  -9.6e-05  0.957983  0.0  0.126185  0.129796  -0.000207  0.96162  0.0
H  H18  1  0.68200908  0.94437401  0.38851457  1  0.114902  -0.000289  0.903514  0.0  0.130905  -0.000159  0.960525  0.0  0.132399  -9.6e-05  0.958022  0.0  0.12619  0.129813  -0.000207  0.961658  0.0
H  H19  1  0.19459414  0.08327123  0.48839716  1  0.11376  1.9e-05  0.914815  0.0  0.127777  -2.8e-05  0.975002  0.0  0.128978  -1.3e-05  0.974104  0.0  0.127382  0.126873  -4.1e-05  0.975114  0.0
H  H20  1  0.80540665  0.91672832  0.51160245  1  0.113798  2e-05  0.914769  0.0  0.127785  -2.8e-05  0.974992  0.0  0.128987  -1.3e-05  0.974092  0.0  0.12738  0.126878  -4.1e-05  0.975108  0.0
H  H21  1  0.10626302  0.87031605  0.81364231  1  0.099066  1.8e-05  0.952028  0.0  0.108902  3.1e-05  1.014579  0.0  0.11118  3e-05  1.014205  0.0  0.100142  0.107179  3.3e-05  1.015133  0.0
H  H22  1  0.89374121  0.12968350  0.18635959  1  0.099026  1.6e-05  0.95207  0.0  0.108859  3.1e-05  1.014626  0.0  0.111137  3e-05  1.014253  0.0  0.100138  0.107137  3.3e-05  1.015178  0.0
H  H23  1  0.07175818  0.10401591  0.91979814  1  0.092031  7e-06  0.970433  0.0  0.095956  2e-06  1.040774  0.0  0.099195  2e-06  1.038408  0.0  0.091925  0.093646  2e-06  1.042435  0.0
H  H24  1  0.92824032  0.89598364  0.08020021  1  0.09204  4e-06  0.970397  0.0  0.095964  2e-06  1.040743  0.0  0.099203  2e-06  1.038377  0.0  0.091931  0.093657  2e-06  1.042401  0.0
H  H25  1  0.81554023  0.59401446  0.01699405  1  0.09265  1.6e-05  0.964555  0.0  0.103407  3e-05  1.023324  0.0  0.105529  2.9e-05  1.024007  0.0  0.0998  0.101813  3e-05  1.023044  0.0
H  H26  1  0.18445941  0.40598508  0.98300700  1  0.092663  1.7e-05  0.964581  0.0  0.103419  3e-05  1.02335  0.0  0.105542  2.9e-05  1.024032  0.0  0.099808  0.101822  3e-05  1.023071  0.0
H  H27  1  0.30116775  0.72710958  0.81588497  1  0.106943  6.7e-05  0.944267  0.0  0.11625  7e-06  1.004959  0.0  0.119172  5e-06  1.002815  0.0  0.103401  0.114029  7e-06  1.006627  0.0
H  H28  1  0.69883351  0.27288695  0.18411602  1  0.106922  6.6e-05  0.944299  0.0  0.11626  7e-06  1.004951  0.0  0.119185  5e-06  1.002806  0.0  0.103397  0.114039  7e-06  1.006616  0.0
H  H29  1  0.70716419  0.39965986  0.03996559  1  0.089338  6.3e-05  0.961796  0.0  0.100673  1.4e-05  1.021866  0.0  0.102835  1e-05  1.021748  0.0  0.100323  0.099066  1.4e-05  1.022121  0.0
H  H30  1  0.29283683  0.60034070  0.96003445  1  0.089371  6e-05  0.961774  0.0  0.100682  1.4e-05  1.021871  0.0  0.102843  1e-05  1.021755  0.0  0.100329  0.099074  1.4e-05  1.02213  0.0
H  H31  1  0.83402925  0.19543808  0.86558308  1  0.089587  1.8e-05  0.970071  0.0  0.096274  2e-06  1.036625  0.0  0.098931  1e-06  1.035564  0.0  0.095537  0.094416  3e-06  1.037386  0.0
H  H32  1  0.16596925  0.80456147  0.13441527  1  0.089591  2.1e-05  0.970074  0.0  0.096252  2e-06  1.036662  0.0  0.098909  1e-06  1.0356  0.0  0.095533  0.094389  3e-06  1.037421  0.0
C  C33  1  0.12608371  0.14497669  0.66548668  1  0.00564  0.000118  3.734252  0.0  0.02062  0.000234  3.977611  0.0  0.018391  0.000255  4.001618  0.0  -0.020445  0.022569  0.000203  3.959425  0.0
C  C34  1  0.87391617  0.85502387  0.33451315  1  0.005624  0.000153  3.734241  0.0  0.020618  0.000236  3.977583  0.0  0.01839  0.00026  4.001591  0.0  -0.020455  0.022575  0.000203  3.959391  0.0
C  C35  1  0.99181275  0.19700530  0.63566940  1  0.019386  0.000226  3.730362  0.0  0.033234  0.000136  3.975592  0.0  0.032148  0.000172  4.000032  0.0  -0.01719  0.034062  0.000106  3.958725  0.0
C  C36  1  0.00818575  0.80299425  0.36432894  1  0.019362  0.00019  3.730356  0.0  0.033201  0.000135  3.975643  0.0  0.032114  0.000169  4.000084  0.0  -0.017201  0.034019  0.000106  3.958787  0.0
C  C37  1  0.53500010  0.43410684  0.73017331  1  0.118433  -0.002253  3.803471  -0.004  0.116571  -0.002414  4.061783  -0.004  0.119694  -0.001086  4.081933  -0.002  0.096243  0.115027  -0.003434  4.046211  -0.005
C  C38  1  0.46499955  0.56589271  0.26982691  1  0.118481  -0.002266  3.803452  -0.004  0.116626  -0.002412  4.061746  -0.004  0.119748  -0.001092  4.081897  -0.002  0.09626  0.115078  -0.003434  4.046177  -0.005
C  C39  1  0.47104184  0.32510787  0.74577491  1  0.090818  -0.004525  3.773945  -0.005  0.067057  -0.002395  4.017655  -0.003  0.079327  -0.002002  4.041527  -0.003  0.107633  0.065131  -0.002711  4.003012  -0.003
C  C40  1  0.52895758  0.67489066  0.25422571  1  0.090794  -0.004514  3.774128  -0.005  0.067068  -0.002395  4.017781  -0.003  0.079338  -0.001999  4.04165  -0.003  0.107679  0.06514  -0.002711  4.003136  -0.003
C  C41  1  0.86575373  0.56792768  0.63080247  1  0.117031  -0.003372  3.806188  -0.005  0.112792  -0.003161  4.067632  -0.004  0.114889  -0.001713  4.091198  -0.003  0.094025  0.111462  -0.004312  4.051853  -0.006
C  C42  1  0.13424706  0.43207187  0.36919879  1  0.117075  -0.003373  3.806139  -0.005  0.112825  -0.003162  4.067588  -0.004  0.114923  -0.001707  4.091154  -0.003  0.094028  0.111493  -0.004312  4.051811  -0.006
C  C43  1  0.15205004  0.11109791  0.76756294  1  -0.125369  -0.000155  3.754196  0.0  -0.147448  -2.7e-05  4.006705  0.0  -0.150182  -4e-06  4.029549  0.0  -0.095808  -0.145458  -6.4e-05  3.991257  0.0
C  C44  1  0.84794961  0.88890165  0.23243562  1  -0.125359  -0.000193  3.754191  0.0  -0.147417  -2.6e-05  4.006712  0.0  -0.150151  -8e-06  4.02956  0.0  -0.095797  -0.145431  -6.4e-05  3.991264  0.0
C  C45  1  0.97889898  0.48659260  0.63268191  1  0.090918  -0.005272  3.793657  -0.006  0.064829  -0.002727  4.039167  -0.003  0.068213  -0.002281  4.06035  -0.003  0.103453  0.062921  -0.003092  4.024644  -0.004
C  C46  1  0.02110181  0.51340694  0.36731852  1  0.090881  -0.005267  3.793717  -0.006  0.064771  -0.002727  4.039226  -0.003  0.068155  -0.002285  4.06041  -0.003  0.103431  0.062869  -0.003092  4.024694  -0.004
C  C47  1  0.13731843  0.54031152  0.70029689  1  -0.145767  0.002138  3.746746  0.001  -0.16434  0.000513  4.008824  0.0  -0.167722  0.000896  4.028529  0.001  -0.096708  -0.162032  0.000161  3.995296  0.0
C  C48  1  0.86268077  0.45968601  0.29970246  1  -0.145789  0.002104  3.746704  0.001  -0.164357  0.000512  4.008803  0.0  -0.167738  0.000898  4.028507  0.001  -0.096721  -0.162051  0.000161  3.995276  0.0
C  C49  1  0.65992870  0.53437066  0.82825876  1  -0.114483  -0.001538  3.698963  -0.001  -0.13614  -0.000443  3.946809  0.0  -0.138255  -0.000582  3.967007  -0.001  -0.083255  -0.134738  -0.000326  3.933026  0.0
C  C50  1  0.34007094  0.46562888  0.17174229  1  -0.114501  -0.001516  3.698961  -0.001  -0.136159  -0.000443  3.946805  0.0  -0.138275  -0.000581  3.967004  -0.001  -0.08328  -0.134761  -0.000326  3.933024  0.0
C  C51  1  0.53045203  0.30919226  0.85697130  1  -0.128538  0.001819  3.72116  0.001  -0.147816  0.000508  3.979662  0.0  -0.151577  0.000843  3.998863  0.0  -0.083451  -0.145374  0.000204  3.965505  0.0
C  C52  1  0.46954854  0.69080628  0.14302870  1  -0.128483  0.00178  3.721243  0.001  -0.147762  0.000508  3.979727  0.0  -0.151518  0.000836  3.998915  0.0  -0.083436  -0.145303  0.000204  3.965573  0.0
C  C53  1  0.88831855  0.21416797  0.70857428  1  -0.109598  -3.8e-05  3.741044  0.0  -0.129376  5e-06  3.989125  0.0  -0.132115  1.1e-05  4.01056  0.0  -0.091547  -0.127443  -3e-06  3.974662  0.0
C  C54  1  0.11167972  0.78583057  0.29142446  1  -0.109638  -0.0  3.741052  0.0  -0.129427  4e-06  3.98912  0.0  -0.132173  1.4e-05  4.010562  0.0  -0.091558  -0.127495  -3e-06  3.974659  0.0
C  C55  1  0.95249471  0.23172314  0.52439895  1  -0.061289  -0.000402  3.640163  -0.001  -0.140398  -0.00033  3.888292  0.0  -0.13677  -0.000243  3.898516  0.0  -0.042815  -0.142554  -0.000401  3.881279  0.0
C  C56  1  0.04750380  0.76827641  0.47559939  1  -0.061176  -0.000408  3.639999  -0.001  -0.140383  -0.000328  3.888257  0.0  -0.136754  -0.000243  3.898481  0.0  -0.042819  -0.142534  -0.000402  3.881245  0.0
C  C57  1  0.90941621  0.70878122  0.69695955  1  -0.134886  -0.001485  3.730718  -0.001  -0.154216  -0.000467  3.984908  0.0  -0.155925  -0.000621  4.004094  -0.001  -0.087522  -0.153038  -0.000333  3.972368  0.0
C  C58  1  0.09058595  0.29121933  0.30304154  1  -0.135014  -0.001479  3.730717  -0.001  -0.154332  -0.000467  3.984935  0.0  -0.156043  -0.000621  4.00412  -0.001  -0.087546  -0.153157  -0.000333  3.972403  0.0
C  C59  1  0.24570898  0.12467067  0.59296909  1  -0.058975  -0.000482  3.614376  -0.001  -0.135691  -0.000429  3.862307  -0.001  -0.122822  -0.000315  3.873828  0.0  -0.039061  -0.138226  -0.000541  3.856236  -0.001
C  C60  1  0.75428975  0.87532988  0.40703053  1  -0.059026  -0.000482  3.614392  -0.001  -0.135714  -0.00043  3.862319  -0.001  -0.122848  -0.000317  3.873841  0.0  -0.039063  -0.138247  -0.000541  3.856248  -0.001
C  C61  1  0.06666829  0.76168829  0.76299622  1  -0.051452  0.002873  3.715208  0.002  -0.071104  0.001158  3.973328  0.001  -0.073947  0.001413  3.995457  0.001  -0.087927  -0.069284  0.000887  3.958541  0.0
C  C62  1  0.93333365  0.23831125  0.23700526  1  -0.051286  0.002868  3.71506  0.002  -0.070937  0.001158  3.973187  0.001  -0.073782  0.001414  3.995322  0.001  -0.087884  -0.069112  0.000887  3.958399  0.0
C  C63  1  0.66520317  0.96016878  0.89833936  1  0.587375  0.000122  3.643346  0.0  0.515574  0.000126  4.012637  0.0  0.542948  8.6e-05  3.986417  0.0  0.283968  0.495688  0.000106  4.032065  0.0
C  C64  1  0.33479739  0.03983480  0.10166012  1  0.587195  0.00014  3.643645  0.0  0.515445  0.000117  4.012851  0.0  0.54278  0.000102  3.986709  0.0  0.283971  0.495568  0.000106  4.032255  0.0
C  C65  1  0.04897868  0.12993363  0.84029697  1  -0.066249  2.4e-05  3.770482  0.0  -0.080942  2.4e-05  4.024635  0.0  -0.083594  2.4e-05  4.046192  0.0  -0.095037  -0.079067  1.2e-05  4.010062  0.0
C  C66  1  0.95101845  0.87006491  0.15970156  1  -0.06627  8.2e-05  3.770479  0.0  -0.080964  2.2e-05  4.024621  0.0  -0.083616  2.9e-05  4.046179  0.0  -0.095045  -0.079098  1.2e-05  4.010053  0.0
C  C67  1  0.71858533  0.51862337  0.93833682  1  -0.064601  0.002456  3.749332  0.001  -0.07917  0.001112  4.000302  0.001  -0.081833  0.001345  4.022739  0.001  -0.087857  -0.077432  0.000878  3.985397  0.0
C  C68  1  0.28141431  0.48137617  0.06166341  1  -0.064597  0.002419  3.74932  0.001  -0.079162  0.001113  4.00028  0.001  -0.081825  0.001341  4.022717  0.001  -0.087859  -0.077422  0.000878  3.985375  0.0
C  C69  1  0.17903112  0.67933043  0.76473442  1  -0.029305  -0.001532  3.715623  -0.002  -0.051587  -0.000422  3.975452  0.0  -0.051394  -0.000621  3.994923  -0.001  -0.08214  -0.05156  -0.000253  3.962278  0.0
C  C70  1  0.82097060  0.32066811  0.23526662  1  -0.029368  -0.001516  3.715638  -0.002  -0.051674  -0.000421  3.975479  0.0  -0.051484  -0.000621  3.994953  -0.001  -0.082182  -0.051655  -0.000253  3.962311  0.0
C  C71  1  0.65562035  0.40769461  0.95191504  1  -0.046422  -0.001366  3.747611  -0.001  -0.063808  -0.000395  4.000436  0.0  -0.064632  -0.000576  4.022286  -0.001  -0.08353  -0.063248  -0.000246  3.986004  0.0
C  C72  1  0.34437930  0.59230494  0.04808519  1  -0.046487  -0.001343  3.747603  -0.001  -0.063858  -0.000395  4.000431  0.0  -0.064681  -0.000572  4.022282  -0.001  -0.083545  -0.063298  -0.000246  3.985997  0.0
C  C73  1  0.91653031  0.18177406  0.81076553  1  -0.048797  -0.000445  3.769325  0.0  -0.061633  -5.6e-05  4.016681  0.0  -0.062474  -2.8e-05  4.037161  0.0  -0.088271  -0.061089  -8.7e-05  4.00288  0.0
C  C74  1  0.08346797  0.81822449  0.18923238  1  -0.048747  -0.00048  3.769296  0.0  -0.061562  -5.5e-05  4.016659  0.0  -0.062403  -3e-05  4.037139  0.0  -0.08826  -0.061008  -8.7e-05  4.002849  0.0
S  S75  1  0.53586337  0.87155887  0.72804138  1  1.12482  0.000139  5.872073  0.0  1.026109  0.000188  6.422511  0.0  1.071288  0.000165  6.399448  0.0  0.479108  0.995236  0.000181  6.437555  0.0
S  S76  1  0.46413878  0.12844673  0.27195836  1  1.124791  0.000138  5.872115  0.0  1.026066  0.000189  6.422564  0.0  1.071252  0.000163  6.399507  0.0  0.479033  0.995192  0.000181  6.43761  0.0
N  N77  1  0.35259687  0.25044626  0.63278047  1  0.026247  0.000133  3.486226  -0.002  0.134553  -0.000923  3.679713  -0.003  0.096716  0.000298  3.735343  -0.001  -0.112076  0.140387  -0.00187  3.666652  -0.004
N  N78  1  0.64740163  0.74955328  0.36721954  1  0.026274  0.000124  3.486226  -0.002  0.134556  -0.000927  3.679706  -0.003  0.096725  0.000307  3.735332  -0.001  -0.112064  0.140389  -0.001871  3.66665  -0.004
N  N79  1  0.89590395  0.35751929  0.55813667  1  0.024023  0.00172  3.529706  -0.001  0.13891  -0.000177  3.714946  -0.002  0.128764  0.001066  3.73673  0.0  -0.115878  0.144584  -0.001104  3.701772  -0.003
N  N80  1  0.10409570  0.64248026  0.44186273  1  0.023985  0.001723  3.529721  -0.001  0.138952  -0.000178  3.714918  -0.002  0.128804  0.001058  3.736704  0.0  -0.115877  0.144618  -0.001104  3.701753  -0.003
N  N81  1  0.72378477  0.48083873  0.55723848  1  -0.241549  -0.077055  3.241948  -0.101  -0.218349  -0.052867  3.575219  -0.074  -0.242904  -0.043524  3.595743  -0.064  -0.224274  -0.203464  -0.058586  3.562699  -0.078
N  N82  1  0.27621647  0.51916283  0.44276283  1  -0.241603  -0.077072  3.241918  -0.101  -0.218371  -0.052869  3.575166  -0.074  -0.242926  -0.043525  3.595684  -0.064  -0.224258  -0.203483  -0.058587  3.56264  -0.078
N  N83  1  0.74356599  0.35607191  0.51585063  1  -0.024014  0.008637  2.88118  0.007  -0.04156  0.00263  3.1682  0.002  -0.032968  0.00493  3.17909  0.004  -0.061386  -0.046569  0.000747  3.161087  0.001
N  N84  1  0.25643388  0.64392864  0.48414920  1  -0.023935  0.008657  2.881177  0.007  -0.041514  0.00263  3.16819  0.002  -0.032922  0.004941  3.179081  0.004  -0.061367  -0.046525  0.000747  3.161074  0.001
N  N85  1  0.45139956  0.41534302  0.60902342  1  -0.238965  -0.075192  3.24192  -0.099  -0.220208  -0.052302  3.577626  -0.072  -0.243488  -0.042908  3.59248  -0.063  -0.226632  -0.205725  -0.058232  3.566462  -0.077
N  N86  1  0.54860146  0.58465753  0.39097745  1  -0.238974  -0.075194  3.241856  -0.099  -0.220256  -0.052302  3.577591  -0.072  -0.243537  -0.04291  3.592445  -0.063  -0.226645  -0.205765  -0.058234  3.566418  -0.077
N  N87  1  0.34282001  0.30631836  0.55281237  1  -0.028161  0.008093  2.89434  0.007  -0.039827  0.002207  3.183939  0.002  -0.022157  0.004164  3.198826  0.003  -0.058471  -0.04503  0.000625  3.177522  0.0
N  N88  1  0.65718101  0.69368219  0.44718850  1  -0.028159  0.008107  2.894318  0.007  -0.039794  0.002208  3.183904  0.002  -0.022127  0.004161  3.198788  0.003  -0.058472  -0.045001  0.000625  3.177488  0.0
O  O89  1  0.55024840  0.73166825  0.69567551  1  -0.642548  0.001536  2.040323  0.0  -0.621132  0.001662  2.330377  0.0  -0.640839  0.001836  2.314271  0.0  -0.346804  -0.60756  0.001427  2.341175  0.0
O  O90  1  0.44974940  0.26833329  0.30432599  1  -0.642551  0.001531  2.04043  0.0  -0.621116  0.001666  2.330501  0.0  -0.640826  0.001831  2.314397  0.0  -0.346806  -0.607533  0.001427  2.341263  0.0
O  O91  1  0.38499626  0.90394174  0.74119069  1  -0.61731  -9.2e-05  2.025005  0.0  -0.589973  -4.8e-05  2.295064  0.0  -0.60793  -7e-06  2.281847  0.0  -0.340424  -0.577305  -8.9e-05  2.303673  0.0
O  O92  1  0.61500359  0.09606384  0.25881277  1  -0.617188  -9.1e-05  2.025157  0.0  -0.589878  -4.7e-05  2.295234  0.0  -0.607833  -9e-06  2.282015  0.0  -0.340348  -0.577216  -8.9e-05  2.303845  0.0
O  O93  1  0.60612825  0.93248437  0.66285977  1  -0.600531  3.7e-05  1.955427  0.0  -0.57403  1.2e-05  2.200401  0.0  -0.591384  3.5e-05  2.189035  0.0  -0.350098  -0.561753  1.7e-05  2.207573  0.0
O  O94  1  0.39386911  0.06751517  0.33713920  1  -0.600575  3.2e-05  1.955086  0.0  -0.574076  1.5e-05  2.200057  0.0  -0.591427  3.3e-05  2.188686  0.0  -0.350121  -0.561803  1.7e-05  2.207233  0.0
F  F95  1  0.66060551  0.09375148  0.95261951  1  -0.238548  1.4e-05  1.232162  0.0  -0.191704  2.5e-05  1.404862  0.0  -0.201676  3e-05  1.390543  0.0  -0.087793  -0.184406  2.5e-05  1.414818  0.0
F  F96  1  0.33939137  0.90625108  0.04738138  1  -0.238469  1.4e-05  1.232266  0.0  -0.191629  2.3e-05  1.404947  0.0  -0.201594  2.9e-05  1.390645  0.0  -0.087775  -0.184334  2.5e-05  1.414896  0.0
F  F97  1  0.81780358  0.95062808  0.90708510  1  -0.242083  -1.6e-05  1.216893  0.0  -0.191304  -5e-06  1.384307  0.0  -0.201477  -6e-06  1.370298  0.0  -0.08989  -0.183898  -7e-06  1.394166  0.0
F  F98  1  0.18219788  0.04937953  0.09291531  1  -0.242078  -1.6e-05  1.216913  0.0  -0.191311  -6e-06  1.384306  0.0  -0.201473  -6e-06  1.370309  0.0  -0.08992  -0.183906  -7e-06  1.394158  0.0
F  F99  1  0.62255839  0.90760760  0.97179240  1  -0.229215  -2.4e-05  1.213162  0.0  -0.182622  -1.9e-05  1.379956  0.0  -0.191899  -1.5e-05  1.365053  0.0  -0.093622  -0.175822  -1.9e-05  1.390284  0.0
F  F100  1  0.37744378  0.09239296  0.02820620  1  -0.229151  -2.4e-05  1.213262  0.0  -0.182577  -1.9e-05  1.380047  0.0  -0.191845  -1.7e-05  1.36516  0.0  -0.093611  -0.175782  -1.9e-05  1.390373  0.0
