# generated using pymatgen
data_HgH4C6I2N3
_symmetry_space_group_name_H-M   'P 1'
_cell_length_a   7.06455878
_cell_length_b   8.14152494
_cell_length_c   9.78498389
_cell_angle_alpha   84.67761060
_cell_angle_beta   79.08186878
_cell_angle_gamma   65.97057699
_symmetry_Int_Tables_number   1
_chemical_formula_structural   HgH4C6I2N3
_chemical_formula_sum   'Hg2 H8 C12 I4 N6'
_cell_volume   504.64091953
_cell_formula_units_Z   2
loop_
 _symmetry_equiv_pos_site_id
 _symmetry_equiv_pos_as_xyz
  1  'x, y, z'
loop_
 _atom_site_type_symbol
 _atom_site_label
 _atom_site_symmetry_multiplicity
 _atom_site_fract_x
 _atom_site_fract_y
 _atom_site_fract_z
 _atom_site_occupancy
 _atom_site_hle17_bader_spin_density
 _atom_site_hle17_ddec_charge
 _atom_site_hle17_ddec_spin_density
 _atom_site_hle17_ddec_sum_bond_order
 _atom_site_hle17_magmom
 _atom_site_hse06_10hf_bader_spin_density
 _atom_site_hse06_10hf_ddec_charge
 _atom_site_hse06_10hf_ddec_spin_density
 _atom_site_hse06_10hf_ddec_sum_bond_order
 _atom_site_hse06_10hf_magmom
 _atom_site_hse06_bader_spin_density
 _atom_site_hse06_ddec_charge
 _atom_site_hse06_ddec_spin_density
 _atom_site_hse06_ddec_sum_bond_order
 _atom_site_hse06_magmom
 _atom_site_pbe_bader_spin_density
 _atom_site_pbe_cm5_charge
 _atom_site_pbe_ddec_charge
 _atom_site_pbe_ddec_spin_density
 _atom_site_pbe_ddec_sum_bond_order
 _atom_site_pbe_magmom
Hg  Hg0  1  0.25367411  0.09296612  0.14692013  1  0  0.490254  0  2.233283  0  0  0.3698  0  2.727311  0  0  0.41536  0  2.702925  0  0  0.350713  0.339376  0  2.742875  0
Hg  Hg1  1  0.74632717  0.90703404  0.85308420  1  0  0.490209  0  2.233441  0  0  0.369756  0  2.72749  0  0  0.415321  0  2.703097  0  0  0.350678  0.339334  0  2.743057  0
H  H2  1  0.10277709  0.53102516  0.11844406  1  0  0.071133  0  0.956074  0  0  0.076098  0  1.029377  0  0  0.078932  0  1.026255  0  0  0.095253  0.073887  0  1.031912  0
H  H3  1  0.89724199  0.46898032  0.88156550  1  0  0.071027  0  0.955885  0  0  0.076026  0  1.02919  0  0  0.07886  0  1.026077  0  0  0.095193  0.073813  0  1.03173  0
H  H4  1  0.01487803  0.81192563  0.24548254  1  0  0.09189  0  0.999339  0  0  0.096289  0  1.07329  0  0  0.099452  0  1.072576  0  0  0.082895  0.09394  0  1.073953  0
H  H5  1  0.98509903  0.18809769  0.75450949  1  0  0.092007  0  0.999688  0  0  0.096354  0  1.073616  0  0  0.099516  0  1.072894  0  0  0.082901  0.094008  0  1.074277  0
H  H6  1  0.12091182  0.78387794  0.48244440  1  0  0.095737  0  0.945828  0  0  0.101728  0  1.01516  0  0  0.104409  0  1.012983  0  0  0.098742  0.099722  0  1.016777  0
H  H7  1  0.87906709  0.21613287  0.51756147  1  0  0.095759  0  0.945924  0  0  0.101695  0  1.015301  0  0  0.104401  0  1.013099  0  0  0.098765  0.099679  0  1.016934  0
H  H8  1  0.30847055  0.47695448  0.57933425  1  0  0.112927  0  0.961253  0  0  0.115256  0  1.03598  0  0  0.119344  0  1.033554  0  0  0.100173  0.112334  0  1.037761  0
H  H9  1  0.69151932  0.52304476  0.42065339  1  0  0.113025  0  0.96088  0  0  0.115301  0  1.035739  0  0  0.119392  0  1.033313  0  0  0.100161  0.112378  0  1.037514  0
C  C10  1  0.14330906  0.52427973  0.22169241  1  0  0.139448  0  3.69954  0  0  0.109628  0  3.952395  0  0  0.116878  0  3.969487  0  0  0.043874  0.104761  0  3.941014  0
C  C11  1  0.85668828  0.47572784  0.77828747  1  0  0.139575  0  3.699021  0  0  0.109711  0  3.951967  0  0  0.116964  0  3.969034  0  0  0.043913  0.104842  0  3.940599  0
C  C12  1  0.09654238  0.68097507  0.29260406  1  0  -0.099477  0  3.701326  0  0  -0.109988  0  3.946607  0  0  -0.116865  0  3.968783  0  0  -0.084518  -0.105551  0  3.93183  0
C  C13  1  0.90347852  0.31900142  0.70738259  1  0  -0.099671  0  3.701784  0  0  -0.110143  0  3.947094  0  0  -0.117041  0  3.969327  0  0  -0.084542  -0.105694  0  3.9323  0
C  C14  1  0.15535210  0.66550097  0.42291700  1  0  0.000586  0  3.703407  0  0  -0.020002  0  3.959032  0  0  -0.018065  0  3.978832  0  0  -0.070332  -0.020909  0  3.945473  0
C  C15  1  0.84465924  0.33448143  0.57709724  1  0  0.000655  0  3.703623  0  0  -0.019828  0  3.959186  0  0  -0.017911  0  3.978964  0  0  -0.070327  -0.020712  0  3.945593  0
C  C16  1  0.26058075  0.49483989  0.47765815  1  0  -0.110331  0  3.67023  0  0  -0.130625  0  3.919083  0  0  -0.136596  0  3.940711  0  0  -0.073987  -0.126856  0  3.904558  0
C  C17  1  0.73942904  0.50516405  0.52235696  1  0  -0.110591  0  3.670167  0  0  -0.130887  0  3.918978  0  0  -0.136863  0  3.940633  0  0  -0.074075  -0.127109  0  3.904438  0
C  C18  1  0.29902047  0.34525494  0.40010948  1  0  0.140944  0  3.783799  0  0  0.140889  0  4.019156  0  0  0.144904  0  4.041634  0  0  0.113536  0.138373  0  4.004186  0
C  C19  1  0.70096989  0.65475314  0.59989898  1  0  0.14097  0  3.784407  0  0  0.140996  0  4.019678  0  0  0.144996  0  4.042194  0  0  0.113714  0.138481  0  4.004698  0
C  C20  1  0.40558848  0.16172376  0.45375898  1  0  0.24527  0  3.730622  0  0  0.231499  0  3.993177  0  0  0.238777  0  4.006611  0  0  0.248058  0.225943  0  3.985293  0
C  C21  1  0.59440858  0.83828843  0.54624824  1  0  0.245584  0  3.73145  0  0  0.231754  0  3.994042  0  0  0.239025  0  4.007478  0  0  0.248258  0.226206  0  3.986152  0
I  I22  1  0.82850750  0.19925918  0.18220181  1  0  -0.341923  0  1.154444  0  0  -0.310505  0  1.501129  0  0  -0.329419  0  1.485644  0  0  -0.195426  -0.296405  0  1.511049  0
I  I23  1  0.17148557  0.80073770  0.81782232  1  0  -0.341929  0  1.154451  0  0  -0.310497  0  1.501113  0  0  -0.329407  0  1.485621  0  0  -0.195433  -0.296407  0  1.511053  0
I  I24  1  0.58044013  0.74862171  0.10935653  1  0  -0.255287  0  1.39935  0  0  -0.210427  0  1.784982  0  0  -0.233549  0  1.768461  0  0  -0.114202  -0.194125  0  1.795614  0
I  I25  1  0.41957513  0.25136392  0.89063954  1  0  -0.255274  0  1.399442  0  0  -0.210441  0  1.785129  0  0  -0.233556  0  1.768606  0  0  -0.114183  -0.194141  0  1.795756  0
N  N26  1  0.24010175  0.36009602  0.27459907  1  0  -0.302705  0  3.217134  0  0  -0.237131  0  3.468468  0  0  -0.255691  0  3.490345  0  0  -0.305067  -0.224478  0  3.453446  0
N  N27  1  0.75989911  0.63989808  0.72538118  1  0  -0.302774  0  3.217926  0  0  -0.237202  0  3.469262  0  0  -0.255751  0  3.491143  0  0  -0.305165  -0.224556  0  3.454249  0
N  N28  1  0.37266021  0.02719948  0.40559694  1  0  -0.144337  0  3.059737  0  0  -0.108131  0  3.335747  0  0  -0.113405  0  3.345421  0  0  -0.149027  -0.105174  0  3.330275  0
N  N29  1  0.62731746  0.97278248  0.59438031  1  0  -0.14456  0  3.060689  0  0  -0.10841  0  3.336838  0  0  -0.113682  0  3.346514  0  0  -0.149273  -0.105453  0  3.331363  0
N  N30  1  0.46866030  0.86249511  0.45139577  1  0  -0.134195  0  2.975735  0  0  -0.114403  0  3.250362  0  0  -0.11448  0  3.258619  0  0  -0.140718  -0.114876  0  3.245922  0
N  N31  1  0.53135849  0.13751425  0.54861972  1  0  -0.133944  0  2.975241  0  0  -0.114162  0  3.249882  0  0  -0.114249  0  3.258147  0  0  -0.140553  -0.114632  0  3.245443  0
