# generated using pymatgen
data_Zn2H9C9N3O8
_symmetry_space_group_name_H-M   'P 1'
_cell_length_a   13.31638728
_cell_length_b   14.85259485
_cell_length_c   16.53062023
_cell_angle_alpha   72.21882566
_cell_angle_beta   71.77896115
_cell_angle_gamma   73.38177161
_symmetry_Int_Tables_number   1
_chemical_formula_structural   Zn2H9C9N3O8
_chemical_formula_sum   'Zn8 H36 C36 N12 O32'
_cell_volume   2890.84420148
_cell_formula_units_Z   4
loop_
 _symmetry_equiv_pos_site_id
 _symmetry_equiv_pos_as_xyz
  1  'x, y, z'
loop_
 _atom_site_type_symbol
 _atom_site_label
 _atom_site_symmetry_multiplicity
 _atom_site_fract_x
 _atom_site_fract_y
 _atom_site_fract_z
 _atom_site_occupancy
 _atom_site_pbe_bader_charge
 _atom_site_pbe_bader_spin_density
 _atom_site_pbe_cm5_charge
 _atom_site_pbe_ddec_charge
 _atom_site_pbe_ddec_spin_density
 _atom_site_pbe_ddec_sum_bond_order
 _atom_site_pbe_magmom
Zn  Zn0  1  0.97123630  0.06438509  0.98597347  1  1.311251  0  0.667633  0.95997  0  2.36256  0
Zn  Zn1  1  0.73010468  0.02298781  0.01974210  1  1.31379  0  0.671369  0.969269  0  2.343775  0
Zn  Zn2  1  0.93543517  0.84900672  0.03798043  1  1.310662  0  0.6655  0.947453  0  2.397142  0
Zn  Zn3  1  0.91637256  0.98620507  0.84923330  1  1.31509  0  0.674448  0.957062  0  2.396393  0
Zn  Zn4  1  0.31775755  0.42992881  0.40753204  1  1.312736  0  0.672712  0.963511  0  2.341763  0
Zn  Zn5  1  0.53938830  0.43251618  0.44501791  1  1.341219  0  0.692787  1.012074  0  2.274032  0
Zn  Zn6  1  0.31911702  0.42456534  0.60309106  1  1.307785  0  0.671457  0.960891  0  2.36695  0
Zn  Zn7  1  0.33503839  0.61566463  0.45564552  1  1.318351  0  0.680742  0.97119  0  2.374899  0
H  H8  1  0.43424078  0.01011010  0.41320194  1  0.121009  0  0.129674  0.046114  0  0.94636  0
H  H9  1  0.65776418  0.19207765  0.36308354  1  0.094355  0  0.125145  0.098358  0  0.950274  0
H  H10  1  0.65357037  0.29765804  0.20143640  1  0.059752  0  0.109443  0.118935  0  0.951957  0
H  H11  1  0.58027268  0.21483580  0.20072471  1  0.070023  0  0.106417  0.112063  0  0.972474  0
H  H12  1  0.73770019  0.07915382  0.25661683  1  0.071883  0  0.107022  0.120847  0  0.977975  0
H  H13  1  0.81214803  0.17134703  0.22170420  1  0.062211  0  0.107718  0.12746  0  0.958454  0
H  H14  1  0.18483805  0.57362450  0.07287423  1  0.115946  0  0.121093  0.035747  0  0.95852  0
H  H15  1  0.34103571  0.71008056  0.17978482  1  0.087582  0  0.123086  0.091311  0  0.945673  0
H  H16  1  0.18029123  0.80807400  0.27458353  1  0.091403  0  0.107062  0.1171  0  0.972451  0
H  H17  1  0.09404081  0.76904692  0.23555350  1  0.084939  0  0.104317  0.112813  0  0.98166  0
H  H18  1  0.25969249  0.84302369  0.08440379  1  0.093339  0  0.110263  0.125027  0  0.972676  0
H  H19  1  0.20443138  0.92999769  0.14653305  1  0.04801  0  0.111816  0.132861  0  0.95284  0
H  H20  1  0.91824266  0.32624984  0.43055792  1  0.116763  0  0.124733  0.039625  0  0.954382  0
H  H21  1  0.99749614  0.34246640  0.65841874  1  0.092345  0  0.121342  0.094755  0  0.946528  0
H  H22  1  0.18445573  0.18863263  0.58397335  1  0.062421  0  0.103925  0.10451  0  0.964652  0
H  H23  1  0.05573271  0.16164629  0.63679823  1  0.104717  0  0.105764  0.115124  0  0.983746  0
H  H24  1  0.14000722  0.24769462  0.74015521  1  0.091892  0  0.105868  0.130088  0  0.985097  0
H  H25  1  0.21009661  0.13208798  0.72575490  1  0.091635  0  0.117727  0.141818  0  0.940182  0
H  H26  1  0.74601379  0.50515092  0.61061234  1  0.133025  0  0.120137  0.044131  0  0.98869  0
H  H27  1  0.59203639  0.76795829  0.39921052  1  0.144114  0  0.126767  0.115274  0  0.983391  0
H  H28  1  0.76035470  0.64461810  0.27890861  1  0.044396  0  0.1013  0.107669  0  0.962378  0
H  H29  1  0.77447245  0.75190626  0.29538723  1  0.062195  0  0.102762  0.103373  0  0.972746  0
H  H30  1  0.58183867  0.82781270  0.25421831  1  0.058324  0  0.103158  0.121154  0  0.970431  0
H  H31  1  0.61628965  0.72939564  0.20564480  1  0.065096  0  0.110345  0.130069  0  0.94762  0
H  H32  1  0.70271377  0.94295583  0.51264928  1  0.118768  0  0.118501  0.042786  0  0.991165  0
H  H33  1  0.49382764  0.12879657  0.68010413  1  0.059796  0  0.123896  0.098346  0  0.952902  0
H  H34  1  0.57014991  0.23271760  0.74866696  1  0.078805  0  0.106027  0.109836  0  0.957834  0
H  H35  1  0.69663505  0.17342694  0.69203951  1  0.083264  0  0.105411  0.108121  0  0.972649  0
H  H36  1  0.62039234  0.01405424  0.76725714  1  0.104837  0  0.109482  0.126846  0  0.983045  0
H  H37  1  0.52130074  0.08251094  0.83942866  1  0.064211  0  0.108173  0.127945  0  0.955906  0
H  H38  1  0.54843155  0.80629115  0.62754515  1  0.152479  0  0.124932  0.059059  0  0.963845  0
H  H39  1  0.32268473  0.62043525  0.75194756  1  0.127986  0  0.123936  0.101351  0  0.951237  0
H  H40  1  0.11074207  0.67243154  0.74893669  1  0.044418  0  0.106304  0.110293  0  0.950031  0
H  H41  1  0.14277833  0.78735368  0.69651781  1  0.089248  0  0.108602  0.115118  0  0.969593  0
H  H42  1  0.22960205  0.76534006  0.82379903  1  0.059607  0  0.111437  0.131742  0  0.960424  0
H  H43  1  0.17699123  0.66094971  0.87671281  1  0.093744  0  0.103693  0.126992  0  0.989033  0
C  C44  1  0.51819089  0.98269096  0.42173533  1  1.259601  0  0.208583  0.383515  0  3.941892  0
C  C45  1  0.59182148  0.21142157  0.32982101  1  0.292285  0  0.009966  -0.060495  0  3.870816  0
C  C46  1  0.63988608  0.22367637  0.22952431  1  0.012119  0  -0.140935  -0.141297  0  3.850463  0
C  C47  1  0.74592551  0.15004852  0.21089023  1  -0.042114  0  -0.157929  -0.288063  0  3.906076  0
C  C48  1  0.78014275  0.13023406  0.12021647  1  1.579699  0  0.229141  0.672243  0  4.100134  0
C  C49  1  0.51894309  0.30550581  0.35140412  1  1.550939  0  0.232197  0.614237  0  4.118047  0
C  C50  1  0.26124970  0.59920007  0.03636005  1  1.269808  0  0.197503  0.374963  0  3.95726  0
C  C51  1  0.26020693  0.69243406  0.21146691  1  0.278045  0  0.011519  -0.056028  0  3.889704  0
C  C52  1  0.17419552  0.78595979  0.21906510  1  -0.051691  0  -0.152716  -0.151397  0  3.866956  0
C  C53  1  0.18868124  0.86680043  0.13522081  1  -0.04085  0  -0.157947  -0.287926  0  3.888083  0
C  C54  1  0.09558689  0.90221014  0.09123347  1  1.577483  0  0.226744  0.659639  0  4.113255  0
C  C55  1  0.26908590  0.62421314  0.30044166  1  1.580718  0  0.239907  0.621252  0  4.098873  0
C  C56  1  0.85937462  0.36130988  0.48243132  1  1.256581  0  0.19834  0.373521  0  3.945583  0
C  C57  1  0.05587323  0.31438662  0.60324100  1  0.289785  0  0.011961  -0.057361  0  3.856807  0
C  C58  1  0.11008365  0.20653666  0.63387911  1  -0.063649  0  -0.146847  -0.144832  0  3.856749  0
C  C59  1  0.13218987  0.18388353  0.72432987  1  -0.05278  0  -0.154317  -0.28986  0  3.885665  0
C  C60  1  0.04995226  0.13502511  0.79877085  1  1.569775  0  0.229517  0.664034  0  4.109759  0
C  C61  1  0.14664210  0.37090816  0.56391961  1  1.611259  0  0.238183  0.620764  0  4.106135  0
C  C62  1  0.70563363  0.58286868  0.59706411  1  1.277399  0  0.189076  0.352806  0  4.026962  0
C  C63  1  0.64044865  0.69740183  0.38694666  1  0.227269  0  0.003455  -0.073293  0  3.867595  0
C  C64  1  0.71501958  0.71397159  0.29484227  1  0.003091  0  -0.154848  -0.151144  0  3.916341  0
C  C65  1  0.65073015  0.77512596  0.22669676  1  -0.035583  0  -0.157131  -0.286471  0  3.896953  0
C  C66  1  0.71827858  0.83100124  0.14514820  1  1.57466  0  0.229153  0.664335  0  4.110475  0
C  C67  1  0.56200890  0.63354847  0.40104391  1  1.589192  0  0.228546  0.605517  0  4.149074  0
C  C68  1  0.73194838  0.97145197  0.55390708  1  1.28707  0  0.190182  0.35238  0  4.029523  0
C  C69  1  0.56043781  0.16782085  0.65022442  1  0.27542  0  0.008666  -0.063257  0  3.853404  0
C  C70  1  0.61159919  0.16834649  0.72251616  1  -0.037874  0  -0.141258  -0.138909  0  3.844099  0
C  C71  1  0.60322672  0.07601649  0.79635188  1  -0.058207  0  -0.158801  -0.292619  0  3.891874  0
C  C72  1  0.68528434  0.05314465  0.84967667  1  1.559441  0  0.234351  0.67534  0  4.092565  0
C  C73  1  0.51354131  0.27054709  0.60503936  1  1.611956  0  0.234074  0.615799  0  4.113475  0
C  C74  1  0.46000730  0.83391874  0.64947924  1  1.271111  0  0.191065  0.363815  0  4.025738  0
C  C75  1  0.28338215  0.66909428  0.70034861  1  0.225309  0  0.007686  -0.064568  0  3.847543  0
C  C76  1  0.16675072  0.71801889  0.74140730  1  -0.019578  0  -0.144124  -0.138281  0  3.868924  0
C  C77  1  0.16296672  0.73112178  0.83026792  1  -0.016606  0  -0.159242  -0.294758  0  3.914787  0
C  C78  1  0.06165937  0.79469155  0.87237345  1  1.547964  0  0.229648  0.668121  0  4.104459  0
C  C79  1  0.28372552  0.61050224  0.63926797  1  1.555704  0  0.235366  0.617821  0  4.110735  0
N  N80  1  0.58044567  0.05663503  0.39861717  1  -0.416301  0  -0.142908  -0.179294  0  3.176368  0
N  N81  1  0.53119132  0.13511475  0.35908213  1  -0.337748  0  -0.110825  -0.023873  0  3.197834  0
N  N82  1  0.29662037  0.64721900  0.08435358  1  -0.381229  0  -0.146715  -0.176096  0  3.133282  0
N  N83  1  0.23333708  0.64349915  0.15916157  1  -0.350694  0  -0.112918  -0.030743  0  3.211468  0
N  N84  1  0.90490884  0.36044805  0.55224291  1  -0.385574  0  -0.141978  -0.175154  0  3.147589  0
N  N85  1  0.00347802  0.32079427  0.53574908  1  -0.355223  0  -0.110912  -0.026559  0  3.2166  0
N  N86  1  0.66127395  0.61125883  0.52320507  1  -0.43536  0  -0.117505  -0.112373  0  3.319807  0
N  N87  1  0.70451075  0.66274351  0.45359808  1  -0.287462  0  -0.103829  -0.024152  0  3.112431  0
N  N88  1  0.64572018  0.03112614  0.60326675  1  -0.414364  0  -0.118947  -0.121179  0  3.273512  0
N  N89  1  0.64678508  0.11838424  0.58749065  1  -0.309958  0  -0.115168  -0.037767  0  3.159207  0
N  N90  1  0.40366258  0.75681632  0.68795834  1  -0.433148  0  -0.117144  -0.117875  0  3.264442  0
N  N91  1  0.34262006  0.74700406  0.64904733  1  -0.289433  0  -0.110741  -0.03584  0  3.141276  0
O  O92  1  0.88648086  0.98191968  0.97409632  1  -1.230307  0  -0.572899  -1.034497  0  2.54355  0
O  O93  1  0.55873466  0.89852749  0.44774733  1  -1.083343  0  -0.223704  -0.335212  0  2.185856  0
O  O94  1  0.70871151  0.11293463  0.09379314  1  -1.181429  0  -0.323513  -0.564858  0  2.29166  0
O  O95  1  0.87897233  0.12909760  0.07973418  1  -1.178465  0  -0.319852  -0.557989  0  2.299752  0
O  O96  1  0.56906808  0.36883701  0.34641675  1  -1.17317  0  -0.318585  -0.557678  0  2.288341  0
O  O97  1  0.41704975  0.31294962  0.37313694  1  -1.131201  0  -0.306732  -0.525639  0  2.303964  0
O  O98  1  0.31306733  0.58963699  0.96388278  1  -1.079663  0  -0.234439  -0.335667  0  2.123317  0
O  O99  1  0.02720144  0.84886028  0.11205929  1  -1.176991  0  -0.320645  -0.55688  0  2.321353  0
O  O100  1  0.09499301  0.98285256  0.03467577  1  -1.187179  0  -0.326653  -0.563485  0  2.293487  0
O  O101  1  0.26015484  0.66430423  0.36091940  1  -1.172885  0  -0.307584  -0.536412  0  2.333823  0
O  O102  1  0.29018931  0.53409010  0.30468350  1  -1.145517  0  -0.305196  -0.528792  0  2.323599  0
O  O103  1  0.76535860  0.39798602  0.48387979  1  -1.075335  0  -0.221673  -0.323087  0  2.201978  0
O  O104  1  0.99906324  0.08711009  0.77944072  1  -1.187034  0  -0.316025  -0.554739  0  2.344622  0
O  O105  1  0.04137053  0.14333339  0.87544695  1  -1.165099  0  -0.320742  -0.553663  0  2.292006  0
O  O106  1  0.17932373  0.39064334  0.61980442  1  -1.167951  0  -0.30524  -0.534346  0  2.317092  0
O  O107  1  0.18355380  0.38828423  0.48140581  1  -1.180486  0  -0.308735  -0.538644  0  2.351305  0
O  O108  1  0.68770064  0.63689398  0.64490813  1  -1.064925  0  -0.258765  -0.367805  0  2.091539  0
O  O109  1  0.81714408  0.79012837  0.12005078  1  -1.176781  0  -0.3179  -0.544888  0  2.313494  0
O  O110  1  0.67092850  0.91423336  0.10894080  1  -1.183573  0  -0.324657  -0.568001  0  2.299078  0
O  O111  1  0.46245832  0.67444809  0.41422096  1  -1.165772  0  -0.311513  -0.541195  0  2.345127  0
O  O112  1  0.60380563  0.54566359  0.39816450  1  -1.163522  0  -0.309819  -0.54575  0  2.380047  0
O  O113  1  0.82281460  0.94699269  0.56510283  1  -1.067197  0  -0.263543  -0.357947  0  2.066544  0
O  O114  1  0.78279560  0.02221930  0.81106072  1  -1.17417  0  -0.316679  -0.55054  0  2.317696  0
O  O115  1  0.65115428  0.06601982  0.92750052  1  -1.165968  0  -0.319098  -0.556611  0  2.278773  0
O  O116  1  0.41654536  0.30292982  0.64397763  1  -1.179711  0  -0.318411  -0.545315  0  2.308562  0
O  O117  1  0.57256148  0.31390024  0.53626594  1  -1.169619  0  -0.30536  -0.543154  0  2.377296  0
O  O118  1  0.41619472  0.91768308  0.65112857  1  -1.085486  0  -0.277396  -0.393323  0  2.092787  0
O  O119  1  0.01392323  0.86636112  0.82242327  1  -1.17905  0  -0.313659  -0.543015  0  2.306352  0
O  O120  1  0.03473932  0.77223432  0.95616114  1  -1.16485  0  -0.323733  -0.563747  0  2.316044  0
O  O121  1  0.30491687  0.51892722  0.66890574  1  -1.139471  0  -0.313944  -0.539336  0  2.300568  0
O  O122  1  0.26228371  0.65581344  0.56584274  1  -1.166511  0  -0.312279  -0.540505  0  2.323664  0
O  O123  1  0.37987320  0.47469287  0.47791485  1  -1.231019  0  -0.574099  -1.041999  0  2.522525  0
