# generated using pymatgen
data_HgH20C24N6Cl2O3
_symmetry_space_group_name_H-M   'P 1'
_cell_length_a   10.99997832
_cell_length_b   11.08484459
_cell_length_c   28.12351590
_cell_angle_alpha   90.00046693
_cell_angle_beta   89.99942126
_cell_angle_gamma   101.56597508
_symmetry_Int_Tables_number   1
_chemical_formula_structural   HgH20C24N6Cl2O3
_chemical_formula_sum   'Hg4 H80 C96 N24 Cl8 O12'
_cell_volume   3359.55469134
_cell_formula_units_Z   4
loop_
 _symmetry_equiv_pos_site_id
 _symmetry_equiv_pos_as_xyz
  1  'x, y, z'
loop_
 _atom_site_type_symbol
 _atom_site_label
 _atom_site_symmetry_multiplicity
 _atom_site_fract_x
 _atom_site_fract_y
 _atom_site_fract_z
 _atom_site_occupancy
 _atom_site_pbe_bader_charge
 _atom_site_pbe_bader_spin_density
 _atom_site_pbe_cm5_charge
 _atom_site_pbe_ddec_charge
 _atom_site_pbe_ddec_spin_density
 _atom_site_pbe_ddec_sum_bond_order
 _atom_site_pbe_magmom
Hg  Hg0  1  0.67330716  0.76643272  0.55090254  1  0.815757  0  0.507874  0.531087  0  2.660455  0
Hg  Hg1  1  0.82671363  0.73359192  0.05090166  1  0.816048  0  0.507925  0.531181  0  2.66051  0
Hg  Hg2  1  0.32671397  0.23357114  0.44909761  1  0.81585  0  0.50792  0.531089  0  2.660655  0
Hg  Hg3  1  0.17328600  0.26641331  0.94910204  1  0.816032  0  0.507918  0.531123  0  2.660531  0
H  H4  1  0.03348814  0.18756132  0.30008696  1  0.443947  0  0.319903  0.270923  0  0.962668  0
H  H5  1  0.46651772  0.31245466  0.80009056  1  0.443977  0  0.319885  0.270882  0  0.962646  0
H  H6  1  0.96652580  0.81241870  0.69991140  1  0.443845  0  0.319917  0.271026  0  0.962615  0
H  H7  1  0.53346158  0.68757710  0.19991634  1  0.443784  0  0.319924  0.270994  0  0.962346  0
H  H8  1  0.24778111  0.38692056  0.30192311  1  0.46246  0  0.31898  0.270932  0  0.965498  0
H  H9  1  0.25222538  0.11308418  0.80191362  1  0.462465  0  0.318969  0.270936  0  0.965413  0
H  H10  1  0.75221287  0.61309437  0.69807134  1  0.462521  0  0.318963  0.270945  0  0.965545  0
H  H11  1  0.74777444  0.88690796  0.19807407  1  0.462352  0  0.318965  0.270953  0  0.965344  0
H  H12  1  0.01374638  0.10787815  0.36733339  1  0.455072  0  0.30567  0.272083  0  0.964849  0
H  H13  1  0.48626546  0.39214155  0.86733905  1  0.455378  0  0.305684  0.272003  0  0.964914  0
H  H14  1  0.98627775  0.89209562  0.63266213  1  0.455395  0  0.305561  0.271861  0  0.965152  0
H  H15  1  0.51371270  0.60788935  0.13266607  1  0.455535  0  0.305595  0.271905  0  0.965077  0
H  H16  1  0.28885439  0.45497014  0.37047755  1  0.451976  0  0.295759  0.266278  0  0.990238  0
H  H17  1  0.21115474  0.04506377  0.87047184  1  0.451853  0  0.295645  0.266198  0  0.990237  0
H  H18  1  0.71113746  0.54505054  0.62952046  1  0.452059  0  0.295775  0.266322  0  0.990234  0
H  H19  1  0.78885515  0.95493894  0.12952368  1  0.45196  0  0.295722  0.266234  0  0.990278  0
H  H20  1  0.67782220  0.04709992  0.39501452  1  0.154736  0  0.106319  0.149627  0  1.030354  0
H  H21  1  0.82218919  0.45288750  0.89502447  1  0.154318  0  0.106277  0.149625  0  1.030324  0
H  H22  1  0.32219812  0.95289745  0.60499025  1  0.154454  0  0.106266  0.149664  0  1.030292  0
H  H23  1  0.17778959  0.54708355  0.10499523  1  0.15414  0  0.106316  0.149723  0  1.030354  0
H  H24  1  0.60023500  0.93579203  0.46886644  1  0.099929  0  0.11046  0.08289  0  0.999562  0
H  H25  1  0.89977775  0.56418957  0.96887733  1  0.101116  0  0.110484  0.082865  0  0.99966  0
H  H26  1  0.39979538  0.06419161  0.53113762  1  0.10081  0  0.110491  0.082997  0  0.999411  0
H  H27  1  0.10019217  0.43577551  0.03114521  1  0.099996  0  0.110374  0.082846  0  0.999438  0
H  H28  1  0.03880580  0.96761702  0.42709500  1  0.073097  0  0.110683  0.126349  0  0.989231  0
H  H29  1  0.46122128  0.53241740  0.92709620  1  0.072878  0  0.110577  0.126231  0  0.98902  0
H  H30  1  0.96121881  0.03235858  0.57289625  1  0.073125  0  0.110586  0.126179  0  0.988998  0
H  H31  1  0.53877458  0.46763574  0.07290038  1  0.07316  0  0.110591  0.126211  0  0.989053  0
H  H32  1  0.63092299  0.50638236  0.38343504  1  0.130699  0  0.119222  0.148031  0  1.000619  0
H  H33  1  0.86908381  0.99362534  0.88342505  1  0.130676  0  0.119313  0.148212  0  1.00037  0
H  H34  1  0.36906609  0.49364505  0.61656048  1  0.130805  0  0.119284  0.148164  0  1.000575  0
H  H35  1  0.13092778  0.00634923  0.11656656  1  0.130669  0  0.11925  0.148063  0  1.000562  0
H  H36  1  0.15762403  0.19836840  0.16007432  1  0.115552  0  0.100649  0.110935  0  1.06207  0
H  H37  1  0.34238204  0.30162720  0.66006495  1  0.115239  0  0.100668  0.110851  0  1.062028  0
H  H38  1  0.84239225  0.80161708  0.83992475  1  0.115249  0  0.100631  0.110895  0  1.062008  0
H  H39  1  0.65759584  0.69837849  0.33992772  1  0.114946  0  0.100639  0.110845  0  1.061963  0
H  H40  1  0.73074227  0.60573514  0.45702506  1  0.048469  0  0.114389  0.082889  0  0.979319  0
H  H41  1  0.76925959  0.89426298  0.95701258  1  0.048849  0  0.114412  0.082933  0  0.97923  0
H  H42  1  0.26925008  0.39428738  0.54296940  1  0.048567  0  0.114395  0.082948  0  0.97929  0
H  H43  1  0.23074323  0.10569906  0.04297405  1  0.048609  0  0.11445  0.08303  0  0.979255  0
H  H44  1  0.54934398  0.39662635  0.24065019  1  0.148495  0  0.107776  0.130413  0  1.022784  0
H  H45  1  0.95066551  0.10335570  0.74063970  1  0.148767  0  0.107818  0.130592  0  1.022579  0
H  H46  1  0.45066051  0.60338699  0.75935066  1  0.148617  0  0.107822  0.130538  0  1.022683  0
H  H47  1  0.04932283  0.89659979  0.25934942  1  0.148955  0  0.107903  0.130685  0  1.022624  0
H  H48  1  0.87201953  0.35393457  0.12288843  1  0.028307  0  0.093843  0.092781  0  1.012369  0
H  H49  1  0.62799987  0.14609667  0.62288468  1  0.028545  0  0.093795  0.092594  0  1.012459  0
H  H50  1  0.12796145  0.64599989  0.87710816  1  0.02759  0  0.093711  0.092677  0  1.012494  0
H  H51  1  0.37202129  0.85396606  0.37711760  1  0.027883  0  0.093716  0.092619  0  1.012329  0
H  H52  1  0.94451516  0.85511659  0.49927235  1  0.101791  0  0.106285  0.080494  0  1.010757  0
H  H53  1  0.55551002  0.64491110  0.99927534  1  0.1018  0  0.106362  0.080651  0  1.01088  0
H  H54  1  0.05551803  0.14485005  0.50071997  1  0.101996  0  0.106345  0.080508  0  1.010924  0
H  H55  1  0.44447714  0.35513324  0.00072515  1  0.10198  0  0.106326  0.080463  0  1.010922  0
H  H56  1  0.08045348  0.39526143  0.16180272  1  0.111531  0  0.108025  0.128662  0  1.028144  0
H  H57  1  0.41956438  0.10476520  0.66179878  1  0.111685  0  0.10804  0.128639  0  1.028065  0
H  H58  1  0.91953290  0.60469699  0.83818818  1  0.110811  0  0.108111  0.128789  0  1.027944  0
H  H59  1  0.58044760  0.89528691  0.33819674  1  0.111423  0  0.108099  0.128776  0  1.028063  0
H  H60  1  0.28389550  0.58120394  0.43602941  1  0.08218  0  0.109156  0.128495  0  0.987463  0
H  H61  1  0.21611674  0.91883708  0.93602762  1  0.082203  0  0.109128  0.128469  0  0.987502  0
H  H62  1  0.71609984  0.41882306  0.56396966  1  0.082247  0  0.109146  0.128494  0  0.987519  0
H  H63  1  0.78389412  0.08116930  0.06397323  1  0.082315  0  0.109147  0.128464  0  0.987426  0
H  H64  1  0.72013237  0.13543389  0.24442500  1  0.14396  0  0.108643  0.130567  0  1.016457  0
H  H65  1  0.77987396  0.36458482  0.74442974  1  0.143536  0  0.108604  0.130466  0  1.016423  0
H  H66  1  0.27987653  0.86454084  0.75558368  1  0.143454  0  0.108644  0.130672  0  1.016329  0
H  H67  1  0.22010720  0.63545057  0.25558782  1  0.142969  0  0.108609  0.13061  0  1.016456  0
H  H68  1  0.55594883  0.31107513  0.15932017  1  0.054865  0  0.09244  0.08721  0  1.036737  0
H  H69  1  0.94405492  0.18891338  0.65931119  1  0.053927  0  0.092459  0.087324  0  1.036652  0
H  H70  1  0.44406401  0.68895262  0.84067891  1  0.053647  0  0.092395  0.087151  0  1.036613  0
H  H71  1  0.05592764  0.81104435  0.34067829  1  0.053775  0  0.092364  0.087133  0  1.036524  0
H  H72  1  0.35995085  0.20688664  0.11928343  1  0.044872  0  0.092355  0.086942  0  1.017395  0
H  H73  1  0.14005382  0.29310041  0.61927571  1  0.04472  0  0.092338  0.086845  0  1.017447  0
H  H74  1  0.64006667  0.79312773  0.88071457  1  0.044822  0  0.092397  0.087014  0  1.017321  0
H  H75  1  0.85992342  0.70687167  0.38071483  1  0.044467  0  0.09239  0.087007  0  1.01736  0
H  H76  1  0.69296659  0.21826393  0.16406155  1  0.029629  0  0.093371  0.088856  0  1.030073  0
H  H77  1  0.80704511  0.28176896  0.66406399  1  0.029666  0  0.093338  0.088823  0  1.030087  0
H  H78  1  0.30702185  0.78168501  0.83594428  1  0.029649  0  0.093365  0.088682  0  1.030344  0
H  H79  1  0.19296205  0.71828906  0.33595144  1  0.029671  0  0.093373  0.088736  0  1.030088  0
H  H80  1  0.39911684  0.67819037  0.50763208  1  0.126668  0  0.105945  0.083209  0  1.011988  0
H  H81  1  0.10089001  0.82183842  0.00762632  1  0.126863  0  0.105968  0.083198  0  1.011932  0
H  H82  1  0.60088180  0.32182147  0.49236806  1  0.126703  0  0.105959  0.083236  0  1.011859  0
H  H83  1  0.89911647  0.17816170  0.99237098  1  0.126904  0  0.10598  0.083227  0  1.011823  0
C  C84  1  0.86572665  0.01670733  0.40480402  1  0.431282  0  0.125711  0.309654  0  4.031325  0
C  C85  1  0.63428778  0.48329583  0.90480969  1  0.431215  0  0.125871  0.309669  0  4.031151  0
C  C86  1  0.13429663  0.98328051  0.59519612  1  0.430615  0  0.125819  0.309465  0  4.031216  0
C  C87  1  0.36569393  0.51671054  0.09520076  1  0.431296  0  0.125843  0.309662  0  4.031391  0
C  C88  1  0.85912205  0.10629799  0.32433849  1  1.830533  0  0.338966  0.640205  0  4.163368  0
C  C89  1  0.64088813  0.39369660  0.82434370  1  1.833394  0  0.339183  0.640183  0  4.163508  0
C  C90  1  0.14089211  0.89369323  0.67566414  1  1.833254  0  0.339171  0.640264  0  4.163636  0
C  C91  1  0.35909554  0.60630684  0.17566782  1  1.830625  0  0.339217  0.640276  0  4.163442  0
C  C92  1  0.91586524  0.21139359  0.24693435  1  0.389052  0  0.091638  0.161015  0  4.030862  0
C  C93  1  0.58414147  0.28861296  0.74693825  1  0.388844  0  0.091625  0.160902  0  4.031018  0
C  C94  1  0.08414088  0.78858787  0.75306615  1  0.330004  0  0.091673  0.161193  0  4.031104  0
C  C95  1  0.41584484  0.71141088  0.25307042  1  0.329549  0  0.091594  0.160985  0  4.031051  0
C  C96  1  0.73977383  0.00549164  0.41680529  1  -0.05068  0  -0.090222  -0.222442  0  3.901361  0
C  C97  1  0.76023723  0.49449965  0.91681289  1  -0.050124  0  -0.090279  -0.222631  0  3.901506  0
C  C98  1  0.26024928  0.99449901  0.58319735  1  -0.050861  0  -0.090211  -0.222571  0  3.901611  0
C  C99  1  0.23974111  0.50548357  0.08320254  1  -0.050681  0  -0.090221  -0.222691  0  3.901704  0
C  C100  1  0.69681140  0.94338258  0.45810583  1  0.522818  0  0.039237  0.101777  0  3.974423  0
C  C101  1  0.80320511  0.55660900  0.95811325  1  0.520655  0  0.039331  0.101948  0  3.974413  0
C  C102  1  0.30321767  0.05660302  0.54189609  1  0.521353  0  0.039242  0.101727  0  3.974418  0
C  C103  1  0.19677161  0.44337152  0.04190289  1  0.522542  0  0.039269  0.101794  0  3.974226  0
C  C104  1  0.94093802  0.96208938  0.43523333  1  -0.041019  0  -0.095385  -0.242278  0  3.973796  0
C  C105  1  0.55908438  0.53792974  0.93523756  1  -0.040831  0  -0.095207  -0.241856  0  3.972984  0
C  C106  1  0.05908603  0.03788065  0.56476042  1  -0.040371  0  -0.095375  -0.242004  0  3.973099  0
C  C107  1  0.44090597  0.46210599  0.06476578  1  -0.042173  0  -0.095389  -0.242112  0  3.973356  0
C  C108  1  0.42998250  0.45286270  0.32119816  1  1.851217  0  0.336891  0.638094  0  4.16206  0
C  C109  1  0.07002867  0.04714745  0.82119279  1  1.851476  0  0.336745  0.638032  0  4.162266  0
C  C110  1  0.57001059  0.54715230  0.67880092  1  1.851091  0  0.33688  0.638211  0  4.162281  0
C  C111  1  0.92997701  0.95284618  0.17880309  1  1.851209  0  0.336804  0.63802  0  4.162304  0
C  C112  1  0.24016794  0.29764746  0.22116381  1  0.433452  0  0.080695  0.170778  0  3.985949  0
C  C113  1  0.25983665  0.20235417  0.72115578  1  0.433819  0  0.080678  0.170886  0  3.98587  0
C  C114  1  0.75983757  0.70234899  0.77883420  1  0.433497  0  0.080568  0.170547  0  3.986164  0
C  C115  1  0.74014647  0.79764371  0.27883689  1  0.386599  0  0.080636  0.170745  0  3.986386  0
C  C116  1  0.44850024  0.53690821  0.40334345  1  0.397316  0  0.120331  0.300202  0  4.037088  0
C  C117  1  0.05150818  0.96311231  0.90333805  1  0.397601  0  0.120207  0.300129  0  4.03715  0
C  C118  1  0.55148845  0.46311080  0.59665527  1  0.397863  0  0.120336  0.300178  0  4.037406  0
C  C119  1  0.94850449  0.03688367  0.09665783  1  0.397322  0  0.120301  0.300049  0  4.037356  0
C  C120  1  0.01719455  0.28210854  0.22218872  1  0.405549  0  0.079018  0.164786  0  3.983557  0
C  C121  1  0.48281245  0.21790229  0.72218965  1  0.406708  0  0.078977  0.164827  0  3.983578  0
C  C122  1  0.98280336  0.71786597  0.77780644  1  0.405879  0  0.078915  0.164289  0  3.983787  0
C  C123  1  0.51717873  0.78212965  0.27781228  1  0.406261  0  0.079115  0.164617  0  3.983318  0
C  C124  1  0.57693340  0.54443970  0.40977870  1  0.000904  0  -0.089579  -0.226134  0  3.918869  0
C  C125  1  0.92307005  0.95557115  0.90977075  1  0.000363  0  -0.089631  -0.226265  0  3.918721  0
C  C126  1  0.42305609  0.45558581  0.59021682  1  0.000574  0  -0.089631  -0.226269  0  3.91884  0
C  C127  1  0.07693892  0.04440732  0.09022228  1  0.000429  0  -0.089552  -0.225978  0  3.918906  0
C  C128  1  0.24368569  0.24362199  0.17678586  1  -0.035806  0  -0.106719  -0.19008  0  4.036342  0
C  C129  1  0.25632138  0.25637176  0.67677740  1  -0.035676  0  -0.106722  -0.190073  0  4.036053  0
C  C130  1  0.75632788  0.75637394  0.82321250  1  -0.03574  0  -0.106667  -0.189941  0  4.036272  0
C  C131  1  0.74365995  0.74362623  0.32321599  1  0.011661  0  -0.106585  -0.189844  0  4.036557  0
C  C132  1  0.63164865  0.59938647  0.45085571  1  0.507849  0  0.039586  0.094025  0  3.999988  0
C  C133  1  0.86835525  0.90061896  0.95084705  1  0.507669  0  0.039583  0.0939  0  4.000325  0
C  C134  1  0.36834410  0.40063415  0.54913910  1  0.508051  0  0.039489  0.09387  0  4.000041  0
C  C135  1  0.13165120  0.09935687  0.04914491  1  0.508266  0  0.039309  0.093569  0  4.000496  0
C  C136  1  0.35044044  0.35102017  0.24531997  1  0.363838  0  0.090201  0.15789  0  4.020645  0
C  C137  1  0.14956411  0.14897972  0.74531186  1  0.363181  0  0.090268  0.157848  0  4.020677  0
C  C138  1  0.64956277  0.64898483  0.75467946  1  0.363699  0  0.090368  0.158088  0  4.020727  0
C  C139  1  0.85042171  0.85100771  0.25468117  1  0.363829  0  0.09028  0.157894  0  4.020607  0
C  C140  1  0.46437418  0.35456262  0.22242391  1  0.017466  0  -0.102433  -0.173522  0  3.978099  0
C  C141  1  0.03563163  0.14543333  0.72241492  1  0.017766  0  -0.102502  -0.173618  0  3.977911  0
C  C142  1  0.53563056  0.64545163  0.77757587  1  0.018023  0  -0.10261  -0.173875  0  3.978186  0
C  C143  1  0.96435439  0.85454100  0.27757669  1  0.01767  0  -0.10265  -0.174003  0  3.978  0
C  C144  1  0.88427593  0.31269627  0.15729723  1  0.003354  0  -0.105482  -0.087859  0  4.058608  0
C  C145  1  0.61574130  0.18732595  0.65729658  1  0.003724  0  -0.105356  -0.087239  0  4.058593  0
C  C146  1  0.11570631  0.68725681  0.84270185  1  0.003517  0  -0.105494  -0.088075  0  4.058701  0
C  C147  1  0.38427240  0.81272231  0.34270854  1  0.002613  0  -0.105428  -0.087851  0  4.058471  0
C  C148  1  0.88915314  0.89981047  0.47531648  1  0.504194  0  0.032456  0.082744  0  4.021571  0
C  C149  1  0.61087040  0.60020225  0.97532255  1  0.504279  0  0.032347  0.082335  0  4.021515  0
C  C150  1  0.11087815  0.10016284  0.52467833  1  0.50418  0  0.032285  0.082466  0  4.021738  0
C  C151  1  0.38911543  0.39981975  0.02468399  1  0.505347  0  0.03243  0.082642  0  4.021695  0
C  C152  1  0.00140436  0.33563415  0.17850872  1  0.019594  0  -0.099975  -0.179874  0  4.00158  0
C  C153  1  0.49861108  0.16438805  0.67850753  1  0.018734  0  -0.099958  -0.180072  0  4.001757  0
C  C154  1  0.99858454  0.66432691  0.82148503  1  0.019877  0  -0.100012  -0.179676  0  4.001439  0
C  C155  1  0.50139651  0.83565780  0.32149333  1  0.019325  0  -0.099959  -0.179729  0  4.001438  0
C  C156  1  0.38342077  0.58560929  0.43941105  1  0.025045  0  -0.097549  -0.243447  0  3.962299  0
C  C157  1  0.11658892  0.91441883  0.93940652  1  0.027284  0  -0.097658  -0.243552  0  3.962378  0
C  C158  1  0.61657523  0.41441674  0.56058767  1  0.027728  0  -0.097672  -0.24362  0  3.962717  0
C  C159  1  0.88342115  0.08558106  0.06059113  1  0.027518  0  -0.097634  -0.243504  0  3.962449  0
C  C160  1  0.79840843  0.18976231  0.22547211  1  -0.098461  0  -0.101324  -0.17366  0  3.977389  0
C  C161  1  0.70159907  0.31025249  0.72547662  1  -0.097385  0  -0.101262  -0.17327  0  3.977164  0
C  C162  1  0.20159447  0.81020347  0.77453123  1  -0.039229  0  -0.101573  -0.174142  0  3.977652  0
C  C163  1  0.29839014  0.68978238  0.27453596  1  -0.038255  0  -0.101481  -0.174019  0  3.977595  0
C  C164  1  0.46680418  0.30474368  0.17697215  1  -0.069555  0  -0.111022  -0.103856  0  4.092433  0
C  C165  1  0.03320012  0.19524652  0.67696305  1  -0.068485  0  -0.111091  -0.104093  0  4.092597  0
C  C166  1  0.53320820  0.69527195  0.82302729  1  -0.080534  0  -0.110985  -0.103641  0  4.092174  0
C  C167  1  0.96678282  0.80471960  0.32302678  1  -0.080048  0  -0.110987  -0.1036  0  4.092203  0
C  C168  1  0.35754052  0.24752179  0.15446691  1  -0.061042  0  -0.10787  -0.085401  0  4.071021  0
C  C169  1  0.14246625  0.25246906  0.65445898  1  -0.061443  0  -0.107787  -0.08512  0  4.070826  0
C  C170  1  0.64247490  0.75248804  0.84553181  1  -0.048879  0  -0.107863  -0.085495  0  4.070965  0
C  C171  1  0.85751447  0.74750935  0.34553228  1  -0.049006  0  -0.107905  -0.085599  0  4.071456  0
C  C172  1  0.78442447  0.23841688  0.18052696  1  -0.003643  0  -0.107047  -0.094962  0  4.073516  0
C  C173  1  0.71558702  0.26160957  0.68052903  1  -0.005241  0  -0.107102  -0.095363  0  4.073908  0
C  C174  1  0.21556649  0.76153470  0.81947567  1  -0.003206  0  -0.106769  -0.094335  0  4.073581  0
C  C175  1  0.28441534  0.73844408  0.31948142  1  -0.00329  0  -0.106883  -0.094546  0  4.07333  0
C  C176  1  0.44655141  0.63879648  0.47919197  1  0.445478  0  0.036295  0.095968  0  3.993941  0
C  C177  1  0.05345494  0.86122552  0.97918571  1  0.442339  0  0.036386  0.09602  0  3.993875  0
C  C178  1  0.55344713  0.36122190  0.52080711  1  0.44293  0  0.036335  0.096024  0  3.993775  0
C  C179  1  0.94655140  0.13876714  0.02081017  1  0.443094  0  0.036431  0.09615  0  3.993724  0
N  N180  1  0.94180148  0.16790078  0.29164445  1  -1.234889  0  -0.402901  -0.404222  0  3.603324  0
N  N181  1  0.55820701  0.33210215  0.79164940  1  -1.237601  0  -0.402871  -0.404178  0  3.603154  0
N  N182  1  0.05821253  0.83208297  0.70835534  1  -1.237309  0  -0.402912  -0.404374  0  3.603264  0
N  N183  1  0.44177378  0.66791456  0.20835998  1  -1.234378  0  -0.402905  -0.404194  0  3.602928  0
N  N184  1  0.33728975  0.39592673  0.29111559  1  -1.251214  0  -0.403  -0.407198  0  3.598556  0
N  N185  1  0.16271557  0.10407615  0.79110791  1  -1.251126  0  -0.402985  -0.407223  0  3.598479  0
N  N186  1  0.66270661  0.60408338  0.70888313  1  -1.251158  0  -0.402973  -0.40728  0  3.598789  0
N  N187  1  0.83727970  0.89591253  0.20888476  1  -1.251649  0  -0.403004  -0.407173  0  3.598357  0
N  N188  1  0.91985234  0.07962554  0.36552268  1  -1.243465  0  -0.403049  -0.421809  0  3.574105  0
N  N189  1  0.58016152  0.42037932  0.86552760  1  -1.243458  0  -0.403308  -0.421859  0  3.574436  0
N  N190  1  0.08016980  0.92036144  0.63447782  1  -1.24289  0  -0.403131  -0.421493  0  3.574397  0
N  N191  1  0.41982075  0.57963263  0.13448215  1  -1.242662  0  -0.40319  -0.421681  0  3.574567  0
N  N192  1  0.76916989  0.89114899  0.48711826  1  -1.240846  0  -0.330358  -0.234103  0  3.562359  0
N  N193  1  0.73085094  0.60885089  0.98712557  1  -1.240432  0  -0.330446  -0.234099  0  3.56226  0
N  N194  1  0.23086586  0.10883432  0.51288081  1  -1.24055  0  -0.330207  -0.233763  0  3.562217  0
N  N195  1  0.26912738  0.39114262  0.01288702  1  -1.241022  0  -0.3303  -0.23388  0  3.562146  0
N  N196  1  0.38210676  0.48204721  0.36481060  1  -1.240137  0  -0.40749  -0.434366  0  3.589453  0
N  N197  1  0.11790226  0.01797546  0.86480593  1  -1.240129  0  -0.407235  -0.434265  0  3.589517  0
N  N198  1  0.61788231  0.51798019  0.63518670  1  -1.240428  0  -0.407509  -0.434472  0  3.589572  0
N  N199  1  0.88210887  0.98202157  0.13518995  1  -1.240103  0  -0.407448  -0.434314  0  3.589758  0
N  N200  1  0.56920332  0.64596812  0.48520161  1  -1.220721  0  -0.326579  -0.235644  0  3.546009  0
N  N201  1  0.93080164  0.85404397  0.98519313  1  -1.220267  0  -0.326585  -0.235465  0  3.546429  0
N  N202  1  0.43079490  0.35404561  0.51479711  1  -1.221308  0  -0.326439  -0.235389  0  3.546136  0
N  N203  1  0.06920341  0.14594036  0.01480132  1  -1.2212  0  -0.326456  -0.235426  0  3.546411  0
Cl  Cl204  1  0.49525278  0.83433682  0.58310394  1  -0.525498  0  -0.310346  -0.431401  0  1.141491  0
Cl  Cl205  1  0.00477219  0.66569402  0.08309718  1  -0.525517  0  -0.310336  -0.431373  0  1.141438  0
Cl  Cl206  1  0.50477561  0.16566004  0.41690545  1  -0.525596  0  -0.310337  -0.431386  0  1.141551  0
Cl  Cl207  1  0.99523521  0.33433034  0.91690901  1  -0.525464  0  -0.310311  -0.431348  0  1.141484  0
Cl  Cl208  1  0.85533001  0.70585996  0.58894627  1  -0.577668  0  -0.315498  -0.466388  0  1.121882  0
Cl  Cl209  1  0.64467564  0.79413782  0.08894905  1  -0.577929  0  -0.315517  -0.46644  0  1.121887  0
Cl  Cl210  1  0.14468594  0.29413115  0.41105530  1  -0.577731  0  -0.315547  -0.466471  0  1.12202  0
Cl  Cl211  1  0.35532464  0.20586644  0.91105891  1  -0.577893  0  -0.315548  -0.46646  0  1.121931  0
O  O212  1  0.13082063  0.29933331  0.24589605  1  -1.105073  0  -0.15672  -0.21663  0  2.611816  0
O  O213  1  0.36917996  0.20068272  0.74589282  1  -1.104852  0  -0.156755  -0.216725  0  2.611392  0
O  O214  1  0.86917887  0.70065417  0.75409805  1  -1.105086  0  -0.156601  -0.21633  0  2.611675  0
O  O215  1  0.63080487  0.79934589  0.25410377  1  -1.105258  0  -0.156803  -0.216578  0  2.611555  0
O  O216  1  0.74627447  0.07622636  0.31842300  1  -1.122655  0  -0.282417  -0.496521  0  2.119895  0
O  O217  1  0.75373935  0.42375395  0.81843030  1  -1.122767  0  -0.282561  -0.496468  0  2.120184  0
O  O218  1  0.25373942  0.92377423  0.68158247  1  -1.122851  0  -0.282517  -0.496564  0  2.120051  0
O  O219  1  0.24624640  0.57622974  0.18158407  1  -1.123211  0  -0.282531  -0.49653  0  2.119848  0
O  O220  1  0.54120956  0.47765776  0.31131049  1  -1.150507  0  -0.28576  -0.494961  0  2.104986  0
O  O221  1  0.95879953  0.02234898  0.81130419  1  -1.150301  0  -0.285718  -0.49496  0  2.10504  0
O  O222  1  0.45878363  0.52235069  0.68868929  1  -1.150646  0  -0.285781  -0.495032  0  2.10501  0
O  O223  1  0.04120305  0.97764672  0.18869382  1  -1.150409  0  -0.285718  -0.494988  0  2.105005  0
