# generated using pymatgen
data_ZnH19C17NO5
_symmetry_space_group_name_H-M   'P 1'
_cell_length_a   9.68490221
_cell_length_b   10.82645558
_cell_length_c   10.95750138
_cell_angle_alpha   92.32000735
_cell_angle_beta   89.14326181
_cell_angle_gamma   89.56133132
_symmetry_Int_Tables_number   1
_chemical_formula_structural   ZnH19C17NO5
_chemical_formula_sum   'Zn2 H38 C34 N2 O10'
_cell_volume   1147.81935041
_cell_formula_units_Z   2
loop_
 _symmetry_equiv_pos_site_id
 _symmetry_equiv_pos_as_xyz
  1  'x, y, z'
loop_
 _atom_site_type_symbol
 _atom_site_label
 _atom_site_symmetry_multiplicity
 _atom_site_fract_x
 _atom_site_fract_y
 _atom_site_fract_z
 _atom_site_occupancy
 _atom_site_pbe_bader_charge
 _atom_site_pbe_bader_spin_density
 _atom_site_pbe_cm5_charge
 _atom_site_pbe_ddec_charge
 _atom_site_pbe_ddec_spin_density
 _atom_site_pbe_ddec_sum_bond_order
 _atom_site_pbe_magmom
Zn  Zn0  1  0.64317141  0.49825380  0.49661170  1  1.281468  0  0.665062  0.806573  0  2.470504  0
Zn  Zn1  1  0.35724707  0.50378329  0.49944942  1  1.262256  0  0.664986  0.807363  0  2.463239  0
H  H2  1  0.12711087  0.62941878  0.64462600  1  0.157714  0  0.140521  0.120991  0  0.969114  0
H  H3  1  0.32094009  0.02345891  0.19053378  1  0.034629  0  0.092497  0.048521  0  0.996915  0
H  H4  1  0.36217280  0.82671001  0.06315603  1  0.037622  0  0.090807  0.126878  0  0.99407  0
H  H5  1  0.41651206  0.95857916  0.98282389  1  0.033121  0  0.091708  0.127131  0  1.021177  0
H  H6  1  0.54048378  0.86223800  0.05140147  1  0.035266  0  0.087838  0.119298  0  1.011847  0
H  H7  1  0.52703103  0.26331185  0.76249962  1  0.026129  0  0.094089  0.059622  0  0.991368  0
H  H8  1  0.69263912  0.20016217  0.72458407  1  0.026604  0  0.095123  0.057924  0  0.997157  0
H  H9  1  0.70590312  0.11310899  0.93477972  1  0.034272  0  0.087241  0.1173  0  1.005283  0
H  H10  1  0.67641313  0.27651659  0.94510822  1  0.06813  0  0.088391  0.123124  0  1.015793  0
H  H11  1  0.53798485  0.17360036  0.97045904  1  0.023029  0  0.08836  0.119206  0  1.014051  0
H  H12  1  0.83183346  0.92992866  0.31624633  1  -0.014754  0  0.086354  0.116607  0  1.015836  0
H  H13  1  0.87328852  0.37199407  0.35067814  1  0.155839  0  0.140448  0.122107  0  0.966421  0
H  H14  1  0.70296692  0.94973310  0.20646028  1  0.017776  0  0.086495  0.115038  0  1.036331  0
H  H15  1  0.85382038  0.04206367  0.20391972  1  0.004488  0  0.080893  0.103801  0  1.010715  0
H  H16  1  0.65795228  0.16876122  0.29431414  1  0.005554  0  0.086881  0.081665  0  0.987941  0
H  H17  1  0.78358314  0.14697939  0.40472823  1  0.017244  0  0.083629  0.072661  0  1.017038  0
H  H18  1  0.29082352  0.05546127  0.80778964  1  0.046556  0  0.084411  0.113038  0  1.036996  0
H  H19  1  0.15642822  0.06052970  0.70004365  1  0.025602  0  0.083109  0.111369  0  1.025409  0
H  H20  1  0.14796656  0.95390574  0.81860329  1  0.00812  0  0.080186  0.103514  0  1.011148  0
H  H21  1  0.22414378  0.84185727  0.62268223  1  -0.005688  0  0.082605  0.067601  0  1.030178  0
H  H22  1  0.35428580  0.83912634  0.73216809  1  0.02997  0  0.091828  0.091755  0  0.966347  0
H  H23  1  0.89007804  0.06750006  0.56947962  1  0.022284  0  0.082829  0.109754  0  1.023889  0
H  H24  1  0.13833258  0.37409344  0.35204526  1  0.119111  0  0.13882  0.11782  0  0.972948  0
H  H25  1  0.82699677  0.04347195  0.71965320  1  0.0231  0  0.084787  0.111099  0  1.032794  0
H  H26  1  0.96199527  0.94934555  0.65624366  1  0.015938  0  0.081953  0.105871  0  1.041691  0
H  H27  1  0.73564230  0.83685071  0.65478086  1  0.006479  0  0.088249  0.082749  0  0.979427  0
H  H28  1  0.80689738  0.84776662  0.50775056  1  0.048567  0  0.086069  0.078011  0  1.008934  0
H  H29  1  0.17829885  0.92523596  0.32173942  1  0.05596  0  0.086501  0.117661  0  1.018256  0
H  H30  1  0.10738681  0.92501705  0.47114481  1  0.019122  0  0.083674  0.112468  0  1.029494  0
H  H31  1  0.03480900  0.02261652  0.36287117  1  0.012799  0  0.080729  0.104896  0  1.046096  0
H  H32  1  0.18249994  0.14556900  0.51102199  1  0.035564  0  0.085605  0.078715  0  1.005785  0
H  H33  1  0.24583784  0.15230395  0.36077449  1  0.010881  0  0.083057  0.069482  0  1.00192  0
H  H34  1  0.86201552  0.62664124  0.64381437  1  0.152698  0  0.138948  0.118436  0  0.977761  0
H  H35  1  0.29647957  0.42890284  0.10675682  1  0.06271  0  0.100556  0.101092  0  1.007395  0
H  H36  1  0.70744141  0.59420705  0.89227503  1  0.080601  0  0.101286  0.101816  0  1.004777  0
H  H37  1  0.29396227  0.45547587  0.87939146  1  0.102348  0  0.103154  0.106684  0  0.999662  0
H  H38  1  0.70952032  0.56821109  0.11964189  1  0.081955  0  0.104677  0.108435  0  0.998727  0
H  H39  1  0.50016356  0.05774083  0.17983737  1  0.037545  0  0.095109  0.050877  0  1.006212  0
C  C40  1  0.50072801  0.52557621  0.87340499  1  -0.039913  0  -0.015196  -0.027992  0  3.974674  0
C  C41  1  0.36847344  0.04234267  0.47493321  1  -0.01359  0  -0.00855  0.016043  0  3.604177  0
C  C42  1  0.47296478  0.96029181  0.39280840  1  0.554148  0  0.089325  0.171988  0  3.698532  0
C  C43  1  0.52136614  0.03875116  0.62524360  1  0.566973  0  0.093223  0.177894  0  3.68235  0
C  C44  1  0.50087822  0.87540182  0.50228173  1  0.031898  0  -0.013661  -0.144994  0  3.685925  0
C  C45  1  0.49384120  0.12570397  0.51387232  1  -0.034626  0  -0.015383  -0.153032  0  3.664336  0
C  C46  1  0.06900843  0.57243750  0.57944053  1  0.478575  0  0.081118  0.062465  0  3.856952  0
C  C47  1  0.93143502  0.42859707  0.41615793  1  0.496509  0  0.079753  0.059511  0  3.860994  0
C  C48  1  0.07525642  0.42999185  0.41668355  1  0.54542  0  0.081218  0.064463  0  3.860677  0
C  C49  1  0.92519499  0.57092577  0.57909205  1  0.51467  0  0.080599  0.063464  0  3.858517  0
C  C50  1  0.38582663  0.46476062  0.05855597  1  0.001702  0  -0.085007  -0.097485  0  3.992849  0
C  C51  1  0.50417353  0.49466702  0.12504895  1  -0.076101  0  -0.012419  -0.017818  0  3.958039  0
C  C52  1  0.61806732  0.55808866  0.94031314  1  -0.032701  0  -0.084889  -0.099039  0  3.994301  0
C  C53  1  0.38398955  0.48020289  0.93333360  1  -0.072863  0  -0.084907  -0.097958  0  3.987915  0
C  C54  1  0.61976918  0.54287029  0.06563069  1  0.000323  0  -0.082958  -0.096559  0  3.982679  0
C  C55  1  0.42494007  0.98176740  0.17956016  1  0.41924  0  -0.070781  0.08296  0  3.936763  0
C  C56  1  0.43650766  0.90285271  0.06237550  1  -0.060814  0  -0.245828  -0.401107  0  3.976059  0
C  C57  1  0.59917656  0.18733783  0.78094611  1  0.450426  0  -0.073087  0.08396  0  3.922734  0
C  C58  1  0.63212528  0.18727147  0.91563613  1  -0.090755  0  -0.247653  -0.396601  0  3.986065  0
C  C59  1  0.70649647  0.09726472  0.34886681  1  0.016642  0  -0.165048  -0.127604  0  3.994291  0
C  C60  1  0.77761029  0.99939317  0.26413097  1  -0.000272  0  -0.247447  -0.355009  0  3.963281  0
C  C61  1  0.29650786  0.90159539  0.67386761  1  0.041401  0  -0.161366  -0.119904  0  3.977541  0
C  C62  1  0.50667271  0.47791458  0.25968882  1  1.578247  0  0.215092  0.593842  0  4.173039  0
C  C63  1  0.21839628  0.99850062  0.75456690  1  -0.078985  0  -0.250575  -0.359273  0  3.976868  0
C  C64  1  0.76054593  0.90352721  0.58424567  1  -0.010806  0  -0.164919  -0.122461  0  3.998453  0
C  C65  1  0.86512748  0.99653886  0.63500875  1  -0.063161  0  -0.248234  -0.357588  0  3.969444  0
C  C66  1  0.22982758  0.08863584  0.43577896  1  0.011432  0  -0.166516  -0.126797  0  4.007526  0
C  C67  1  0.13230166  0.98465338  0.39536766  1  -0.089386  0  -0.24956  -0.359454  0  3.958592  0
C  C68  1  0.50155163  0.53195735  0.73739854  1  1.563778  0  0.212987  0.586283  0  4.1922  0
C  C69  1  0.49452498  0.26303892  0.51827832  1  1.548712  0  0.214918  0.608317  0  4.164948  0
C  C70  1  0.49784077  0.73877107  0.48685854  1  1.52327  0  0.220044  0.627809  0  4.135496  0
C  C71  1  0.59899117  0.04486976  0.43276551  1  -0.004188  0  -0.008214  0.015424  0  3.599514  0
C  C72  1  0.39736158  0.95527838  0.58489593  1  -0.001764  0  -0.003942  0.02641  0  3.607507  0
C  C73  1  0.62629705  0.95735852  0.54286121  1  -0.001473  0  -0.009826  0.012745  0  3.605741  0
N  N74  1  0.85785567  0.49895213  0.49749812  1  -1.189087  0  -0.288241  -0.138663  0  3.486648  0
N  N75  1  0.14259699  0.50192844  0.49827299  1  -1.189261  0  -0.288095  -0.13867  0  3.486341  0
O  O76  1  0.62471083  0.47442878  0.30929500  1  -1.170029  0  -0.321395  -0.558114  0  2.326919  0
O  O77  1  0.53470670  0.07114109  0.74837352  1  -1.080072  0  -0.206506  -0.2415  0  2.503717  0
O  O78  1  0.38476271  0.53358584  0.68548782  1  -1.16897  0  -0.321221  -0.560543  0  2.337911  0
O  O79  1  0.61947664  0.53138637  0.68390806  1  -1.173727  0  -0.322292  -0.562388  0  2.327692  0
O  O80  1  0.39024660  0.46934994  0.31463832  1  -1.171768  0  -0.324329  -0.564143  0  2.326627  0
O  O81  1  0.61258661  0.31499303  0.51489773  1  -1.162965  0  -0.319186  -0.557771  0  2.358457  0
O  O82  1  0.37919055  0.68846868  0.48209419  1  -1.163717  0  -0.318168  -0.544977  0  2.313084  0
O  O83  1  0.61356930  0.68189652  0.47856011  1  -1.164248  0  -0.316606  -0.54935  0  2.347341  0
O  O84  1  0.37823756  0.31905078  0.52453280  1  -1.164315  0  -0.318082  -0.546556  0  2.33997  0
O  O85  1  0.45124361  0.90258995  0.27942880  1  -1.072415  0  -0.207653  -0.239179  0  2.497198  0
