# generated using pymatgen
data_Ag2H11C10N5O4
_symmetry_space_group_name_H-M   'P 1'
_cell_length_a   10.02376930
_cell_length_b   10.12644750
_cell_length_c   13.58316964
_cell_angle_alpha   114.03068664
_cell_angle_beta   90.00001062
_cell_angle_gamma   89.99993822
_symmetry_Int_Tables_number   1
_chemical_formula_structural   Ag2H11C10N5O4
_chemical_formula_sum   'Ag8 H44 C40 N20 O16'
_cell_volume   1259.26122301
_cell_formula_units_Z   4
loop_
 _symmetry_equiv_pos_site_id
 _symmetry_equiv_pos_as_xyz
  1  'x, y, z'
loop_
 _atom_site_type_symbol
 _atom_site_label
 _atom_site_symmetry_multiplicity
 _atom_site_fract_x
 _atom_site_fract_y
 _atom_site_fract_z
 _atom_site_occupancy
 _atom_site_pbe_bader_spin_density
 _atom_site_pbe_cm5_charge
 _atom_site_pbe_ddec_charge
 _atom_site_pbe_ddec_spin_density
 _atom_site_pbe_ddec_sum_bond_order
 _atom_site_pbe_magmom
Ag  Ag0  1  0.71889126  0.00723633  0.11462810  1  0  0.436166  0.3174  0  2.082527  0
Ag  Ag1  1  0.21889049  0.49276236  0.38537077  1  0  0.436152  0.317376  0  2.082497  0
Ag  Ag2  1  0.28110839  0.99276266  0.88537080  1  0  0.436155  0.317394  0  2.082479  0
Ag  Ag3  1  0.78110716  0.50723665  0.61462887  1  0  0.43614  0.317348  0  2.082532  0
Ag  Ag4  1  0.18762879  0.45908233  0.15120324  1  0  0.461619  0.35532  0  2.100815  0
Ag  Ag5  1  0.68762957  0.04091857  0.34879701  1  0  0.46163  0.355362  0  2.100814  0
Ag  Ag6  1  0.81237086  0.54091774  0.84879598  1  0  0.461618  0.355339  0  2.100812  0
Ag  Ag7  1  0.31237107  0.95908153  0.65120369  1  0  0.461618  0.355336  0  2.100793  0
H  H8  1  0.25069900  0.22798706  0.11560132  1  0  0.090995  0.093533  0  1.104935  0
H  H9  1  0.75070054  0.27201051  0.38439723  1  0  0.091  0.093526  0  1.104944  0
H  H10  1  0.74930365  0.77201197  0.88439907  1  0  0.091005  0.093542  0  1.10497  0
H  H11  1  0.24929911  0.72798738  0.61560061  1  0  0.090992  0.093537  0  1.10498  0
H  H12  1  0.41694893  0.06119019  0.13555562  1  0  0.131419  0.122451  0  0.995759  0
H  H13  1  0.91694928  0.43880715  0.36444140  1  0  0.13144  0.12243  0  0.99576  0
H  H14  1  0.58305272  0.93880776  0.86444444  1  0  0.131416  0.122444  0  0.995759  0
H  H15  1  0.08305037  0.56118961  0.63555390  1  0  0.131414  0.12245  0  0.995708  0
H  H16  1  0.11899874  0.79416283  0.17033928  1  0  0.13228  0.112585  0  0.984286  0
H  H17  1  0.61899834  0.70583696  0.32966239  1  0  0.13229  0.112587  0  0.984323  0
H  H18  1  0.88099992  0.20583837  0.82966248  1  0  0.132287  0.112553  0  0.98433  0
H  H19  1  0.38100031  0.29416315  0.67033831  1  0  0.132293  0.112605  0  0.984307  0
H  H20  1  0.93972185  0.95217641  0.15201460  1  0  0.095392  0.096368  0  1.086468  0
H  H21  1  0.43972355  0.54782518  0.34798838  1  0  0.095389  0.096348  0  1.086476  0
H  H22  1  0.06027681  0.04782914  0.84798917  1  0  0.095397  0.096392  0  1.086439  0
H  H23  1  0.56027610  0.45217602  0.65201338  1  0  0.095404  0.096389  0  1.086475  0
H  H24  1  0.56676043  0.77180346  0.02660822  1  0  0.278321  0.314705  0  0.980305  0
H  H25  1  0.06675998  0.72819742  0.47339156  1  0  0.278326  0.314715  0  0.980287  0
H  H26  1  0.43323922  0.22819554  0.97339143  1  0  0.278329  0.314706  0  0.980305  0
H  H27  1  0.93323867  0.27180483  0.52660904  1  0  0.278351  0.314752  0  0.980254  0
H  H28  1  0.38789367  0.65677553  0.20016349  1  0  0.270385  0.305427  0  1.013162  0
H  H29  1  0.88789412  0.84322607  0.29983727  1  0  0.270394  0.305439  0  1.01315  0
H  H30  1  0.61210598  0.34322566  0.79983753  1  0  0.270398  0.305438  0  1.013154  0
H  H31  1  0.11210653  0.15677510  0.70016300  1  0  0.270396  0.305445  0  1.013134  0
H  H32  1  0.57179446  0.81625106  0.15858267  1  0  0.274461  0.306757  0  1.00046  0
H  H33  1  0.07179502  0.68375196  0.34141699  1  0  0.274463  0.306776  0  1.000397  0
H  H34  1  0.42820519  0.18375118  0.84141718  1  0  0.274456  0.306765  0  1.00043  0
H  H35  1  0.92820563  0.31624919  0.65858254  1  0  0.274465  0.306775  0  1.00041  0
H  H36  1  0.44813157  0.49368986  0.12080609  1  0  0.272771  0.317606  0  1.006804  0
H  H37  1  0.94813140  0.00631077  0.37919559  1  0  0.272796  0.317659  0  1.006739  0
H  H38  1  0.55186908  0.50631131  0.87919419  1  0  0.27276  0.317591  0  1.006828  0
H  H39  1  0.05186825  0.99368935  0.62080585  1  0  0.272767  0.317638  0  1.006752  0
H  H40  1  0.35491508  0.57892586  0.06767038  1  0  0.276339  0.319976  0  0.978483  0
H  H41  1  0.85491548  0.92107361  0.43232975  1  0  0.276335  0.319984  0  0.978489  0
H  H42  1  0.64508457  0.42107531  0.93232989  1  0  0.276344  0.319993  0  0.978474  0
H  H43  1  0.14508417  0.07892539  0.56766989  1  0  0.276328  0.319948  0  0.978539  0
H  H44  1  0.69996884  0.72783022  0.08200221  1  0  0.277183  0.324537  0  0.983319  0
H  H45  1  0.19997032  0.77216942  0.41799722  1  0  0.277176  0.324516  0  0.983342  0
H  H46  1  0.30002982  0.27216987  0.91799775  1  0  0.277166  0.324519  0  0.983324  0
H  H47  1  0.80003033  0.22783067  0.58200274  1  0  0.277173  0.324512  0  0.98336  0
H  H48  1  0.34460145  0.87293042  0.18196461  1  0  0.315221  0.27209  0  0.987603  0
H  H49  1  0.84460114  0.62706904  0.31803405  1  0  0.315216  0.272075  0  0.987635  0
H  H50  1  0.65539720  0.12706967  0.81803535  1  0  0.315205  0.272106  0  0.987579  0
H  H51  1  0.15539751  0.37292992  0.68196337  1  0  0.315233  0.27211  0  0.987574  0
C  C52  1  0.64269620  0.29934216  0.08616543  1  0  0.181102  0.531302  0  4.325953  0
C  C53  1  0.14269776  0.20065777  0.41383674  1  0  0.181146  0.531323  0  4.325782  0
C  C54  1  0.35730245  0.70065904  0.91383633  1  0  0.181103  0.531285  0  4.325856  0
C  C55  1  0.85730289  0.79934021  0.58616481  1  0  0.181132  0.531336  0  4.325854  0
C  C56  1  0.78908326  0.29608211  0.10571102  1  0  0.067195  -0.01297  0  3.980161  0
C  C57  1  0.28908480  0.20391761  0.39428964  1  0  0.067195  -0.012964  0  3.980172  0
C  C58  1  0.21091640  0.70391798  0.89428894  1  0  0.067213  -0.012948  0  3.980139  0
C  C59  1  0.71091485  0.79608145  0.60571223  1  0  0.067167  -0.013027  0  3.980181  0
C  C60  1  0.04397995  0.98011160  0.14728471  1  0  -0.071914  -0.131647  0  3.885637  0
C  C61  1  0.54397976  0.51989042  0.35271687  1  0  -0.071929  -0.131606  0  3.885588  0
C  C62  1  0.95602070  0.01989176  0.85271768  1  0  -0.071988  -0.131798  0  3.885661  0
C  C63  1  0.45601889  0.48011185  0.64728447  1  0  -0.071917  -0.131653  0  3.885623  0
C  C64  1  0.31042314  0.04119979  0.13762681  1  0  0.065103  0.10935  0  3.867121  0
C  C65  1  0.81042248  0.45879878  0.36237204  1  0  0.065046  0.109345  0  3.867125  0
C  C66  1  0.68957751  0.95879925  0.86237431  1  0  0.06508  0.109354  0  3.867148  0
C  C67  1  0.18957518  0.54120017  0.63762538  1  0  0.065116  0.109353  0  3.86704  0
C  C68  1  0.21592969  0.13298367  0.12677751  1  0  -0.085895  -0.171447  0  3.971124  0
C  C69  1  0.71592913  0.36701502  0.37322136  1  0  -0.085877  -0.171389  0  3.971113  0
C  C70  1  0.78407095  0.86701643  0.87322319  1  0  -0.085923  -0.17149  0  3.971183  0
C  C71  1  0.28406852  0.63298504  0.62677712  1  0  -0.085901  -0.171458  0  3.971152  0
C  C72  1  0.89024574  0.39939112  0.11940667  1  0  0.082551  0.01497  0  3.92837  0
C  C73  1  0.39024640  0.10060956  0.38059428  1  0  0.082554  0.014944  0  3.928314  0
C  C74  1  0.10975490  0.60060787  0.88059223  1  0  0.082557  0.015004  0  3.928267  0
C  C75  1  0.60975424  0.89939164  0.61940748  1  0  0.082547  0.015007  0  3.92827  0
C  C76  1  0.88633196  0.55380925  0.13054140  1  0  0.204063  0.570419  0  4.238779  0
C  C77  1  0.38633524  0.94618907  0.36945693  1  0  0.204072  0.570499  0  4.23887  0
C  C78  1  0.11366769  0.44618971  0.86945602  1  0  0.204092  0.570569  0  4.238747  0
C  C79  1  0.61366741  0.05381105  0.63054451  1  0  0.204073  0.570556  0  4.238774  0
C  C80  1  0.97894502  0.20850284  0.13077816  1  0  0.191179  0.245425  0  4.03345  0
C  C81  1  0.47894647  0.29149663  0.36922171  1  0  0.191223  0.245485  0  4.033468  0
C  C82  1  0.02105563  0.79149615  0.86922074  1  0  0.19124  0.24546  0  4.033449  0
C  C83  1  0.52105418  0.70850457  0.63078005  1  0  0.191212  0.245419  0  4.033604  0
C  C84  1  0.14185336  0.89087769  0.15712132  1  0  0.067903  0.112134  0  3.83688  0
C  C85  1  0.64185407  0.60912311  0.34287918  1  0  0.06792  0.112127  0  3.836877  0
C  C86  1  0.85814530  0.10912459  0.84288076  1  0  0.067944  0.112245  0  3.836813  0
C  C87  1  0.35814359  0.39087697  0.65712078  1  0  0.067906  0.112085  0  3.836873  0
C  C88  1  0.07865600  0.10804854  0.13547427  1  0  0.028433  0.092526  0  3.951329  0
C  C89  1  0.57865641  0.39195247  0.36452527  1  0  0.02846  0.092492  0  3.951365  0
C  C90  1  0.92134465  0.89195263  0.86452601  1  0  0.028469  0.092607  0  3.951204  0
C  C91  1  0.42134225  0.60804976  0.63547458  1  0  0.028432  0.092559  0  3.951386  0
N  N92  1  0.84642901  0.17973644  0.11571437  1  0  -0.367828  -0.312574  0  3.588877  0
N  N93  1  0.34642944  0.32026211  0.38428522  1  0  -0.367791  -0.312504  0  3.588809  0
N  N94  1  0.15357163  0.82026152  0.88428644  1  0  -0.367848  -0.312581  0  3.588904  0
N  N95  1  0.65357022  0.67973583  0.61571485  1  0  -0.367811  -0.312491  0  3.588881  0
N  N96  1  0.00750599  0.34306355  0.13593330  1  0  -0.373414  -0.316851  0  3.596416  0
N  N97  1  0.50750565  0.15693863  0.36406657  1  0  -0.373475  -0.316944  0  3.596541  0
N  N98  1  0.99249566  0.65693649  0.86406443  1  0  -0.373437  -0.316932  0  3.596565  0
N  N99  1  0.49249499  0.84306365  0.63593551  1  0  -0.37344  -0.316941  0  3.596599  0
N  N100  1  0.27213467  0.92387633  0.15374238  1  0  -0.354169  -0.152511  0  3.690692  0
N  N101  1  0.77213442  0.57612323  0.34625703  1  0  -0.354158  -0.152502  0  3.690759  0
N  N102  1  0.72786498  0.07612271  0.84625875  1  0  -0.354148  -0.152553  0  3.690677  0
N  N103  1  0.22786324  0.42387681  0.65374070  1  0  -0.354167  -0.152505  0  3.690697  0
N  N104  1  0.36491733  0.56049473  0.13682645  1  0  -0.815523  -0.790551  0  3.276261  0
N  N105  1  0.86491868  0.93950583  0.36317474  1  0  -0.815546  -0.79063  0  3.276228  0
N  N106  1  0.63508133  0.43950535  0.86317351  1  0  -0.815513  -0.790545  0  3.276286  0
N  N107  1  0.13508197  0.06049428  0.63682596  1  0  -0.815524  -0.790569  0  3.276183  0
N  N108  1  0.62854856  0.80617066  0.09297078  1  0  -0.802177  -0.783725  0  3.263982  0
N  N109  1  0.12854912  0.69383015  0.40702898  1  0  -0.802182  -0.783748  0  3.263928  0
N  N110  1  0.37145110  0.19382943  0.90702918  1  0  -0.80217  -0.783731  0  3.263943  0
N  N111  1  0.87145153  0.30616994  0.59297098  1  0  -0.8022  -0.783773  0  3.263926  0
O  O112  1  0.83609934  0.58454953  0.05847233  1  0  -0.316363  -0.53394  0  2.268859  0
O  O113  1  0.33610665  0.91544559  0.44152432  1  0  -0.316354  -0.533972  0  2.26899  0
O  O114  1  0.16389931  0.41544726  0.94152446  1  0  -0.316402  -0.534034  0  2.268874  0
O  O115  1  0.66389898  0.08455237  0.55847649  1  0  -0.316367  -0.53401  0  2.268936  0
O  O116  1  0.60009640  0.40339631  0.06536676  1  0  -0.328027  -0.556223  0  2.213351  0
O  O117  1  0.10009808  0.09660368  0.43463616  1  0  -0.328076  -0.55626  0  2.213274  0
O  O118  1  0.39990525  0.59660599  0.93463606  1  0  -0.328056  -0.556225  0  2.213246  0
O  O119  1  0.89990357  0.90339647  0.56536676  1  0  -0.328038  -0.556248  0  2.213274  0
O  O120  1  0.57048889  0.19746645  0.08920304  1  0  -0.346246  -0.564827  0  2.208872  0
O  O121  1  0.07048934  0.30253248  0.41079883  1  0  -0.346241  -0.564813  0  2.208763  0
O  O122  1  0.42951176  0.80253149  0.91079703  1  0  -0.346238  -0.564828  0  2.208883  0
O  O123  1  0.92951131  0.69746548  0.58920198  1  0  -0.346257  -0.564824  0  2.208857  0
O  O124  1  0.93778463  0.64704211  0.21953114  1  0  -0.338542  -0.607616  0  2.220906  0
O  O125  1  0.43778898  0.85295933  0.28046516  1  0  -0.338548  -0.607641  0  2.22095  0
O  O126  1  0.06221503  0.35295685  0.78046628  1  0  -0.338543  -0.607677  0  2.220968  0
O  O127  1  0.56221467  0.14704292  0.71953543  1  0  -0.338532  -0.607664  0  2.22096  0
