# generated using pymatgen
data_Cu3H10C12(IN2)3
_symmetry_space_group_name_H-M   'P 1'
_cell_length_a   6.70966652
_cell_length_b   15.23816384
_cell_length_c   17.48886993
_cell_angle_alpha   90.00021501
_cell_angle_beta   89.99992271
_cell_angle_gamma   90.00011488
_symmetry_Int_Tables_number   1
_chemical_formula_structural   Cu3H10C12(IN2)3
_chemical_formula_sum   'Cu12 H40 C48 I12 N24'
_cell_volume   1788.11448757
_cell_formula_units_Z   4
loop_
 _symmetry_equiv_pos_site_id
 _symmetry_equiv_pos_as_xyz
  1  'x, y, z'
loop_
 _atom_site_type_symbol
 _atom_site_label
 _atom_site_symmetry_multiplicity
 _atom_site_fract_x
 _atom_site_fract_y
 _atom_site_fract_z
 _atom_site_occupancy
 _atom_site_hle17_bader_spin_density
 _atom_site_hle17_ddec_charge
 _atom_site_hle17_ddec_spin_density
 _atom_site_hle17_ddec_sum_bond_order
 _atom_site_hle17_magmom
 _atom_site_hse06_10hf_bader_spin_density
 _atom_site_hse06_10hf_ddec_charge
 _atom_site_hse06_10hf_ddec_spin_density
 _atom_site_hse06_10hf_ddec_sum_bond_order
 _atom_site_hse06_10hf_magmom
 _atom_site_hse06_bader_spin_density
 _atom_site_hse06_ddec_charge
 _atom_site_hse06_ddec_spin_density
 _atom_site_hse06_ddec_sum_bond_order
 _atom_site_hse06_magmom
 _atom_site_pbe_bader_spin_density
 _atom_site_pbe_cm5_charge
 _atom_site_pbe_ddec_charge
 _atom_site_pbe_ddec_spin_density
 _atom_site_pbe_ddec_sum_bond_order
 _atom_site_pbe_magmom
Cu  Cu0  1  0.74482393  0.01030306  0.75000028  1  0  0.194773  0  2.223083  0  0  0.121599  0  2.716003  0  0  0.148658  0  2.647131  0  0  0.138543  0.103492  0  2.762722  0
Cu  Cu1  1  0.24482349  0.48969679  0.24999975  1  0  0.194751  0  2.223079  0  0  0.121588  0  2.715984  0  0  0.148634  0  2.6471  0  0  0.13853  0.103483  0  2.762679  0
Cu  Cu2  1  0.25517385  0.98969667  0.24999999  1  0  0.194754  0  2.223102  0  0  0.121592  0  2.716003  0  0  0.14864  0  2.647126  0  0  0.138542  0.10348  0  2.76272  0
Cu  Cu3  1  0.75517578  0.51030294  0.74999881  1  0  0.194769  0  2.223114  0  0  0.121604  0  2.716011  0  0  0.148647  0  2.647133  0  0  0.138544  0.103505  0  2.762713  0
Cu  Cu4  1  0.79979136  0.13331966  0.65153499  1  0  0.330852  0  2.051626  0  0  0.229919  0  2.531273  0  0  0.233729  0  2.482764  0  0  0.377825  0.23116  0  2.561639  0
Cu  Cu5  1  0.29978850  0.36668352  0.34846673  1  0  0.330818  0  2.051647  0  0  0.229894  0  2.53127  0  0  0.233702  0  2.482754  0  0  0.377786  0.231125  0  2.561564  0
Cu  Cu6  1  0.20021128  0.86668226  0.15153432  1  0  0.330826  0  2.051627  0  0  0.229907  0  2.531238  0  0  0.233717  0  2.482724  0  0  0.377789  0.231137  0  2.561547  0
Cu  Cu7  1  0.70021188  0.63331729  0.84846565  1  0  0.330833  0  2.051646  0  0  0.229909  0  2.531264  0  0  0.233719  0  2.482749  0  0  0.37781  0.231134  0  2.561627  0
Cu  Cu8  1  0.20020940  0.86668072  0.34846585  1  0  0.330837  0  2.051617  0  0  0.229908  0  2.531265  0  0  0.233719  0  2.482755  0  0  0.377797  0.231157  0  2.56151  0
Cu  Cu9  1  0.70021078  0.63331949  0.65153354  1  0  0.330795  0  2.051672  0  0  0.229855  0  2.531294  0  0  0.233667  0  2.48278  0  0  0.3778  0.231086  0  2.561622  0
Cu  Cu10  1  0.79978799  0.13331877  0.84846709  1  0  0.330832  0  2.051636  0  0  0.229905  0  2.531259  0  0  0.233717  0  2.482751  0  0  0.377794  0.231143  0  2.561521  0
Cu  Cu11  1  0.29979336  0.36668047  0.15153348  1  0  0.330837  0  2.051616  0  0  0.229943  0  2.531239  0  0  0.233751  0  2.482723  0  0  0.377829  0.231169  0  2.56154  0
H  H12  1  0.38837061  0.20153982  0.42945166  1  0  0.076527  0  0.968996  0  0  0.082123  0  1.041133  0  0  0.085786  0  1.038012  0  0  0.09682  0.079359  0  1.043555  0
H  H13  1  0.88836708  0.29846541  0.57054773  1  0  0.076521  0  0.968964  0  0  0.082132  0  1.041075  0  0  0.085796  0  1.037954  0  0  0.09678  0.079362  0  1.043514  0
H  H14  1  0.61163242  0.79845937  0.92945116  1  0  0.076523  0  0.968948  0  0  0.082107  0  1.041095  0  0  0.08577  0  1.037976  0  0  0.096821  0.079343  0  1.043522  0
H  H15  1  0.11162992  0.70154011  0.07054770  1  0  0.076558  0  0.968943  0  0  0.082152  0  1.041085  0  0  0.085816  0  1.037965  0  0  0.096825  0.079387  0  1.043507  0
H  H16  1  0.61163015  0.79846253  0.57054632  1  0  0.076503  0  0.968984  0  0  0.082117  0  1.041111  0  0  0.085781  0  1.037991  0  0  0.09682  0.079352  0  1.043537  0
H  H17  1  0.11162325  0.70153825  0.42945197  1  0  0.076581  0  0.969005  0  0  0.082182  0  1.041141  0  0  0.085847  0  1.038018  0  0  0.09682  0.079416  0  1.043561  0
H  H18  1  0.38837431  0.20153445  0.07054740  1  0  0.076469  0  0.969  0  0  0.082096  0  1.041124  0  0  0.085758  0  1.038006  0  0  0.096795  0.079333  0  1.043549  0
H  H19  1  0.88837084  0.29846225  0.92945314  1  0  0.07653  0  0.968946  0  0  0.082132  0  1.041091  0  0  0.085794  0  1.037971  0  0  0.096825  0.079364  0  1.043511  0
H  H20  1  0.43025608  0.15420175  0.56450718  1  0  0.110229  0  0.969563  0  0  0.114334  0  1.041519  0  0  0.119048  0  1.038506  0  0  0.095716  0.110817  0  1.043944  0
H  H21  1  0.93025776  0.34580155  0.43549162  1  0  0.110179  0  0.969562  0  0  0.114266  0  1.041571  0  0  0.118984  0  1.03853  0  0  0.095663  0.110761  0  1.043958  0
H  H22  1  0.56973946  0.84579718  0.06450685  1  0  0.11024  0  0.969577  0  0  0.114326  0  1.041564  0  0  0.119044  0  1.038537  0  0  0.0957  0.11081  0  1.04398  0
H  H23  1  0.06973779  0.65420291  0.93549260  1  0  0.110261  0  0.969571  0  0  0.114331  0  1.041576  0  0  0.119054  0  1.038533  0  0  0.09569  0.110816  0  1.043992  0
H  H24  1  0.56974022  0.84579798  0.43549137  1  0  0.110209  0  0.969543  0  0  0.114297  0  1.041536  0  0  0.119021  0  1.03849  0  0  0.095684  0.110784  0  1.043939  0
H  H25  1  0.06974002  0.65419949  0.56450751  1  0  0.110206  0  0.9695  0  0  0.114292  0  1.041503  0  0  0.119008  0  1.03848  0  0  0.095683  0.110782  0  1.043904  0
H  H26  1  0.43025981  0.15420058  0.93549056  1  0  0.110169  0  0.969599  0  0  0.114263  0  1.041589  0  0  0.118977  0  1.038564  0  0  0.095669  0.110755  0  1.043984  0
H  H27  1  0.93026297  0.34579813  0.06450881  1  0  0.110219  0  0.969541  0  0  0.114305  0  1.041523  0  0  0.119024  0  1.038499  0  0  0.095676  0.110791  0  1.043937  0
H  H28  1  0.42206391  0.42947455  0.62795770  1  0  0.103132  0  0.979631  0  0  0.108245  0  1.05156  0  0  0.112634  0  1.048165  0  0  0.093478  0.104834  0  1.054482  0
H  H29  1  0.92205121  0.07052743  0.37204281  1  0  0.103119  0  0.979667  0  0  0.108229  0  1.051618  0  0  0.112618  0  1.048228  0  0  0.09349  0.104818  0  1.054542  0
H  H30  1  0.57793883  0.57052334  0.12795761  1  0  0.103073  0  0.979623  0  0  0.108192  0  1.05157  0  0  0.112579  0  1.048176  0  0  0.09347  0.10478  0  1.054488  0
H  H31  1  0.07794311  0.92947545  0.87204184  1  0  0.103095  0  0.979666  0  0  0.108212  0  1.051594  0  0  0.112604  0  1.048202  0  0  0.093468  0.104802  0  1.054519  0
H  H32  1  0.57793984  0.57052518  0.37204428  1  0  0.103137  0  0.979637  0  0  0.108235  0  1.051599  0  0  0.112625  0  1.048206  0  0  0.093481  0.104824  0  1.05452  0
H  H33  1  0.07794956  0.92947295  0.62795746  1  0  0.103166  0  0.979606  0  0  0.10826  0  1.051572  0  0  0.112653  0  1.048174  0  0  0.093483  0.10485  0  1.054499  0
H  H34  1  0.42204703  0.42947310  0.87204323  1  0  0.103131  0  0.979653  0  0  0.108252  0  1.051575  0  0  0.112642  0  1.048185  0  0  0.093507  0.104841  0  1.054498  0
H  H35  1  0.92205765  0.07052494  0.12795729  1  0  0.103112  0  0.979688  0  0  0.108216  0  1.051637  0  0  0.112607  0  1.048245  0  0  0.093465  0.104806  0  1.054561  0
H  H36  1  0.35681809  0.46400397  0.49179346  1  0  0.072171  0  0.982381  0  0  0.079564  0  1.050555  0  0  0.08254  0  1.047793  0  0  0.098322  0.077254  0  1.052795  0
H  H37  1  0.85681215  0.03600057  0.50820880  1  0  0.072151  0  0.982406  0  0  0.079609  0  1.050474  0  0  0.082593  0  1.047719  0  0  0.098309  0.077301  0  1.052713  0
H  H38  1  0.64318321  0.53599548  0.99179266  1  0  0.072193  0  0.982373  0  0  0.079571  0  1.05055  0  0  0.082541  0  1.047787  0  0  0.098323  0.077262  0  1.052789  0
H  H39  1  0.14318808  0.96400337  0.00820676  1  0  0.072133  0  0.982444  0  0  0.079568  0  1.050553  0  0  0.082544  0  1.047792  0  0  0.098315  0.077257  0  1.05279  0
H  H40  1  0.64318715  0.53600035  0.50820853  1  0  0.072183  0  0.982444  0  0  0.079631  0  1.050517  0  0  0.08261  0  1.047756  0  0  0.098336  0.077325  0  1.052756  0
H  H41  1  0.14318713  0.96400113  0.49179261  1  0  0.072162  0  0.98243  0  0  0.079588  0  1.050544  0  0  0.082564  0  1.047784  0  0  0.098333  0.07728  0  1.052782  0
H  H42  1  0.35680564  0.46399834  0.00820876  1  0  0.072101  0  0.982498  0  0  0.079569  0  1.050561  0  0  0.082552  0  1.047802  0  0  0.098284  0.07726  0  1.052797  0
H  H43  1  0.85681119  0.03599833  0.99179294  1  0  0.072144  0  0.982444  0  0  0.079583  0  1.050545  0  0  0.082562  0  1.047785  0  0  0.098304  0.077272  0  1.052783  0
H  H44  1  0.17961643  0.38063735  0.70268463  1  0  0.267387  0  0.9665  0  0  0.254419  0  1.042245  0  0  0.260088  0  1.037143  0  0  0.273415  0.250246  0  1.045599  0
H  H45  1  0.67961318  0.11936310  0.29731485  1  0  0.267517  0  0.966459  0  0  0.254568  0  1.042139  0  0  0.260236  0  1.037037  0  0  0.273469  0.250391  0  1.045497  0
H  H46  1  0.82038750  0.61936349  0.20268459  1  0  0.267508  0  0.966458  0  0  0.254557  0  1.042144  0  0  0.260227  0  1.037041  0  0  0.273463  0.250382  0  1.045498  0
H  H47  1  0.32038888  0.88063683  0.79731475  1  0  0.267388  0  0.966517  0  0  0.254421  0  1.042248  0  0  0.260092  0  1.037144  0  0  0.273414  0.250248  0  1.045604  0
H  H48  1  0.82038135  0.61936172  0.29731449  1  0  0.267526  0  0.966439  0  0  0.254571  0  1.042132  0  0  0.260241  0  1.037031  0  0  0.273466  0.250399  0  1.045482  0
H  H49  1  0.32039056  0.88063532  0.70268485  1  0  0.26739  0  0.966525  0  0  0.254428  0  1.042245  0  0  0.260098  0  1.037142  0  0  0.273423  0.250254  0  1.045601  0
H  H50  1  0.17961177  0.38063558  0.79731453  1  0  0.267407  0  0.966495  0  0  0.254449  0  1.04221  0  0  0.260118  0  1.037107  0  0  0.27343  0.250274  0  1.045564  0
H  H51  1  0.67961337  0.11936486  0.20268552  1  0  0.267409  0  0.966519  0  0  0.254452  0  1.042233  0  0  0.26012  0  1.037133  0  0  0.273438  0.250281  0  1.045587  0
C  C52  1  0.47331038  0.26518062  0.68712706  1  0  0.236588  0  3.679691  0  0  0.193818  0  3.945449  0  0  0.214804  0  3.958093  0  0  0.223925  0.185079  0  3.938397  0
C  C53  1  0.97331355  0.23481877  0.31287287  1  0  0.236695  0  3.679663  0  0  0.193876  0  3.945545  0  0  0.214868  0  3.958183  0  0  0.223951  0.185136  0  3.938491  0
C  C54  1  0.52668318  0.73481686  0.18712867  1  0  0.23646  0  3.679932  0  0  0.193871  0  3.945466  0  0  0.214833  0  3.958112  0  0  0.22399  0.185128  0  3.938406  0
C  C55  1  0.02669144  0.76518057  0.81287138  1  0  0.236492  0  3.679862  0  0  0.193878  0  3.945423  0  0  0.214854  0  3.958075  0  0  0.22391  0.185143  0  3.938367  0
C  C56  1  0.52668293  0.73481845  0.31287093  1  0  0.236606  0  3.679768  0  0  0.19389  0  3.945503  0  0  0.214853  0  3.958151  0  0  0.224014  0.185149  0  3.938432  0
C  C57  1  0.02669019  0.76518161  0.68712740  1  0  0.236563  0  3.679749  0  0  0.193862  0  3.945439  0  0  0.214849  0  3.958083  0  0  0.223918  0.185125  0  3.938379  0
C  C58  1  0.47331162  0.26518089  0.81287217  1  0  0.236691  0  3.679681  0  0  0.193915  0  3.945501  0  0  0.214903  0  3.958143  0  0  0.22395  0.18518  0  3.938425  0
C  C59  1  0.97331380  0.23481916  0.18712889  1  0  0.236495  0  3.679862  0  0  0.193865  0  3.945448  0  0  0.214849  0  3.958095  0  0  0.223939  0.185131  0  3.938379  0
C  C60  1  0.39487915  0.25011532  0.47521913  1  0  0.121039  0  3.671295  0  0  0.091848  0  3.921115  0  0  0.097315  0  3.937715  0  0  0.033011  0.088033  0  3.910936  0
C  C61  1  0.89487708  0.24988925  0.52477911  1  0  0.120981  0  3.671366  0  0  0.091844  0  3.921134  0  0  0.097308  0  3.937731  0  0  0.033091  0.088061  0  3.910909  0
C  C62  1  0.60511923  0.74988209  0.97521962  1  0  0.121038  0  3.671382  0  0  0.091882  0  3.921237  0  0  0.097345  0  3.937841  0  0  0.033012  0.088067  0  3.911058  0
C  C63  1  0.10511713  0.75011672  0.02477982  1  0  0.120989  0  3.671385  0  0  0.091813  0  3.921213  0  0  0.097278  0  3.937816  0  0  0.033026  0.088003  0  3.911017  0
C  C64  1  0.60512310  0.74988506  0.52478057  1  0  0.121011  0  3.671381  0  0  0.091829  0  3.921235  0  0  0.097294  0  3.937836  0  0  0.033039  0.088016  0  3.911043  0
C  C65  1  0.10512369  0.75011244  0.47521944  1  0  0.12095  0  3.671352  0  0  0.09177  0  3.921147  0  0  0.097236  0  3.937742  0  0  0.033074  0.087964  0  3.910942  0
C  C66  1  0.39487855  0.25011370  0.02477951  1  0  0.120997  0  3.671556  0  0  0.091824  0  3.921375  0  0  0.09729  0  3.937973  0  0  0.033059  0.088012  0  3.911175  0
C  C67  1  0.89487469  0.24988432  0.97521931  1  0  0.121042  0  3.671302  0  0  0.091861  0  3.921125  0  0  0.097326  0  3.937727  0  0  0.033031  0.088061  0  3.910907  0
C  C68  1  0.41895167  0.22379934  0.55063219  1  0  -0.123729  0  3.682811  0  0  -0.143345  0  3.930367  0  0  -0.148292  0  3.948118  0  0  -0.0808  -0.1406  0  3.919819  0
C  C69  1  0.91895449  0.27620526  0.44936947  1  0  -0.123654  0  3.682768  0  0  -0.143267  0  3.930332  0  0  -0.148191  0  3.948078  0  0  -0.080766  -0.140518  0  3.919788  0
C  C70  1  0.58104690  0.77620216  0.05063105  1  0  -0.123745  0  3.682588  0  0  -0.143356  0  3.930145  0  0  -0.148299  0  3.947896  0  0  -0.080755  -0.140605  0  3.919588  0
C  C71  1  0.08104847  0.72379795  0.94936725  1  0  -0.123765  0  3.682669  0  0  -0.143353  0  3.930226  0  0  -0.148294  0  3.947978  0  0  -0.080777  -0.140602  0  3.919667  0
C  C72  1  0.58104611  0.77620236  0.44936579  1  0  -0.123688  0  3.682679  0  0  -0.143328  0  3.930262  0  0  -0.148271  0  3.948019  0  0  -0.080794  -0.140576  0  3.919685  0
C  C73  1  0.08104330  0.72379906  0.55063308  1  0  -0.123637  0  3.682757  0  0  -0.143249  0  3.930355  0  0  -0.14818  0  3.948101  0  0  -0.080803  -0.140502  0  3.919791  0
C  C74  1  0.41895834  0.22379429  0.94936750  1  0  -0.123655  0  3.682467  0  0  -0.143262  0  3.930067  0  0  -0.148196  0  3.94781  0  0  -0.080764  -0.140515  0  3.919505  0
C  C75  1  0.91895528  0.27620309  0.05063359  1  0  -0.123781  0  3.682547  0  0  -0.143392  0  3.930147  0  0  -0.14834  0  3.947905  0  0  -0.080775  -0.140638  0  3.919569  0
C  C76  1  0.42980023  0.28798764  0.60803623  1  0  0.050027  0  3.777748  0  0  0.063701  0  4.014305  0  0  0.067274  0  4.030702  0  0  0.005959  0.060753  0  4.003343  0
C  C77  1  0.92979404  0.21201500  0.39196257  1  0  0.050001  0  3.777536  0  0  0.063634  0  4.01422  0  0  0.067188  0  4.030628  0  0  0.005928  0.060681  0  4.003265  0
C  C78  1  0.57019961  0.71200819  0.10803718  1  0  0.050005  0  3.777752  0  0  0.06365  0  4.014278  0  0  0.067225  0  4.030674  0  0  0.005858  0.060706  0  4.003307  0
C  C79  1  0.07020467  0.78798928  0.89196171  1  0  0.050085  0  3.777695  0  0  0.063697  0  4.014256  0  0  0.067267  0  4.030656  0  0  0.005945  0.060748  0  4.003291  0
C  C80  1  0.57020500  0.71201208  0.39196290  1  0  0.049918  0  3.777842  0  0  0.063631  0  4.014337  0  0  0.067207  0  4.030729  0  0  0.005891  0.060684  0  4.003357  0
C  C81  1  0.07019778  0.78798539  0.60803656  1  0  0.04994  0  3.777753  0  0  0.063544  0  4.014399  0  0  0.067092  0  4.030813  0  0  0.005933  0.060598  0  4.003433  0
C  C82  1  0.42979222  0.28798825  0.89196195  1  0  0.050022  0  3.777506  0  0  0.063623  0  4.014203  0  0  0.067191  0  4.030604  0  0  0.00589  0.060671  0  4.003225  0
C  C83  1  0.92980057  0.21201045  0.10803799  1  0  0.050045  0  3.777791  0  0  0.063668  0  4.014344  0  0  0.06724  0  4.030741  0  0  0.005892  0.060719  0  4.003374  0
C  C84  1  0.40948649  0.37621410  0.58652784  1  0  -0.147784  0  3.736042  0  0  -0.165189  0  3.980691  0  0  -0.169829  0  3.997998  0  0  -0.089176  -0.162635  0  3.970251  0
C  C85  1  0.90947834  0.12379049  0.41347611  1  0  -0.147793  0  3.736257  0  0  -0.165222  0  3.980973  0  0  -0.169857  0  3.998285  0  0  -0.089128  -0.162667  0  3.97054  0
C  C86  1  0.59051492  0.62378755  0.08652677  1  0  -0.147657  0  3.736274  0  0  -0.165105  0  3.980947  0  0  -0.169745  0  3.998252  0  0  -0.089116  -0.162549  0  3.970498  0
C  C87  1  0.09051880  0.87621125  0.91347267  1  0  -0.147744  0  3.736225  0  0  -0.165164  0  3.980906  0  0  -0.169809  0  3.99822  0  0  -0.089145  -0.162611  0  3.970463  0
C  C88  1  0.59051874  0.62379022  0.41347243  1  0  -0.147724  0  3.736129  0  0  -0.165145  0  3.980768  0  0  -0.169791  0  3.998081  0  0  -0.089127  -0.162592  0  3.970324  0
C  C89  1  0.09052243  0.87621317  0.58652645  1  0  -0.147791  0  3.736003  0  0  -0.165194  0  3.980697  0  0  -0.169826  0  3.998004  0  0  -0.089155  -0.162649  0  3.970262  0
C  C90  1  0.40947392  0.37620758  0.91347407  1  0  -0.147842  0  3.736202  0  0  -0.165248  0  3.980922  0  0  -0.169892  0  3.998237  0  0  -0.089138  -0.162696  0  3.970471  0
C  C91  1  0.90948197  0.12378979  0.08652874  1  0  -0.147763  0  3.736283  0  0  -0.165173  0  3.980942  0  0  -0.169817  0  3.998256  0  0  -0.089134  -0.162622  0  3.9705  0
C  C92  1  0.37984438  0.39644667  0.51007354  1  0  0.127406  0  3.688816  0  0  0.098139  0  3.934028  0  0  0.105026  0  3.948328  0  0  0.032468  0.093289  0  3.92538  0
C  C93  1  0.87984180  0.10355789  0.48992528  1  0  0.12746  0  3.688769  0  0  0.098212  0  3.933986  0  0  0.105081  0  3.948295  0  0  0.032423  0.093352  0  3.925353  0
C  C94  1  0.62015733  0.60355137  0.01007354  1  0  0.127296  0  3.688595  0  0  0.098093  0  3.933814  0  0  0.104989  0  3.948102  0  0  0.032447  0.093239  0  3.925165  0
C  C95  1  0.12015951  0.89644746  0.98992646  1  0  0.127388  0  3.688652  0  0  0.098132  0  3.933877  0  0  0.105018  0  3.948174  0  0  0.032441  0.093278  0  3.925224  0
C  C96  1  0.62015936  0.60355634  0.48992844  1  0  0.127301  0  3.688725  0  0  0.098047  0  3.933962  0  0  0.104928  0  3.948264  0  0  0.032389  0.093187  0  3.925318  0
C  C97  1  0.12015897  0.89644380  0.51007213  1  0  0.127364  0  3.688856  0  0  0.098109  0  3.934077  0  0  0.104992  0  3.948373  0  0  0.032366  0.093254  0  3.925428  0
C  C98  1  0.37983747  0.39644442  0.98992730  1  0  0.12749  0  3.688512  0  0  0.098227  0  3.933758  0  0  0.105102  0  3.948067  0  0  0.032448  0.09337  0  3.925103  0
C  C99  1  0.87984424  0.10355292  0.01007266  1  0  0.127428  0  3.68859  0  0  0.098179  0  3.93379  0  0  0.105061  0  3.948091  0  0  0.032475  0.093323  0  3.92514  0
I  I100  1  0.08964847  0.08884110  0.75000170  1  0  -0.351741  0  1.652782  0  0  -0.300465  0  2.108938  0  0  -0.318426  0  2.066531  0  0  -0.17895  -0.287558  0  2.136589  0
I  I101  1  0.58964821  0.41115927  0.25000011  1  0  -0.351702  0  1.652777  0  0  -0.300437  0  2.108925  0  0  -0.318387  0  2.066505  0  0  -0.178934  -0.287529  0  2.136551  0
I  I102  1  0.91035229  0.91115863  0.25000029  1  0  -0.351698  0  1.652781  0  0  -0.300424  0  2.108934  0  0  -0.318376  0  2.066519  0  0  -0.178932  -0.287517  0  2.136562  0
I  I103  1  0.41035405  0.58884046  0.74999844  1  0  -0.351706  0  1.652819  0  0  -0.300432  0  2.10897  0  0  -0.318385  0  2.066554  0  0  -0.178935  -0.287522  0  2.136623  0
I  I104  1  0.58407170  0.97804661  0.62288734  1  0  -0.421351  0  1.486691  0  0  -0.359815  0  1.88825  0  0  -0.38276  0  1.854712  0  0  -0.198447  -0.34283  0  1.910579  0
I  I105  1  0.08407017  0.52195416  0.37711325  1  0  -0.421346  0  1.486716  0  0  -0.359802  0  1.888268  0  0  -0.382739  0  1.854714  0  0  -0.198439  -0.342824  0  1.910572  0
I  I106  1  0.41593404  0.02195126  0.12288839  1  0  -0.421329  0  1.486695  0  0  -0.359811  0  1.888268  0  0  -0.382748  0  1.854719  0  0  -0.198442  -0.342825  0  1.910583  0
I  I107  1  0.91592860  0.47804546  0.87711271  1  0  -0.421348  0  1.486665  0  0  -0.359798  0  1.888211  0  0  -0.382734  0  1.854658  0  0  -0.198439  -0.342814  0  1.910525  0
I  I108  1  0.41592906  0.02195378  0.37711293  1  0  -0.42135  0  1.486664  0  0  -0.359812  0  1.888211  0  0  -0.38275  0  1.854661  0  0  -0.198451  -0.342832  0  1.910515  0
I  I109  1  0.91593507  0.47804885  0.62288816  1  0  -0.421338  0  1.486724  0  0  -0.359803  0  1.888289  0  0  -0.382745  0  1.854742  0  0  -0.198435  -0.342821  0  1.910605  0
I  I110  1  0.58407120  0.97804584  0.87711360  1  0  -0.42136  0  1.48671  0  0  -0.359805  0  1.888233  0  0  -0.382746  0  1.854688  0  0  -0.198449  -0.342821  0  1.910537  0
I  I111  1  0.08407067  0.52195427  0.12288642  1  0  -0.421354  0  1.48667  0  0  -0.359817  0  1.888195  0  0  -0.382757  0  1.854646  0  0  -0.198444  -0.342836  0  1.910496  0
N  N112  1  0.61721453  0.21073586  0.71095924  1  0  -0.220821  0  3.255754  0  0  -0.175181  0  3.576362  0  0  -0.180621  0  3.574568  0  0  -0.266723  -0.172655  0  3.576855  0
N  N113  1  0.11721454  0.28926387  0.28904085  1  0  -0.220824  0  3.255663  0  0  -0.175164  0  3.576303  0  0  -0.180606  0  3.574509  0  0  -0.266711  -0.172628  0  3.576753  0
N  N114  1  0.38278489  0.78926239  0.21095937  1  0  -0.220808  0  3.255831  0  0  -0.175188  0  3.576389  0  0  -0.180631  0  3.574609  0  0  -0.266716  -0.172656  0  3.576841  0
N  N115  1  0.88278756  0.71073471  0.78903994  1  0  -0.220854  0  3.255866  0  0  -0.175251  0  3.5764  0  0  -0.18069  0  3.574607  0  0  -0.266735  -0.172718  0  3.576883  0
N  N116  1  0.38278325  0.78926387  0.28904103  1  0  -0.220802  0  3.255784  0  0  -0.175229  0  3.576457  0  0  -0.180675  0  3.574677  0  0  -0.266746  -0.172697  0  3.5769  0
N  N117  1  0.88278771  0.71073454  0.71095942  1  0  -0.220778  0  3.255758  0  0  -0.175112  0  3.576287  0  0  -0.180554  0  3.574497  0  0  -0.266671  -0.172577  0  3.576752  0
N  N118  1  0.61721438  0.21073603  0.78904032  1  0  -0.220869  0  3.255759  0  0  -0.175206  0  3.576354  0  0  -0.180647  0  3.574558  0  0  -0.26673  -0.172671  0  3.576796  0
N  N119  1  0.11721470  0.28926567  0.21095976  1  0  -0.2208  0  3.255776  0  0  -0.175202  0  3.576357  0  0  -0.180647  0  3.57457  0  0  -0.266717  -0.172667  0  3.576804  0
N  N120  1  0.38182591  0.30070009  0.75000084  1  0  0.024932  0  3.5384  0  0  0.126637  0  3.733741  0  0  0.092371  0  3.78389  0  0  -0.129652  0.133011  0  3.71958  0
N  N121  1  0.88182619  0.19929988  0.25000141  1  0  0.024951  0  3.538447  0  0  0.126618  0  3.733793  0  0  0.092361  0  3.783923  0  0  -0.129682  0.132994  0  3.719633  0
N  N122  1  0.61817336  0.69929898  0.25000058  1  0  0.025096  0  3.538483  0  0  0.126671  0  3.733876  0  0  0.092468  0  3.783964  0  0  -0.129728  0.133044  0  3.71971  0
N  N123  1  0.11817458  0.80070050  0.75000000  1  0  0.025048  0  3.538443  0  0  0.126662  0  3.733753  0  0  0.092411  0  3.783892  0  0  -0.129641  0.13304  0  3.7196  0
N  N124  1  0.19516397  0.34118126  0.74999980  1  0  -0.484652  0  2.940608  0  0  -0.498476  0  3.171983  0  0  -0.502545  0  3.17881  0  0  -0.491165  -0.489421  0  3.171316  0
N  N125  1  0.69516406  0.15881920  0.25000082  1  0  -0.484795  0  2.940683  0  0  -0.498622  0  3.172065  0  0  -0.502693  0  3.178887  0  0  -0.49122  -0.489567  0  3.171402  0
N  N126  1  0.80483233  0.65881781  0.24999990  1  0  -0.484969  0  2.940779  0  0  -0.498781  0  3.172185  0  0  -0.502878  0  3.179001  0  0  -0.491246  -0.489726  0  3.171517  0
N  N127  1  0.30483968  0.84118118  0.75000002  1  0  -0.484666  0  2.940627  0  0  -0.498486  0  3.172016  0  0  -0.502563  0  3.17884  0  0  -0.491175  -0.489432  0  3.171355  0
N  N128  1  0.37416598  0.33525676  0.45434085  1  0  -0.273355  0  3.370626  0  0  -0.197249  0  3.661125  0  0  -0.206798  0  3.667453  0  0  -0.365158  -0.191894  0  3.65723  0
N  N129  1  0.87416345  0.16474845  0.54566026  1  0  -0.273337  0  3.370462  0  0  -0.197336  0  3.661035  0  0  -0.206884  0  3.667367  0  0  -0.365186  -0.191989  0  3.657191  0
N  N130  1  0.62583546  0.66474450  0.95433934  1  0  -0.273267  0  3.370536  0  0  -0.19725  0  3.661093  0  0  -0.206799  0  3.667418  0  0  -0.365174  -0.191896  0  3.65722  0
N  N131  1  0.12583664  0.83525433  0.04566009  1  0  -0.27327  0  3.370521  0  0  -0.197229  0  3.661086  0  0  -0.206777  0  3.667414  0  0  -0.365156  -0.19187  0  3.657185  0
N  N132  1  0.62583627  0.66474756  0.54565999  1  0  -0.273185  0  3.370651  0  0  -0.197163  0  3.661217  0  0  -0.206713  0  3.66755  0  0  -0.365142  -0.191812  0  3.657334  0
N  N133  1  0.12582987  0.83525521  0.45434001  1  0  -0.273275  0  3.370629  0  0  -0.1972  0  3.661122  0  0  -0.206748  0  3.667452  0  0  -0.365129  -0.191847  0  3.657214  0
N  N134  1  0.37416530  0.33524866  0.04566150  1  0  -0.273203  0  3.370516  0  0  -0.197203  0  3.661119  0  0  -0.20675  0  3.667449  0  0  -0.36516  -0.191851  0  3.657218  0
N  N135  1  0.87416562  0.16474671  0.95434018  1  0  -0.273274  0  3.370553  0  0  -0.197244  0  3.661122  0  0  -0.206793  0  3.667456  0  0  -0.365146  -0.191892  0  3.657212  0
