# generated using pymatgen
data_CuH12C14N2O5
_symmetry_space_group_name_H-M   'P 1'
_cell_length_a   8.59864719
_cell_length_b   8.59864936
_cell_length_c   43.63387080
_cell_angle_alpha   90.00020256
_cell_angle_beta   90.00021455
_cell_angle_gamma   89.99992674
_symmetry_Int_Tables_number   1
_chemical_formula_structural   CuH12C14N2O5
_chemical_formula_sum   'Cu8 H96 C112 N16 O40'
_cell_volume   3226.14668977
_cell_formula_units_Z   8
loop_
 _symmetry_equiv_pos_site_id
 _symmetry_equiv_pos_as_xyz
  1  'x, y, z'
loop_
 _atom_site_type_symbol
 _atom_site_label
 _atom_site_symmetry_multiplicity
 _atom_site_fract_x
 _atom_site_fract_y
 _atom_site_fract_z
 _atom_site_occupancy
 _atom_site_pbe_bader_charge
 _atom_site_pbe_bader_spin_density
 _atom_site_pbe_cm5_charge
 _atom_site_pbe_ddec_charge
 _atom_site_pbe_ddec_spin_density
 _atom_site_pbe_ddec_sum_bond_order
 _atom_site_pbe_magmom
Cu  Cu0  1  0.51328272  0.84447428  0.14303272  1  1.076505  0.568137  0.751604  0.793259  0.72939  2.236022  0.567
Cu  Cu1  1  0.48671861  0.15552755  0.64303257  1  1.076509  0.568129  0.751638  0.793183  0.729379  2.236059  0.567
Cu  Cu2  1  0.65552553  0.01328060  0.89303264  1  1.07649  0.56813  0.751616  0.793143  0.72938  2.236154  0.567
Cu  Cu3  1  0.34447473  0.98671524  0.39303253  1  1.076405  0.568129  0.751619  0.793219  0.729384  2.236056  0.567
Cu  Cu4  1  0.98672006  0.34447402  0.60696749  1  1.076507  0.568129  0.751613  0.793146  0.729378  2.236125  0.567
Cu  Cu5  1  0.01328408  0.65552599  0.10696714  1  1.07649  0.568133  0.751578  0.793185  0.729386  2.236144  0.567
Cu  Cu6  1  0.84447553  0.51328077  0.85696732  1  1.076513  0.568132  0.751613  0.793216  0.72938  2.236063  0.567
Cu  Cu7  1  0.15552289  0.48671791  0.35696764  1  1.076384  0.568128  0.751606  0.79321  0.729379  2.236097  0.567
H  H8  1  0.51383175  0.34293484  0.12011823  1  0.074461  0.00021  0.112089  0.080944  0.000112  0.968628  0.0
H  H9  1  0.48617264  0.65706890  0.62011958  1  0.074416  0.00021  0.112095  0.081014  0.000112  0.968642  0.0
H  H10  1  0.15706784  0.01382847  0.87011883  1  0.074429  0.00021  0.112107  0.081007  0.000112  0.968653  0.0
H  H11  1  0.84293315  0.98617394  0.37011932  1  0.074394  0.00021  0.112098  0.081033  0.000112  0.968615  0.0
H  H12  1  0.98616987  0.84293158  0.62988083  1  0.074435  0.00021  0.112127  0.081021  0.000112  0.968669  0.0
H  H13  1  0.01383238  0.15706652  0.12987967  1  0.074486  0.00021  0.112128  0.081065  0.000112  0.968706  0.0
H  H14  1  0.34293173  0.51382906  0.87988030  1  0.074441  0.00021  0.112111  0.081042  0.000112  0.968642  0.0
H  H15  1  0.65706363  0.48617120  0.37988213  1  0.074421  0.00021  0.112116  0.081013  0.000112  0.968632  0.0
H  H16  1  0.83981312  0.35386762  0.10669484  1  0.647017  -2.6e-05  0.290009  0.337268  0.00013  1.003715  0.0
H  H17  1  0.16019101  0.64613355  0.60669549  1  0.647003  -2.6e-05  0.290046  0.337301  0.00013  1.003697  0.0
H  H18  1  0.14613206  0.33981211  0.85669566  1  0.646984  -2.6e-05  0.290027  0.337286  0.000129  1.003689  0.0
H  H19  1  0.85386402  0.66019238  0.35669546  1  0.64702  -2.6e-05  0.290064  0.337348  0.000129  1.003629  0.0
H  H20  1  0.66018964  0.85386851  0.64330446  1  0.646991  -2.6e-05  0.290034  0.33729  0.000129  1.003684  0.0
H  H21  1  0.33981402  0.14613332  0.14330422  1  0.647004  -2.6e-05  0.290017  0.337246  0.00013  1.003751  0.0
H  H22  1  0.35386709  0.83981060  0.89330462  1  0.646994  -2.6e-05  0.290044  0.337321  0.000129  1.003658  0.0
H  H23  1  0.64613201  0.16018990  0.39330530  1  0.64704  -2.6e-05  0.290026  0.337331  0.00013  1.003665  0.0
H  H24  1  0.78866611  0.33681434  0.16547232  1  0.052426  0.00241  0.098701  0.124724  0.001134  0.976464  0.001
H  H25  1  0.21133681  0.66319138  0.66547301  1  0.05247  0.00241  0.098703  0.124733  0.001134  0.976432  0.001
H  H26  1  0.16318999  0.28866622  0.91547223  1  0.052427  0.00241  0.09871  0.124717  0.001134  0.97645  0.001
H  H27  1  0.83681186  0.71133932  0.41547252  1  0.052478  0.00241  0.098736  0.124756  0.001134  0.976413  0.001
H  H28  1  0.71133435  0.83680946  0.58452743  1  0.052431  0.00241  0.098708  0.124756  0.001134  0.976451  0.001
H  H29  1  0.28866936  0.16318899  0.08452670  1  0.05238  0.00241  0.098686  0.124721  0.001134  0.976468  0.001
H  H30  1  0.33680923  0.78866717  0.83452755  1  0.052426  0.00241  0.098725  0.124731  0.001134  0.97648  0.001
H  H31  1  0.66318527  0.21133809  0.33452783  1  0.052451  0.00241  0.098711  0.124716  0.001134  0.976481  0.001
H  H32  1  0.58700075  0.34898740  0.17509345  1  0.045867  2.6e-05  0.099636  0.122564  -7.3e-05  0.979546  0.0
H  H33  1  0.41300351  0.65101849  0.67509497  1  0.04578  2.6e-05  0.099657  0.122636  -7.3e-05  0.979513  0.0
H  H34  1  0.15101504  0.08700093  0.92509450  1  0.045824  2.6e-05  0.09963  0.122583  -7.3e-05  0.979528  0.0
H  H35  1  0.84898584  0.91300363  0.42509494  1  0.045844  2.6e-05  0.099639  0.122605  -7.3e-05  0.979545  0.0
H  H36  1  0.91299853  0.84898674  0.57490516  1  0.045809  2.6e-05  0.099623  0.122575  -7.3e-05  0.979504  0.0
H  H37  1  0.08700500  0.15101387  0.07490451  1  0.045776  2.6e-05  0.099657  0.122619  -7.3e-05  0.979603  0.0
H  H38  1  0.34898328  0.58700285  0.82490492  1  0.045792  2.6e-05  0.09963  0.122571  -7.3e-05  0.979543  0.0
H  H39  1  0.65101104  0.41300340  0.32490692  1  0.045829  2.6e-05  0.09961  0.122543  -7.3e-05  0.979531  0.0
H  H40  1  0.27618175  0.98578651  0.18194259  1  0.17496  0.002  0.122964  0.100752  0.000914  1.031338  0.002
H  H41  1  0.72382148  0.01422183  0.68194252  1  0.174703  0.002001  0.122994  0.100739  0.000914  1.031377  0.002
H  H42  1  0.51422063  0.77617876  0.93194230  1  0.174676  0.002001  0.123013  0.100733  0.000914  1.031391  0.002
H  H43  1  0.48577456  0.22381894  0.43194245  1  0.174734  0.002  0.123025  0.100806  0.000914  1.031314  0.002
H  H44  1  0.22381819  0.48577891  0.56805758  1  0.174715  0.002001  0.12302  0.100774  0.000914  1.031365  0.002
H  H45  1  0.77618404  0.51421692  0.06805769  1  0.174953  0.002  0.122994  0.100742  0.000914  1.031392  0.002
H  H46  1  0.98578475  0.27618147  0.81805715  1  0.174685  0.002001  0.122993  0.100747  0.000914  1.031399  0.002
H  H47  1  0.01421293  0.72381652  0.31805730  1  0.17468  0.002001  0.122962  0.100683  0.000914  1.031383  0.002
H  H48  1  0.22309199  0.01484850  0.23733590  1  0.065546  0.001185  0.111589  0.117823  0.000621  0.998802  0.001
H  H49  1  0.77691346  0.98515269  0.73733563  1  0.065477  0.001185  0.111587  0.117816  0.000622  0.998798  0.001
H  H50  1  0.48514917  0.72308721  0.98733525  1  0.065538  0.001185  0.11162  0.117868  0.000622  0.998718  0.001
H  H51  1  0.51484241  0.27691264  0.48733569  1  0.065683  0.001185  0.111604  0.117873  0.000622  0.998788  0.001
H  H52  1  0.27690972  0.51484806  0.51266463  1  0.065591  0.001185  0.111598  0.117816  0.000622  0.998805  0.001
H  H53  1  0.72309146  0.48514561  0.01266422  1  0.065573  0.001185  0.111614  0.117844  0.000622  0.998724  0.001
H  H54  1  0.01485362  0.22308953  0.76266403  1  0.065551  0.001185  0.111607  0.117857  0.000622  0.998739  0.001
H  H55  1  0.98514766  0.77690979  0.26266424  1  0.06557  0.001185  0.111608  0.117844  0.000622  0.998738  0.001
H  H56  1  0.62100546  0.71829609  0.25456740  1  0.071534  0.001264  0.109305  0.114481  0.000667  1.006745  0.001
H  H57  1  0.37899567  0.28170076  0.75456772  1  0.071513  0.001264  0.109362  0.11456  0.000667  1.006784  0.001
H  H58  1  0.78169851  0.12100227  0.00456788  1  0.071552  0.001264  0.109342  0.114537  0.000667  1.006759  0.001
H  H59  1  0.21829670  0.87899243  0.50456759  1  0.071514  0.001264  0.109397  0.114592  0.000667  1.006677  0.001
H  H60  1  0.87899399  0.21829979  0.49543204  1  0.071504  0.001264  0.109374  0.114557  0.000667  1.006758  0.001
H  H61  1  0.12100240  0.78170487  0.99543229  1  0.071521  0.001264  0.109329  0.114495  0.000667  1.006756  0.001
H  H62  1  0.71829525  0.62100375  0.74543240  1  0.07153  0.001264  0.109334  0.114531  0.000667  1.006719  0.001
H  H63  1  0.28170570  0.37899642  0.24543319  1  0.07154  0.001264  0.109333  0.114544  0.000667  1.006759  0.001
H  H64  1  0.64867208  0.69233567  0.19815159  1  0.126549  0.002104  0.120359  0.086855  0.000898  1.009202  0.001
H  H65  1  0.35132913  0.30766133  0.69815237  1  0.126571  0.002104  0.120348  0.086873  0.000897  1.00925  0.001
H  H66  1  0.80766386  0.14866970  0.94815208  1  0.126812  0.002103  0.120367  0.086877  0.000897  1.009246  0.001
H  H67  1  0.19233513  0.85132829  0.44815199  1  0.12677  0.002104  0.120358  0.08688  0.000897  1.009233  0.001
H  H68  1  0.85132740  0.19233461  0.55184782  1  0.126546  0.002104  0.120371  0.086908  0.000897  1.009199  0.001
H  H69  1  0.14866987  0.80766442  0.05184767  1  0.12676  0.002103  0.12035  0.086862  0.000897  1.00931  0.001
H  H70  1  0.69233703  0.64866676  0.80184798  1  0.126786  0.002102  0.120314  0.086813  0.000897  1.009363  0.001
H  H71  1  0.30765917  0.35132978  0.30184900  1  0.126525  0.002102  0.120341  0.086803  0.000897  1.0093  0.001
H  H72  1  0.51469780  0.75767068  0.35456767  1  0.170708  0.002392  0.124462  0.100984  0.001186  1.017632  0.002
H  H73  1  0.48530406  0.24231866  0.85456758  1  0.170729  0.002392  0.124406  0.100802  0.001187  1.017773  0.002
H  H74  1  0.74232357  0.01469230  0.10456744  1  0.170738  0.002393  0.124427  0.100832  0.001187  1.01778  0.002
H  H75  1  0.25767587  0.98530651  0.60456725  1  0.170713  0.002392  0.12442  0.100862  0.001186  1.01777  0.002
H  H76  1  0.98530974  0.25767710  0.39543225  1  0.170735  0.002393  0.12443  0.100823  0.001187  1.017784  0.002
H  H77  1  0.01469289  0.74232460  0.89543263  1  0.170717  0.002392  0.124422  0.100863  0.001186  1.017776  0.002
H  H78  1  0.75767498  0.51469427  0.64543208  1  0.170706  0.002393  0.124422  0.100815  0.001187  1.017791  0.002
H  H79  1  0.24232756  0.48530295  0.14543292  1  0.170664  0.002393  0.124429  0.100912  0.001187  1.01763  0.002
H  H80  1  0.55368833  0.70790886  0.29987690  1  0.078114  0.001225  0.110579  0.115756  0.000644  1.00222  0.001
H  H81  1  0.44631249  0.29208066  0.79987727  1  0.078183  0.001225  0.110559  0.115695  0.000644  1.002286  0.001
H  H82  1  0.79208318  0.05368512  0.04987693  1  0.078186  0.001225  0.110558  0.115685  0.000644  1.002271  0.001
H  H83  1  0.20791406  0.94631388  0.54987690  1  0.078174  0.001225  0.110586  0.115725  0.000644  1.002234  0.001
H  H84  1  0.94631462  0.20791631  0.45012253  1  0.078178  0.001225  0.110578  0.115739  0.000643  1.00225  0.001
H  H85  1  0.05368556  0.79208404  0.95012320  1  0.078206  0.001225  0.110564  0.115723  0.000644  1.002275  0.001
H  H86  1  0.70791532  0.55368696  0.70012285  1  0.078181  0.001225  0.110584  0.11575  0.000644  1.002222  0.001
H  H87  1  0.29209058  0.44631472  0.20012347  1  0.07825  0.001225  0.11058  0.11573  0.000644  1.002212  0.001
H  H88  1  0.23067960  0.08463427  0.28154172  1  0.079344  0.001245  0.106831  0.110403  0.000664  1.019785  0.001
H  H89  1  0.76932552  0.91536073  0.78154163  1  0.079233  0.001245  0.106802  0.110328  0.000664  1.019778  0.001
H  H90  1  0.41535703  0.73067872  0.03154150  1  0.078275  0.001247  0.106817  0.110304  0.000664  1.019759  0.001
H  H91  1  0.58463405  0.26932343  0.53154151  1  0.079302  0.001245  0.106813  0.110363  0.000664  1.019804  0.001
H  H92  1  0.26931853  0.58464119  0.46845886  1  0.078329  0.001246  0.106807  0.110322  0.000664  1.019766  0.001
H  H93  1  0.73067735  0.41536298  0.96845816  1  0.079272  0.001245  0.106807  0.110351  0.000664  1.019807  0.001
H  H94  1  0.08463859  0.23067517  0.71845826  1  0.07924  0.001245  0.106798  0.110336  0.000664  1.019788  0.001
H  H95  1  0.91536534  0.76932452  0.21845819  1  0.079307  0.001245  0.106817  0.110364  0.000664  1.019793  0.001
H  H96  1  0.20223726  0.11630023  0.33733805  1  0.164863  0.002149  0.121507  0.104032  0.00088  1.030518  0.002
H  H97  1  0.79776543  0.88369113  0.83733773  1  0.164822  0.002149  0.121518  0.104108  0.00088  1.030391  0.002
H  H98  1  0.38368981  0.70223873  0.08733758  1  0.164863  0.002149  0.121513  0.104096  0.00088  1.030441  0.002
H  H99  1  0.61630465  0.29776442  0.58733763  1  0.164803  0.00215  0.121518  0.104105  0.00088  1.030434  0.002
H  H100  1  0.29776199  0.61630960  0.41266277  1  0.164862  0.002149  0.121529  0.104104  0.000879  1.030439  0.002
H  H101  1  0.70223632  0.38369473  0.91266203  1  0.164788  0.002149  0.121509  0.104105  0.00088  1.030441  0.002
H  H102  1  0.11630469  0.20223646  0.66266239  1  0.164771  0.002149  0.121514  0.104082  0.00088  1.030467  0.002
H  H103  1  0.88370167  0.79776339  0.16266231  1  0.164871  0.002149  0.121509  0.104026  0.000879  1.030504  0.002
C  C104  1  0.63946542  0.55255032  0.12938867  1  1.537949  0.000946  0.20172  0.554012  3.4e-05  4.16632  -0.002
C  C105  1  0.36053914  0.44745475  0.62938933  1  1.538032  0.000947  0.201584  0.553868  3.4e-05  4.166379  -0.002
C  C106  1  0.94745264  0.13946057  0.87938880  1  1.537996  0.000947  0.201616  0.553914  3.4e-05  4.166429  -0.002
C  C107  1  0.05254736  0.86054084  0.37938885  1  1.537992  0.000947  0.201578  0.553846  3.4e-05  4.166449  -0.002
C  C108  1  0.86053773  0.05254815  0.62061087  1  1.537855  0.000947  0.201605  0.553889  3.4e-05  4.166359  -0.002
C  C109  1  0.13946550  0.94744979  0.12061058  1  1.537869  0.000947  0.20171  0.553964  3.4e-05  4.166321  -0.002
C  C110  1  0.55254709  0.63946136  0.87061079  1  1.538022  0.000947  0.201598  0.553861  3.4e-05  4.166375  -0.002
C  C111  1  0.44744925  0.36053756  0.37061123  1  1.538039  0.000946  0.201636  0.553934  3.4e-05  4.166382  -0.002
C  C112  1  0.63290168  0.37452583  0.12671844  1  0.54929  0.010749  -0.007025  0.123459  0.007796  3.888364  0.009
C  C113  1  0.36710166  0.62548036  0.62671945  1  0.549355  0.010748  -0.00685  0.123441  0.007796  3.888583  0.009
C  C114  1  0.12547797  0.13289841  0.87671901  1  0.549193  0.010748  -0.006962  0.123369  0.007796  3.888584  0.009
C  C115  1  0.87452314  0.86710528  0.37671921  1  0.54937  0.010748  -0.006965  0.123305  0.007796  3.888674  0.009
C  C116  1  0.86710105  0.87452144  0.62328065  1  0.54936  0.010749  -0.006949  0.123404  0.007796  3.888556  0.009
C  C117  1  0.13289874  0.12547654  0.12328001  1  0.549379  0.010748  -0.007038  0.123273  0.007796  3.888771  0.009
C  C118  1  0.37452261  0.63289884  0.87328043  1  0.549338  0.010748  -0.007025  0.123336  0.007796  3.888632  0.009
C  C119  1  0.62547379  0.36710130  0.37328170  1  0.549322  0.010749  -0.007032  0.123403  0.007796  3.88847  0.009
C  C120  1  0.67080218  0.30365333  0.15823798  1  -0.071289  0.009017  -0.168658  -0.350377  0.006395  3.904685  0.006
C  C121  1  0.32920061  0.69635226  0.65823970  1  -0.071089  0.009021  -0.16875  -0.350549  0.006397  3.904619  0.006
C  C122  1  0.19634986  0.17080112  0.90823906  1  -0.071006  0.00902  -0.168723  -0.350442  0.006397  3.904625  0.006
C  C123  1  0.80365185  0.82920314  0.40823964  1  -0.071116  0.00902  -0.16874  -0.350485  0.006397  3.904593  0.006
C  C124  1  0.82919833  0.80364959  0.59176060  1  -0.071031  0.00902  -0.168743  -0.350521  0.006397  3.904657  0.006
C  C125  1  0.17080436  0.19635015  0.09176027  1  -0.071015  0.009018  -0.168692  -0.350475  0.006395  3.904801  0.006
C  C126  1  0.30364951  0.67080223  0.84176087  1  -0.07102  0.009019  -0.168724  -0.350441  0.006396  3.904769  0.006
C  C127  1  0.69634629  0.32919967  0.34176171  1  -0.071255  0.009021  -0.168699  -0.350392  0.006398  3.904599  0.006
C  C128  1  0.65906788  0.12684766  0.15760171  1  1.580155  -7.9e-05  0.197219  0.626536  -0.000504  4.170819  -0.002
C  C129  1  0.34093024  0.87316374  0.65760333  1  1.580386  -7.8e-05  0.197182  0.626621  -0.000504  4.171089  -0.002
C  C130  1  0.37316256  0.15907125  0.90760269  1  1.58031  -7.8e-05  0.197161  0.626517  -0.000504  4.171211  -0.002
C  C131  1  0.62684031  0.84093183  0.40760269  1  1.5803  -7.8e-05  0.197224  0.626576  -0.000504  4.171063  -0.002
C  C132  1  0.84093052  0.62683810  0.59239698  1  1.580298  -7.8e-05  0.197171  0.626548  -0.000504  4.171128  -0.002
C  C133  1  0.15907101  0.37315701  0.09239699  1  1.580284  -7.8e-05  0.197163  0.626599  -0.000504  4.170882  -0.002
C  C134  1  0.12684148  0.65906679  0.84239769  1  1.58029  -7.8e-05  0.197212  0.626566  -0.000504  4.170963  -0.002
C  C135  1  0.87315782  0.34092931  0.34239821  1  1.58017  -7.8e-05  0.197168  0.626459  -0.000504  4.171239  -0.002
C  C136  1  0.34859915  0.92747513  0.19896263  1  0.47478  -0.000822  0.053267  0.110146  -0.001318  3.903377  -0.001
C  C137  1  0.65140324  0.07252654  0.69896278  1  0.4751  -0.000823  0.053274  0.110221  -0.001318  3.903374  -0.001
C  C138  1  0.57252410  0.84859490  0.94896262  1  0.475077  -0.000823  0.053232  0.110205  -0.001319  3.903513  -0.001
C  C139  1  0.42747141  0.15140311  0.44896290  1  0.4749  -0.000823  0.053216  0.110134  -0.001318  3.903432  -0.001
C  C140  1  0.15139970  0.42747430  0.55103727  1  0.475045  -0.000823  0.053259  0.110142  -0.001319  3.903437  -0.001
C  C141  1  0.84859756  0.57252239  0.05103724  1  0.474738  -0.000822  0.053256  0.110165  -0.001318  3.903388  -0.001
C  C142  1  0.92748002  0.34859738  0.80103712  1  0.475049  -0.000822  0.053309  0.110252  -0.001318  3.903559  -0.001
C  C143  1  0.07251966  0.65140147  0.30103726  1  0.475039  -0.000822  0.053365  0.110402  -0.001318  3.903434  -0.001
C  C144  1  0.32200688  0.94464091  0.23017256  1  -0.001142  0.004737  -0.081652  -0.174653  0.003186  3.937754  0.004
C  C145  1  0.67799494  0.05536015  0.73017248  1  -0.001277  0.004737  -0.081708  -0.174715  0.003186  3.93791  0.004
C  C146  1  0.55535893  0.82200497  0.98017253  1  -0.000918  0.004737  -0.081672  -0.174726  0.003186  3.937805  0.004
C  C147  1  0.44463485  0.17799360  0.48017239  1  -0.001341  0.004737  -0.081682  -0.174754  0.003186  3.937908  0.004
C  C148  1  0.17799079  0.44464065  0.51982735  1  -0.001133  0.004737  -0.081681  -0.17464  0.003186  3.937829  0.004
C  C149  1  0.82201053  0.55535897  0.01982775  1  -0.001131  0.004737  -0.081735  -0.174699  0.003186  3.937868  0.004
C  C150  1  0.94464290  0.32201035  0.76982742  1  -0.001113  0.004737  -0.081729  -0.174778  0.003186  3.937778  0.004
C  C151  1  0.05535851  0.67799026  0.26982780  1  -0.001129  0.004737  -0.081743  -0.174781  0.003186  3.937859  0.004
C  C152  1  0.41989462  0.87217385  0.25160821  1  -0.011566  -0.002512  0.011968  0.105802  -0.002897  3.981461  -0.002
C  C153  1  0.58010993  0.12782295  0.75160880  1  -0.011503  -0.002512  0.011971  0.105757  -0.002897  3.981586  -0.002
C  C154  1  0.62782377  0.91988943  0.00160848  1  -0.01194  -0.002512  0.011989  0.10585  -0.002897  3.981437  -0.002
C  C155  1  0.37217255  0.08010753  0.50160865  1  -0.011653  -0.002512  0.01193  0.105756  -0.002897  3.981519  -0.002
C  C156  1  0.08010663  0.37217566  0.49839165  1  -0.01128  -0.002512  0.011977  0.105804  -0.002897  3.981474  -0.002
C  C157  1  0.91989098  0.62782207  0.99839170  1  -0.011335  -0.002512  0.011957  0.105697  -0.002898  3.981556  -0.002
C  C158  1  0.87217775  0.41989186  0.74839133  1  -0.011323  -0.002512  0.012002  0.105841  -0.002897  3.981414  -0.002
C  C159  1  0.12782442  0.58010837  0.24839192  1  -0.01126  -0.002512  0.01195  0.105764  -0.002897  3.981591  -0.002
C  C160  1  0.53965876  0.77880784  0.23959737  1  -0.057543  0.004099  -0.083686  -0.177753  0.002781  3.943559  0.003
C  C161  1  0.46033975  0.22119107  0.73959817  1  -0.05753  0.0041  -0.083772  -0.177915  0.002781  3.943562  0.003
C  C162  1  0.72119141  0.03965766  0.98959733  1  -0.057549  0.004099  -0.083756  -0.177905  0.00278  3.94357  0.003
C  C163  1  0.27880835  0.96033992  0.48959762  1  -0.057477  0.004099  -0.083776  -0.177891  0.002781  3.943498  0.003
C  C164  1  0.96033829  0.27880821  0.51040234  1  -0.057569  0.004099  -0.083737  -0.177849  0.002781  3.943606  0.003
C  C165  1  0.03965820  0.72119124  0.01040182  1  -0.05748  0.004099  -0.083674  -0.177717  0.002781  3.943376  0.003
C  C166  1  0.77881077  0.53965735  0.76040196  1  -0.057611  0.004099  -0.083745  -0.177878  0.002781  3.943391  0.003
C  C167  1  0.22119162  0.46034193  0.26040276  1  -0.057639  0.004099  -0.083736  -0.177931  0.002781  3.943452  0.003
C  C168  1  0.55752872  0.76455414  0.20809157  1  0.495658  -0.000606  0.050273  0.094414  -0.001074  3.96007  0.0
C  C169  1  0.44246687  0.23544420  0.70809168  1  0.495646  -0.000606  0.050233  0.09438  -0.001074  3.960148  0.0
C  C170  1  0.73544800  0.05752994  0.95809200  1  0.495384  -0.000605  0.050261  0.094402  -0.001073  3.960071  0.0
C  C171  1  0.26455350  0.94246590  0.45809180  1  0.495376  -0.000606  0.050227  0.094344  -0.001074  3.960143  0.0
C  C172  1  0.94246718  0.26455510  0.54190813  1  0.495637  -0.000605  0.050196  0.094291  -0.001073  3.960127  0.0
C  C173  1  0.05753689  0.73545073  0.04190832  1  0.495366  -0.000606  0.050218  0.094315  -0.001074  3.959956  0.0
C  C174  1  0.76455068  0.55753719  0.79190845  1  0.49546  -0.000606  0.050288  0.09444  -0.001074  3.959955  0.0
C  C175  1  0.23544766  0.44246265  0.29190925  1  0.495748  -0.000606  0.050325  0.0946  -0.001075  3.959881  0.0
C  C176  1  0.45542082  0.82904573  0.33769179  1  0.515236  -0.001545  0.06449  0.132509  -0.0021  3.885433  -0.001
C  C177  1  0.54458071  0.17094331  0.83769147  1  0.515337  -0.001545  0.064569  0.132642  -0.0021  3.88541  -0.001
C  C178  1  0.67094414  0.95541785  0.08769094  1  0.51533  -0.001545  0.064562  0.13262  -0.0021  3.885473  -0.001
C  C179  1  0.32905033  0.04458299  0.58769129  1  0.51536  -0.001545  0.064489  0.132482  -0.002099  3.885526  -0.001
C  C180  1  0.04458281  0.32905534  0.41230896  1  0.515313  -0.001545  0.064544  0.132591  -0.0021  3.885484  -0.001
C  C181  1  0.95541666  0.67094898  0.91230883  1  0.515363  -0.001545  0.06448  0.132464  -0.002099  3.885531  -0.001
C  C182  1  0.82905268  0.45541646  0.66230888  1  0.515386  -0.001545  0.064545  0.13264  -0.0021  3.88544  -0.001
C  C183  1  0.17095366  0.54457990  0.16230903  1  0.515377  -0.001544  0.06451  0.132506  -0.002099  3.885517  -0.001
C  C184  1  0.47635175  0.80211214  0.30656391  1  -0.039758  0.005471  -0.075914  -0.154314  0.003684  3.906663  0.004
C  C185  1  0.52365153  0.19787983  0.80656359  1  -0.03964  0.005471  -0.075831  -0.154102  0.003684  3.90672  0.004
C  C186  1  0.69787830  0.97634875  0.05656354  1  -0.039665  0.005471  -0.075868  -0.154176  0.003684  3.906789  0.004
C  C187  1  0.30211325  0.02365386  0.55656339  1  -0.039769  0.005471  -0.075843  -0.154146  0.003684  3.906742  0.004
C  C188  1  0.02365076  0.30212001  0.44343613  1  -0.039668  0.005471  -0.075885  -0.154214  0.003684  3.906808  0.004
C  C189  1  0.97634697  0.69788371  0.94343650  1  -0.039774  0.005471  -0.075833  -0.154152  0.003684  3.906736  0.004
C  C190  1  0.80211733  0.47634679  0.69343631  1  -0.039741  0.005471  -0.075898  -0.154279  0.003684  3.906738  0.004
C  C191  1  0.19788495  0.52365129  0.19343668  1  -0.03987  0.005471  -0.075861  -0.154199  0.003684  3.906784  0.004
C  C192  1  0.39826013  0.89415203  0.28496830  1  -0.018416  -0.003555  0.005905  0.086418  -0.004074  3.997439  -0.002
C  C193  1  0.60174273  0.10584304  0.78496798  1  -0.018408  -0.003555  0.005875  0.086392  -0.004074  3.997532  -0.002
C  C194  1  0.60584157  0.89826077  0.03496787  1  -0.018411  -0.003555  0.005881  0.086401  -0.004075  3.997374  -0.002
C  C195  1  0.39415073  0.10174261  0.53496785  1  -0.018465  -0.003555  0.00594  0.086495  -0.004074  3.997533  -0.002
C  C196  1  0.10173877  0.39415787  0.46503203  1  -0.018411  -0.003555  0.005868  0.086344  -0.004074  3.997482  -0.002
C  C197  1  0.89825821  0.60584624  0.96503205  1  -0.018426  -0.003555  0.005902  0.086485  -0.004074  3.997425  -0.002
C  C198  1  0.89415416  0.39825792  0.71503169  1  -0.018398  -0.003555  0.005919  0.086473  -0.004074  3.997419  -0.002
C  C199  1  0.10584738  0.60174171  0.21503228  1  -0.018457  -0.003555  0.005878  0.08641  -0.004074  3.997628  -0.002
C  C200  1  0.29768336  0.00900853  0.29657912  1  -0.015641  0.005878  -0.085188  -0.177754  0.003938  3.94756  0.005
C  C201  1  0.70232089  0.99098442  0.79657880  1  -0.015679  0.005878  -0.085157  -0.177682  0.003938  3.947416  0.005
C  C202  1  0.49098065  0.79768352  0.04657850  1  -0.014714  0.005877  -0.085163  -0.177632  0.003938  3.947267  0.005
C  C203  1  0.50900954  0.20232123  0.54657863  1  -0.015656  0.005878  -0.085212  -0.177793  0.003938  3.94755  0.005
C  C204  1  0.20231487  0.50901760  0.45342163  1  -0.014739  0.005877  -0.085145  -0.177603  0.003938  3.947326  0.005
C  C205  1  0.79767956  0.49098631  0.95342104  1  -0.015665  0.005878  -0.085185  -0.177739  0.003938  3.94752  0.005
C  C206  1  0.00901488  0.29767863  0.70342131  1  -0.015632  0.005879  -0.085187  -0.177755  0.003938  3.947312  0.005
C  C207  1  0.99099109  0.70231963  0.20342125  1  -0.015651  0.005878  -0.085176  -0.177729  0.003938  3.947584  0.005
C  C208  1  0.28158692  0.02930969  0.32797629  1  0.443318  -0.000852  0.050012  0.099815  -0.001192  3.902323  -0.001
C  C209  1  0.71841676  0.97068383  0.82797574  1  0.443284  -0.000851  0.050008  0.099773  -0.001191  3.902239  -0.001
C  C210  1  0.47068242  0.78158594  0.07797588  1  0.443286  -0.000851  0.049948  0.099686  -0.001191  3.902277  -0.001
C  C211  1  0.52930837  0.21841821  0.57797604  1  0.443312  -0.000852  0.05002  0.099787  -0.001191  3.902386  -0.001
C  C212  1  0.21841477  0.52931817  0.42202402  1  0.443335  -0.000852  0.049956  0.099688  -0.001191  3.902225  -0.001
C  C213  1  0.78158256  0.47068982  0.92202408  1  0.443289  -0.000851  0.050003  0.099722  -0.001191  3.902395  -0.001
C  C214  1  0.02931313  0.28158162  0.67202346  1  0.443281  -0.000852  0.050034  0.099822  -0.001191  3.902283  -0.001
C  C215  1  0.97069224  0.71841607  0.17202385  1  0.443314  -0.000852  0.05007  0.099938  -0.001192  3.902278  -0.001
N  N216  1  0.46542562  0.83943206  0.18805690  1  -1.22842  0.081375  -0.339838  -0.209959  0.054318  3.593819  0.071
N  N217  1  0.53457540  0.16056825  0.68805748  1  -1.228357  0.081378  -0.339802  -0.209883  0.05432  3.593797  0.071
N  N218  1  0.66056917  0.96542007  0.93805694  1  -1.228301  0.081378  -0.339848  -0.209935  0.054321  3.593824  0.071
N  N219  1  0.33942962  0.03457309  0.43805708  1  -1.228148  0.081378  -0.339832  -0.209933  0.05432  3.593852  0.071
N  N220  1  0.03457567  0.33943158  0.56194271  1  -1.228379  0.081376  -0.339829  -0.209886  0.054319  3.593841  0.071
N  N221  1  0.96542645  0.66056763  0.06194283  1  -1.228255  0.081384  -0.339781  -0.209837  0.054324  3.593653  0.071
N  N222  1  0.83943364  0.46542286  0.81194265  1  -1.228304  0.081382  -0.33988  -0.209997  0.054324  3.593911  0.071
N  N223  1  0.16056276  0.53457502  0.31194346  1  -1.22837  0.081381  -0.33989  -0.210099  0.054323  3.594028  0.071
N  N224  1  0.36144560  0.94182522  0.34816073  1  -1.172206  0.089592  -0.338136  -0.202717  0.059732  3.588483  0.078
N  N225  1  0.63855729  0.05816633  0.84816086  1  -1.172307  0.089589  -0.338164  -0.202729  0.059731  3.588431  0.078
N  N226  1  0.55816725  0.86144512  0.09816072  1  -1.172309  0.089592  -0.338141  -0.202672  0.059732  3.588448  0.078
N  N227  1  0.44182858  0.13855823  0.59816053  1  -1.172227  0.089589  -0.33812  -0.202638  0.05973  3.588432  0.078
N  N228  1  0.13855672  0.44183220  0.40183941  1  -1.172369  0.089588  -0.338134  -0.202635  0.059729  3.58841  0.078
N  N229  1  0.86144254  0.55817077  0.90183914  1  -1.172226  0.089588  -0.338119  -0.202628  0.05973  3.588421  0.078
N  N230  1  0.94183085  0.36144224  0.65183905  1  -1.172248  0.08959  -0.338144  -0.202691  0.059731  3.588515  0.078
N  N231  1  0.05817646  0.63855161  0.15183963  1  -1.172232  0.08959  -0.338129  -0.202719  0.059731  3.588454  0.078
O  O232  1  0.52088988  0.61435208  0.14287726  1  -1.11756  0.104006  -0.331263  -0.553865  0.066196  2.350809  0.094
O  O233  1  0.47911494  0.38565090  0.64287772  1  -1.117645  0.104006  -0.331239  -0.553769  0.066196  2.350721  0.094
O  O234  1  0.88564894  0.02088630  0.89287780  1  -1.117623  0.104008  -0.33123  -0.553738  0.066197  2.350747  0.094
O  O235  1  0.11435365  0.97911536  0.39287752  1  -1.117654  0.104008  -0.331218  -0.55371  0.066198  2.350697  0.094
O  O236  1  0.97911436  0.11435068  0.60712211  1  -1.117628  0.104009  -0.331257  -0.553772  0.066198  2.350764  0.094
O  O237  1  0.02088978  0.88564702  0.10712169  1  -1.117596  0.104004  -0.331315  -0.553886  0.066195  2.350913  0.094
O  O238  1  0.61435095  0.52088444  0.85712217  1  -1.117632  0.104011  -0.33122  -0.553733  0.066199  2.350623  0.094
O  O239  1  0.38564630  0.47911308  0.35712265  1  -1.117617  0.104007  -0.331241  -0.553784  0.066197  2.35081  0.094
O  O240  1  0.75395887  0.62619079  0.11934196  1  -1.196287  0.002814  -0.322701  -0.585027  0.000771  2.374486  0.004
O  O241  1  0.24604434  0.37381410  0.61934179  1  -1.196353  0.002815  -0.322656  -0.584968  0.000771  2.374497  0.004
O  O242  1  0.87381066  0.25395409  0.86934157  1  -1.196351  0.002815  -0.322667  -0.585005  0.000771  2.374513  0.004
O  O243  1  0.12618683  0.74604481  0.36934159  1  -1.196332  0.002815  -0.322667  -0.584999  0.000771  2.374526  0.004
O  O244  1  0.74604419  0.12619011  0.63065833  1  -1.196191  0.002815  -0.322651  -0.584994  0.000771  2.374501  0.004
O  O245  1  0.25395807  0.87380917  0.13065853  1  -1.196259  0.002814  -0.322648  -0.58496  0.000771  2.374414  0.004
O  O246  1  0.62618893  0.75395497  0.88065832  1  -1.196348  0.002815  -0.322641  -0.584973  0.000771  2.374543  0.004
O  O247  1  0.37380877  0.24604298  0.38065795  1  -1.196339  0.002815  -0.322669  -0.585042  0.000771  2.374473  0.004
O  O248  1  0.73178101  0.31616756  0.10339689  1  -1.174676  0.01047  -0.412445  -0.505569  0.006483  2.254037  0.009
O  O249  1  0.26822422  0.68383473  0.60339856  1  -1.174762  0.01047  -0.412555  -0.505606  0.006483  2.25426  0.009
O  O250  1  0.18383338  0.23177649  0.85339819  1  -1.174591  0.01047  -0.412485  -0.505565  0.006483  2.254138  0.009
O  O251  1  0.81616613  0.76822678  0.35339828  1  -1.174752  0.010469  -0.412534  -0.505606  0.006483  2.254172  0.009
O  O252  1  0.76822297  0.81616720  0.64660169  1  -1.174744  0.01047  -0.412466  -0.505535  0.006483  2.254137  0.009
O  O253  1  0.23177843  0.18383236  0.14660094  1  -1.174763  0.01047  -0.412482  -0.505512  0.006483  2.254232  0.009
O  O254  1  0.31616591  0.73177625  0.89660178  1  -1.174748  0.010469  -0.412482  -0.505598  0.006483  2.254121  0.009
O  O255  1  0.68383209  0.26822315  0.39660325  1  -1.174694  0.01047  -0.41245  -0.505637  0.006483  2.254053  0.009
O  O256  1  0.52873800  0.07498019  0.14608903  1  -1.13523  0.095521  -0.331729  -0.580063  0.060993  2.412251  0.087
O  O257  1  0.47125525  0.92502053  0.64609009  1  -1.135168  0.095522  -0.331719  -0.58005  0.060993  2.412453  0.087
O  O258  1  0.42501953  0.02874134  0.89609028  1  -1.135185  0.095522  -0.33172  -0.58002  0.060993  2.412516  0.087
O  O259  1  0.57498196  0.97125921  0.39609010  1  -1.135117  0.095523  -0.331732  -0.58004  0.060993  2.412453  0.087
O  O260  1  0.97125814  0.57498114  0.60390985  1  -1.135186  0.095522  -0.331703  -0.580018  0.060993  2.412482  0.087
O  O261  1  0.02874244  0.42502115  0.10391072  1  -1.135164  0.095524  -0.331701  -0.580087  0.060995  2.412364  0.087
O  O262  1  0.07498119  0.52874181  0.85391070  1  -1.135234  0.095516  -0.331681  -0.580016  0.06099  2.412467  0.087
O  O263  1  0.92501484  0.47125799  0.35390997  1  -1.135065  0.095524  -0.331719  -0.580046  0.060994  2.412509  0.087
O  O264  1  0.76661401  0.04228672  0.16692429  1  -1.184704  0.000972  -0.336225  -0.57086  -0.00031  2.091817  0.001
O  O265  1  0.23338894  0.95772135  0.66692567  1  -1.185021  0.000973  -0.336216  -0.570909  -0.000309  2.091922  0.001
O  O266  1  0.45771890  0.26661259  0.91692464  1  -1.184981  0.000973  -0.336172  -0.570837  -0.00031  2.092018  0.001
O  O267  1  0.54228181  0.73339183  0.41692496  1  -1.184929  0.000973  -0.336196  -0.570869  -0.00031  2.09194  0.001
O  O268  1  0.73338799  0.54228062  0.58307525  1  -1.184971  0.000973  -0.336192  -0.570854  -0.000309  2.091945  0.001
O  O269  1  0.26661104  0.45771897  0.08307425  1  -1.184964  0.000972  -0.336194  -0.570877  -0.00031  2.091878  0.001
O  O270  1  0.04228151  0.76661156  0.83307490  1  -1.184915  0.000973  -0.336243  -0.570914  -0.000309  2.091782  0.001
O  O271  1  0.95771413  0.23338554  0.33307632  1  -1.184786  0.000973  -0.336157  -0.570764  -0.000309  2.09201  0.001
