# generated using pymatgen
data_InH6C8O5
_symmetry_space_group_name_H-M   'P 1'
_cell_length_a   12.42250261
_cell_length_b   12.66936935
_cell_length_c   12.66944886
_cell_angle_alpha   76.09040910
_cell_angle_beta   60.64161460
_cell_angle_gamma   60.64180633
_symmetry_Int_Tables_number   1
_chemical_formula_structural   InH6C8O5
_chemical_formula_sum   'In4 H24 C32 O20'
_cell_volume   1514.70238869
_cell_formula_units_Z   4
loop_
 _symmetry_equiv_pos_site_id
 _symmetry_equiv_pos_as_xyz
  1  'x, y, z'
loop_
 _atom_site_type_symbol
 _atom_site_label
 _atom_site_symmetry_multiplicity
 _atom_site_fract_x
 _atom_site_fract_y
 _atom_site_fract_z
 _atom_site_occupancy
 _atom_site_hle17_bader_spin_density
 _atom_site_hle17_ddec_charge
 _atom_site_hle17_ddec_spin_density
 _atom_site_hle17_ddec_sum_bond_order
 _atom_site_hle17_magmom
 _atom_site_hse06_10hf_bader_spin_density
 _atom_site_hse06_10hf_ddec_charge
 _atom_site_hse06_10hf_ddec_spin_density
 _atom_site_hse06_10hf_ddec_sum_bond_order
 _atom_site_hse06_10hf_magmom
 _atom_site_hse06_bader_spin_density
 _atom_site_hse06_ddec_charge
 _atom_site_hse06_ddec_spin_density
 _atom_site_hse06_ddec_sum_bond_order
 _atom_site_hse06_magmom
 _atom_site_pbe_bader_spin_density
 _atom_site_pbe_cm5_charge
 _atom_site_pbe_ddec_charge
 _atom_site_pbe_ddec_spin_density
 _atom_site_pbe_ddec_sum_bond_order
 _atom_site_pbe_magmom
In  In0  1  0.18640522  0.00000338  0.62718221  1  0  1.812858  0  2.250809  0  0  1.63409  0  2.754135  0  0  1.699209  0  2.688959  0  0  0.779323  1.588044  0  2.799178  0
In  In1  1  0.56359220  0.87282001  0.49999786  1  0  1.812895  0  2.250812  0  0  1.634122  0  2.75413  0  0  1.699241  0  2.688955  0  0  0.779344  1.588081  0  2.799172  0
In  In2  1  0.81358804  0.00001131  0.37281362  1  0  1.812836  0  2.250707  0  0  1.634068  0  2.753992  0  0  1.699185  0  2.688823  0  0  0.77932  1.588027  0  2.799018  0
In  In3  1  0.93640948  0.12718780  0.49999132  1  0  1.812797  0  2.2507  0  0  1.634016  0  2.753991  0  0  1.699136  0  2.688818  0  0  0.779352  1.587983  0  2.799044  0
H  H4  1  0.37499884  0.06665939  0.43333717  1  0  0.428588  0  0.849732  0  0  0.405165  0  0.899538  0  0  0.4144  0  0.886389  0  0  0.312614  0.39862  0  0.908879  0
H  H5  1  0.55837166  0.06661975  0.56670064  1  0  0.428372  0  0.85001  0  0  0.404937  0  0.899841  0  0  0.414172  0  0.886692  0  0  0.312566  0.398389  0  0.909184  0
H  H6  1  0.87499928  0.93333769  0.56666276  1  0  0.428518  0  0.849822  0  0  0.405101  0  0.89962  0  0  0.414338  0  0.886469  0  0  0.312603  0.398558  0  0.908958  0
H  H7  1  0.19163020  0.93330308  0.43337877  1  0  0.428407  0  0.849972  0  0  0.404973  0  0.899799  0  0  0.414209  0  0.886649  0  0  0.312568  0.39843  0  0.909135  0
H  H8  1  0.12545763  0.99998407  0.99999356  1  0  0.124507  0  0.922936  0  0  0.133221  0  0.982034  0  0  0.137318  0  0.978436  0  0  0.118615  0.12999  0  0.985228  0
H  H9  1  0.87544617  0.50000460  0.49999418  1  0  0.124496  0  0.922955  0  0  0.133158  0  0.982113  0  0  0.13725  0  0.978523  0  0  0.118642  0.12996  0  0.985275  0
H  H10  1  0.62454313  0.50000884  0.50001220  1  0  0.124526  0  0.922925  0  0  0.1332  0  0.982063  0  0  0.137291  0  0.978472  0  0  0.118628  0.130002  0  0.985225  0
H  H11  1  0.87454751  0.00000910  0.00000083  1  0  0.124511  0  0.922921  0  0  0.133219  0  0.982036  0  0  0.137314  0  0.978442  0  0  0.118651  0.129992  0  0.985228  0
H  H12  1  0.54747879  0.93970984  0.81359580  1  0  0.102452  0  0.948882  0  0  0.109297  0  1.016746  0  0  0.113233  0  1.013322  0  0  0.106773  0.106418  0  1.019257  0
H  H13  1  0.11106601  0.68640736  0.43971369  1  0  0.10253  0  0.948846  0  0  0.109389  0  1.016675  0  0  0.113324  0  1.013255  0  0  0.106776  0.106513  0  1.01918  0
H  H14  1  0.30077097  0.06027819  0.18641014  1  0  0.102529  0  0.948739  0  0  0.109392  0  1.016565  0  0  0.113328  0  1.013142  0  0  0.106765  0.106515  0  1.019077  0
H  H15  1  0.23718620  0.31358767  0.56028389  1  0  0.102509  0  0.948898  0  0  0.109407  0  1.016683  0  0  0.113344  0  1.01326  0  0  0.106762  0.10653  0  1.01919  0
H  H16  1  0.20252323  0.68640401  0.56029101  1  0  0.102437  0  0.948936  0  0  0.109314  0  1.016756  0  0  0.11325  0  1.013333  0  0  0.106761  0.106433  0  1.019267  0
H  H17  1  0.51281230  0.93971683  0.18641382  1  0  0.102478  0  0.948912  0  0  0.109389  0  1.016677  0  0  0.113326  0  1.013254  0  0  0.106755  0.106512  0  1.019186  0
H  H18  1  0.44923015  0.31359508  0.43971880  1  0  0.102481  0  0.948771  0  0  0.109367  0  1.016574  0  0  0.113303  0  1.013151  0  0  0.106764  0.10649  0  1.019082  0
H  H19  1  0.63893510  0.06028147  0.81359530  1  0  0.102537  0  0.948828  0  0  0.109394  0  1.016669  0  0  0.113326  0  1.01325  0  0  0.106801  0.106518  0  1.019176  0
H  H20  1  0.41079456  0.21632713  0.27027958  1  0  0.009299  0  0.87136  0  0  0.012478  0  0.924222  0  0  0.012502  0  0.925476  0  0  0.008341  0.012464  0  0.923394  0
H  H21  1  0.43105782  0.22973595  0.71633725  1  0  0.009237  0  0.87134  0  0  0.012422  0  0.924203  0  0  0.012443  0  0.925463  0  0  0.008288  0.012407  0  0.923374  0
H  H22  1  0.89741082  0.78366345  0.72971432  1  0  0.009265  0  0.871334  0  0  0.012441  0  0.924206  0  0  0.012462  0  0.925465  0  0  0.008326  0.012425  0  0.923379  0
H  H23  1  0.37713617  0.77028162  0.28366005  1  0  0.009357  0  0.871346  0  0  0.01252  0  0.924217  0  0  0.012541  0  0.925477  0  0  0.008361  0.012506  0  0.923388  0
H  H24  1  0.33920401  0.22972033  0.28367207  1  0  0.009512  0  0.871354  0  0  0.012674  0  0.924214  0  0  0.012698  0  0.925469  0  0  0.008506  0.01266  0  0.923386  0
H  H25  1  0.37286811  0.21633651  0.72971664  1  0  0.009572  0  0.871313  0  0  0.012728  0  0.924182  0  0  0.01275  0  0.925441  0  0  0.008503  0.01271  0  0.923354  0
H  H26  1  0.85258814  0.77028336  0.71633482  1  0  0.009554  0  0.871325  0  0  0.012713  0  0.924193  0  0  0.012735  0  0.925453  0  0  0.008524  0.012699  0  0.923365  0
H  H27  1  0.31894638  0.78366057  0.27026196  1  0  0.009455  0  0.87136  0  0  0.012628  0  0.924218  0  0  0.012649  0  0.925478  0  0  0.008428  0.012612  0  0.92339  0
C  C28  1  0.34613450  0.94786863  0.77939944  1  0  0.695567  0  3.866079  0  0  0.643092  0  4.16148  0  0  0.680123  0  4.151504  0  0  0.243772  0.617888  0  4.167569  0
C  C29  1  0.87552369  0.72060355  0.44788251  1  0  0.695489  0  3.866332  0  0  0.643115  0  4.161551  0  0  0.680134  0  4.151587  0  0  0.243787  0.617932  0  4.167614  0
C  C30  1  0.07339964  0.05211692  0.22059468  1  0  0.695538  0  3.865805  0  0  0.643238  0  4.160912  0  0  0.680269  0  4.150952  0  0  0.2438  0.618071  0  4.166963  0
C  C31  1  0.04400335  0.27940035  0.55211182  1  0  0.69544  0  3.866375  0  0  0.643081  0  4.16158  0  0  0.6801  0  4.151618  0  0  0.24376  0.617912  0  4.167626  0
C  C32  1  0.40386782  0.72060172  0.55212863  1  0  0.695713  0  3.866018  0  0  0.643243  0  4.16142  0  0  0.680275  0  4.15144  0  0  0.243843  0.61804  0  4.167508  0
C  C33  1  0.70599130  0.94788583  0.22060354  1  0  0.695398  0  3.866327  0  0  0.643045  0  4.161559  0  0  0.680066  0  4.151596  0  0  0.243759  0.61787  0  4.167608  0
C  C34  1  0.67660222  0.27940893  0.44788756  1  0  0.695649  0  3.865778  0  0  0.643383  0  4.160881  0  0  0.680405  0  4.150916  0  0  0.243848  0.61822  0  4.166925  0
C  C35  1  0.87447333  0.05212284  0.77939838  1  0  0.695408  0  3.866223  0  0  0.643016  0  4.161475  0  0  0.680035  0  4.151517  0  0  0.24376  0.617853  0  4.167515  0
C  C36  1  0.33675081  0.97140365  0.89458259  1  0  -0.062643  0  3.765924  0  0  -0.036528  0  4.002724  0  0  -0.046788  0  4.026784  0  0  -0.013417  -0.029906  0  3.986458  0
C  C37  1  0.98133037  0.60541727  0.47141072  1  0  -0.062482  0  3.765924  0  0  -0.036344  0  4.002608  0  0  -0.046594  0  4.026667  0  0  -0.01337  -0.029732  0  3.986354  0
C  C38  1  0.20273847  0.02857878  0.10541571  1  0  -0.062462  0  3.765852  0  0  -0.036385  0  4.002596  0  0  -0.046679  0  4.02671  0  0  -0.013392  -0.029778  0  3.986331  0
C  C39  1  0.05815980  0.39458010  0.52858416  1  0  -0.062341  0  3.765844  0  0  -0.036248  0  4.002587  0  0  -0.046496  0  4.026645  0  0  -0.013306  -0.029643  0  3.986335  0
C  C40  1  0.41325010  0.60541857  0.52859278  1  0  -0.062615  0  3.766057  0  0  -0.036534  0  4.002888  0  0  -0.046792  0  4.026945  0  0  -0.013421  -0.029909  0  3.986626  0
C  C41  1  0.69183853  0.97141686  0.10541955  1  0  -0.062337  0  3.765686  0  0  -0.036299  0  4.00253  0  0  -0.046546  0  4.026588  0  0  -0.01332  -0.029682  0  3.986262  0
C  C42  1  0.54726160  0.39458450  0.47141561  1  0  -0.062344  0  3.765885  0  0  -0.036361  0  4.002733  0  0  -0.046626  0  4.026809  0  0  -0.013332  -0.029748  0  3.98647  0
C  C43  1  0.76867102  0.02858799  0.89458272  1  0  -0.062516  0  3.765885  0  0  -0.03634  0  4.002553  0  0  -0.046586  0  4.026609  0  0  -0.013368  -0.029731  0  3.986286  0
C  C44  1  0.21304376  0.99999423  0.99999808  1  0  -0.04938  0  3.66662  0  0  -0.090123  0  3.912514  0  0  -0.086418  0  3.930564  0  0  -0.066403  -0.092647  0  3.900861  0
C  C45  1  0.96304168  0.49999982  0.49999689  1  0  -0.049398  0  3.666584  0  0  -0.090126  0  3.912511  0  0  -0.086433  0  3.930548  0  0  -0.066443  -0.09267  0  3.900863  0
C  C46  1  0.53695710  0.50000316  0.50000406  1  0  -0.049468  0  3.666601  0  0  -0.090129  0  3.912533  0  0  -0.08643  0  3.930576  0  0  -0.066414  -0.092686  0  3.900885  0
C  C47  1  0.78695562  0.00000288  0.99999994  1  0  -0.049373  0  3.66659  0  0  -0.090131  0  3.912524  0  0  -0.086444  0  3.930563  0  0  -0.066456  -0.092661  0  3.900879  0
C  C48  1  0.45050867  0.96802727  0.89568541  1  0  -0.092397  0  3.679947  0  0  -0.128337  0  3.92858  0  0  -0.127284  0  3.948199  0  0  -0.072191  -0.128552  0  3.914971  0
C  C49  1  0.09618985  0.60431601  0.46803122  1  0  -0.09267  0  3.680088  0  0  -0.128633  0  3.928711  0  0  -0.127596  0  3.948322  0  0  -0.072301  -0.128847  0  3.9151  0
C  C50  1  0.31421999  0.03195808  0.10431687  1  0  -0.092654  0  3.679764  0  0  -0.128619  0  3.928397  0  0  -0.127556  0  3.948023  0  0  -0.072268  -0.128836  0  3.914798  0
C  C51  1  0.16853713  0.39568331  0.53196632  1  0  -0.092717  0  3.680106  0  0  -0.128711  0  3.92874  0  0  -0.127674  0  3.948349  0  0  -0.072331  -0.128927  0  3.915135  0
C  C52  1  0.29949126  0.60431568  0.53197461  1  0  -0.092401  0  3.680153  0  0  -0.128355  0  3.928768  0  0  -0.127305  0  3.948386  0  0  -0.072189  -0.128564  0  3.915151  0
C  C53  1  0.58145989  0.96803320  0.10431957  1  0  -0.092694  0  3.680125  0  0  -0.128676  0  3.928757  0  0  -0.127633  0  3.94837  0  0  -0.072304  -0.128895  0  3.915157  0
C  C54  1  0.43578065  0.39568632  0.46803794  1  0  -0.092522  0  3.679981  0  0  -0.12848  0  3.928636  0  0  -0.127426  0  3.948254  0  0  -0.07229  -0.128699  0  3.91503  0
C  C55  1  0.65381106  0.03196477  0.89568505  1  0  -0.092696  0  3.680031  0  0  -0.128676  0  3.928664  0  0  -0.127632  0  3.948279  0  0  -0.072387  -0.12889  0  3.915057  0
C  C56  1  0.44037640  0.99999549  0.00000031  1  0  0.046426  0  3.783137  0  0  0.064832  0  4.017739  0  0  0.061989  0  4.044119  0  0  -0.005822  0.066506  0  3.999839  0
C  C57  1  0.19037527  0.50000058  0.50000043  1  0  0.04651  0  3.783196  0  0  0.064897  0  4.017814  0  0  0.062087  0  4.044145  0  0  -0.005854  0.06657  0  3.999917  0
C  C58  1  0.30962644  0.50000058  0.50000281  1  0  0.046336  0  3.783397  0  0  0.064756  0  4.017972  0  0  0.06191  0  4.044343  0  0  -0.005781  0.066423  0  4.000074  0
C  C59  1  0.55962678  0.99999628  0.00000269  1  0  0.046522  0  3.783366  0  0  0.064926  0  4.01797  0  0  0.062098  0  4.044333  0  0  -0.005785  0.066593  0  4.000077  0
O  O60  1  0.37499793  0.00453930  0.49545933  1  0  -1.042903  0  1.847475  0  0  -0.967741  0  2.093276  0  0  -0.997899  0  2.060293  0  0  -0.544488  -0.946055  0  2.116094  0
O  O61  1  0.62043007  0.00458033  0.50450283  1  0  -1.042667  0  1.847664  0  0  -0.96748  0  2.093434  0  0  -0.997643  0  2.060462  0  0  -0.544473  -0.945791  0  2.116251  0
O  O62  1  0.87500019  0.99545778  0.50454061  1  0  -1.042843  0  1.847398  0  0  -0.967678  0  2.093157  0  0  -0.997813  0  2.060124  0  0  -0.544454  -0.945999  0  2.115982  0
O  O63  1  0.12956303  0.99549209  0.49542806  1  0  -1.042679  0  1.84763  0  0  -0.967486  0  2.093396  0  0  -0.997642  0  2.060402  0  0  -0.544447  -0.945804  0  2.116215  0
O  O64  1  0.23233896  0.99683155  0.77207498  1  0  -0.645866  0  2.030692  0  0  -0.584014  0  2.278725  0  0  -0.612636  0  2.264514  0  0  -0.279852  -0.56408  0  2.287841  0
O  O65  1  0.75440588  0.72792770  0.49685316  1  0  -0.645919  0  2.03086  0  0  -0.584093  0  2.278828  0  0  -0.612711  0  2.264617  0  0  -0.279862  -0.56417  0  2.287945  0
O  O66  1  0.00125848  0.00313312  0.22792017  1  0  -0.645814  0  2.030485  0  0  -0.584029  0  2.278435  0  0  -0.612648  0  2.264223  0  0  -0.279802  -0.564106  0  2.287541  0
O  O67  1  0.97918812  0.27207825  0.50313630  1  0  -0.645761  0  2.030963  0  0  -0.583928  0  2.278906  0  0  -0.612546  0  2.2647  0  0  -0.279755  -0.564004  0  2.288013  0
O  O68  1  0.51766101  0.72792551  0.50316587  1  0  -0.645915  0  2.030743  0  0  -0.584057  0  2.278769  0  0  -0.612679  0  2.264557  0  0  -0.279862  -0.564126  0  2.287893  0
O  O69  1  0.77081173  0.99686366  0.22792353  1  0  -0.645796  0  2.030764  0  0  -0.583971  0  2.278719  0  0  -0.612591  0  2.264514  0  0  -0.279776  -0.564047  0  2.28782  0
O  O70  1  0.74874101  0.27207992  0.49686469  1  0  -0.645771  0  2.030786  0  0  -0.583997  0  2.27874  0  0  -0.612614  0  2.264525  0  0  -0.279789  -0.564082  0  2.287855  0
O  O71  1  0.99559639  0.00314291  0.77207645  1  0  -0.645846  0  2.030663  0  0  -0.584048  0  2.278664  0  0  -0.612668  0  2.264459  0  0  -0.279869  -0.564126  0  2.287767  0
O  O72  1  0.46496611  0.88394542  0.69931452  1  0  -0.666578  0  2.037294  0  0  -0.605819  0  2.283627  0  0  -0.633551  0  2.269396  0  0  -0.29038  -0.586573  0  2.292863  0
O  O73  1  0.91426730  0.80068413  0.38393384  1  0  -0.666517  0  2.037334  0  0  -0.605821  0  2.283632  0  0  -0.633552  0  2.269408  0  0  -0.290446  -0.586579  0  2.292849  0
O  O74  1  0.04819722  0.11606480  0.30066503  1  0  -0.666578  0  2.037204  0  0  -0.605875  0  2.283448  0  0  -0.633606  0  2.269217  0  0  -0.290408  -0.586643  0  2.292671  0
O  O75  1  0.09887974  0.19932195  0.61606495  1  0  -0.666581  0  2.037192  0  0  -0.605873  0  2.283482  0  0  -0.633606  0  2.269258  0  0  -0.29046  -0.58663  0  2.292695  0
O  O76  1  0.28503526  0.80068536  0.61605451  1  0  -0.666638  0  2.037198  0  0  -0.605882  0  2.283536  0  0  -0.633615  0  2.269301  0  0  -0.290413  -0.586635  0  2.29277  0
O  O77  1  0.65111652  0.88393628  0.30067989  1  0  -0.666463  0  2.037358  0  0  -0.605754  0  2.283651  0  0  -0.633485  0  2.269427  0  0  -0.290398  -0.586516  0  2.292866  0
O  O78  1  0.70181247  0.19933711  0.38392644  1  0  -0.666805  0  2.03689  0  0  -0.606106  0  2.283121  0  0  -0.633838  0  2.268893  0  0  -0.290494  -0.58687  0  2.292336  0
O  O79  1  0.83573219  0.11605921  0.69931848  1  0  -0.666465  0  2.037369  0  0  -0.605757  0  2.283671  0  0  -0.633487  0  2.269447  0  0  -0.290417  -0.586527  0  2.292891  0
