# generated using pymatgen
data_ZnH5C11NO7
_symmetry_space_group_name_H-M   'P 1'
_cell_length_a   7.98859559
_cell_length_b   8.69711982
_cell_length_c   12.88297124
_cell_angle_alpha   88.50412608
_cell_angle_beta   91.79074312
_cell_angle_gamma   94.28879680
_symmetry_Int_Tables_number   1
_chemical_formula_structural   ZnH5C11NO7
_chemical_formula_sum   'Zn2 H10 C22 N2 O14'
_cell_volume   891.88411993
_cell_formula_units_Z   2
loop_
 _symmetry_equiv_pos_site_id
 _symmetry_equiv_pos_as_xyz
  1  'x, y, z'
loop_
 _atom_site_type_symbol
 _atom_site_label
 _atom_site_symmetry_multiplicity
 _atom_site_fract_x
 _atom_site_fract_y
 _atom_site_fract_z
 _atom_site_occupancy
 _atom_site_pbe_bader_charge
 _atom_site_pbe_bader_spin_density
 _atom_site_pbe_cm5_charge
 _atom_site_pbe_ddec_charge
 _atom_site_pbe_ddec_spin_density
 _atom_site_pbe_ddec_sum_bond_order
 _atom_site_pbe_magmom
Zn  Zn0  1  0.32284995  0.50897620  0.51179884  1  1.301537  0  0.679266  0.818873  0  2.417493  0
Zn  Zn1  1  0.67711602  0.49105493  0.48820421  1  1.300621  0  0.679196  0.81865  0  2.417623  0
H  H2  1  0.67413575  0.01961516  0.45008467  1  0.100602  0  0.114812  0.139427  0  0.994269  0
H  H3  1  0.89956648  0.73106773  0.52692234  1  0.212553  0  0.138317  0.084578  0  1.020172  0
H  H4  1  0.32571427  0.98043848  0.54998755  1  0.100056  0  0.11496  0.139371  0  0.994694  0
H  H5  1  0.56021968  0.21322223  0.24625289  1  0.103499  0  0.111958  0.06083  0  0.974166  0
H  H6  1  0.43985647  0.78677573  0.75374373  1  0.104061  0  0.112059  0.061109  0  0.974181  0
H  H7  1  0.19170203  0.58635244  0.18375296  1  0.140372  0  0.118335  0.130224  0  0.985584  0
H  H8  1  0.80835449  0.41361720  0.81623147  1  0.139543  0  0.118504  0.130647  0  0.985666  0
H  H9  1  0.88373782  0.40278543  0.09754396  1  0.092538  0  0.111588  0.053091  0  0.967605  0
H  H10  1  0.11632544  0.59718805  0.90243134  1  0.092295  0  0.111554  0.053167  0  0.967317  0
H  H11  1  0.10041431  0.26896832  0.47304538  1  0.212964  0  0.138295  0.084502  0  1.02016  0
C  C12  1  0.53217867  0.79234212  0.46356054  1  1.535299  0  0.21934  0.644108  0  4.143184  0
C  C13  1  0.29594677  0.55117301  0.13948106  1  -0.011743  0  -0.057944  -0.092746  0  3.891142  0
C  C14  1  0.46215846  0.60043361  0.87048431  1  0.021588  0  0.001166  -0.028694  0  3.912605  0
C  C15  1  0.53790378  0.39954615  0.12950649  1  0.02257  0  0.001089  -0.028492  0  3.912394  0
C  C16  1  0.43927638  0.54759332  0.97543196  1  -0.018135  0  0.021517  0.035702  0  3.895098  0
C  C17  1  0.56077063  0.45236714  0.02455144  1  0.026706  0  0.021207  0.035164  0  3.89498  0
C  C18  1  0.55647458  0.96149292  0.47589938  1  -0.053377  0  -0.075023  -0.167495  0  3.86526  0
C  C19  1  0.44337353  0.03855069  0.52416424  1  0.066031  0  -0.074876  -0.166919  0  3.86563  0
C  C20  1  0.60911335  0.25685191  0.17064670  1  0.909339  0  0.104504  0.261538  0  3.942962  0
C  C21  1  0.39095399  0.74312899  0.82934424  1  0.907792  0  0.104281  0.260995  0  3.943078  0
C  C22  1  0.85970595  0.36506168  0.01649633  1  0.970116  0  0.099605  0.274552  0  4.001689  0
C  C23  1  0.46767884  0.20770367  0.53647848  1  1.534359  0  0.219137  0.643966  0  4.143849  0
C  C24  1  0.14034593  0.63489656  0.98348487  1  0.969207  0  0.099786  0.274677  0  4.000432  0
C  C25  1  0.98097198  0.30988301  0.44100706  1  1.228049  0  0.206813  0.353655  0  3.871945  0
C  C26  1  0.01898067  0.69011990  0.55898164  1  1.2278  0  0.207019  0.353768  0  3.87201  0
C  C27  1  0.57846857  0.55004233  0.69474876  1  1.606911  0  0.220725  0.594347  0  4.166457  0
C  C28  1  0.42161393  0.44997084  0.30524259  1  1.606719  0  0.220436  0.59416  0  4.165868  0
C  C29  1  0.41747818  0.46402900  0.18868568  1  -0.04011  0  0.011144  -0.021542  0  3.908258  0
C  C30  1  0.58258338  0.53595770  0.81130433  1  -0.039307  0  0.011246  -0.021261  0  3.908184  0
C  C31  1  0.70103032  0.41549268  0.96622240  1  3.1e-05  0  0.009901  0.017822  0  3.921052  0
C  C32  1  0.29901450  0.58447130  0.03375940  1  0.000857  0  0.009703  0.017335  0  3.921084  0
C  C33  1  0.70410357  0.44879779  0.86050321  1  -0.011203  0  -0.058193  -0.093347  0  3.89169  0
N  N34  1  0.93870089  0.45984705  0.47990685  1  -0.397019  0  -0.112191  -0.054784  0  3.24028  0
N  N35  1  0.06125253  0.54016415  0.52007643  1  -0.446261  0  -0.112211  -0.05478  0  3.240074  0
O  O36  1  0.38348398  0.72939851  0.46389589  1  -1.157404  0  -0.315836  -0.542749  0  2.333778  0
O  O37  1  0.29521935  0.81932891  0.87612433  1  -1.037427  0  -0.222086  -0.300859  0  2.151958  0
O  O38  1  0.96860861  0.30818780  0.96823122  1  -1.059375  0  -0.255247  -0.341122  0  2.094034  0
O  O39  1  0.03142861  0.69174592  0.03175734  1  -1.058369  0  -0.255412  -0.341257  0  2.093232  0
O  O40  1  0.88321795  0.24435722  0.38072959  1  -1.023587  0  -0.192693  -0.275391  0  2.146488  0
O  O41  1  0.11670394  0.75561426  0.61929400  1  -1.022669  0  -0.192973  -0.27561  0  2.146408  0
O  O42  1  0.61637170  0.27065051  0.53612056  1  -1.15651  0  -0.315685  -0.542566  0  2.333986  0
O  O43  1  0.66662120  0.72184273  0.45730230  1  -1.160483  0  -0.31464  -0.543925  0  2.311248  0
O  O44  1  0.33323462  0.27819736  0.54273511  1  -1.160817  0  -0.314598  -0.544029  0  2.311581  0
O  O45  1  0.43192543  0.55706758  0.65354057  1  -1.160022  0  -0.309497  -0.553411  0  2.390005  0
O  O46  1  0.56817218  0.44298894  0.34643413  1  -1.159699  0  -0.309346  -0.553202  0  2.389718  0
O  O47  1  0.71383356  0.54312289  0.64638808  1  -1.16096  0  -0.313451  -0.54547  0  2.302615  0
O  O48  1  0.28625641  0.45686206  0.35361666  1  -1.160913  0  -0.313423  -0.545493  0  2.302095  0
O  O49  1  0.70483356  0.18064298  0.12386157  1  -1.038622  0  -0.222135  -0.301113  0  2.152123  0
