# generated using pymatgen
data_BaCuH8(C5O4)2
_symmetry_space_group_name_H-M   'P 1'
_cell_length_a   8.95677144
_cell_length_b   9.33707824
_cell_length_c   9.33704655
_cell_angle_alpha   64.87454777
_cell_angle_beta   62.56192168
_cell_angle_gamma   62.56192456
_symmetry_Int_Tables_number   1
_chemical_formula_structural   BaCuH8(C5O4)2
_chemical_formula_sum   'Ba2 Cu2 H16 C20 O16'
_cell_volume   592.30430374
_cell_formula_units_Z   2
loop_
 _symmetry_equiv_pos_site_id
 _symmetry_equiv_pos_as_xyz
  1  'x, y, z'
loop_
 _atom_site_type_symbol
 _atom_site_label
 _atom_site_symmetry_multiplicity
 _atom_site_fract_x
 _atom_site_fract_y
 _atom_site_fract_z
 _atom_site_occupancy
 _atom_site_hle17_ddec_charge
 _atom_site_hle17_ddec_spin_density
 _atom_site_hle17_ddec_sum_bond_order
 _atom_site_hle17_magmom
 _atom_site_hse06_10hf_ddec_charge
 _atom_site_hse06_10hf_ddec_spin_density
 _atom_site_hse06_10hf_ddec_sum_bond_order
 _atom_site_hse06_10hf_magmom
 _atom_site_hse06_ddec_charge
 _atom_site_hse06_ddec_spin_density
 _atom_site_hse06_ddec_sum_bond_order
 _atom_site_hse06_magmom
 _atom_site_pbe_cm5_charge
 _atom_site_pbe_ddec_charge
 _atom_site_pbe_ddec_spin_density
 _atom_site_pbe_ddec_sum_bond_order
 _atom_site_pbe_magmom
Ba  Ba0  1  0.24999862  0.03459504  0.96540589  1  1.680047  0.000492  1.121287  0.0  1.53326  -0.000869  1.527482  -0.001  1.578737  -0.000166  1.477827  -0.001  0.951462  1.499393  -0.001651  1.562745  -0.002
Ba  Ba1  1  0.75000064  0.96540671  0.03459361  1  1.680045  0.000485  1.121296  0.0  1.533257  -0.000872  1.527495  -0.001  1.578734  -0.000163  1.477833  -0.001  0.951458  1.499389  -0.00165  1.562753  -0.002
Cu  Cu2  1  0.49999945  0.00000063  0.50000195  1  0.991782  -0.676883  1.753679  -0.503  0.990832  -0.7756  2.150213  -0.627  1.08724  -0.841342  2.071487  -0.717  0.742772  0.924016  -0.726433  2.21236  -0.566
Cu  Cu3  1  0.99999659  0.50000369  0.99999876  1  0.991797  -0.676881  1.753699  -0.503  0.990827  -0.7756  2.150302  -0.627  1.087276  -0.841346  2.071508  -0.717  0.742786  0.924014  -0.726431  2.212415  -0.566
H  H4  1  0.35468527  0.55937303  0.49332479  1  0.115807  -2.4e-05  0.955293  0.0  0.135626  -1.1e-05  1.004922  0.0  0.137297  -1.4e-05  1.005729  0.0  0.108031  0.134337  -4e-06  1.004512  0.0
H  H5  1  0.14531727  0.50667044  0.44063047  1  0.115835  -1.9e-05  0.955316  0.0  0.135645  -1.1e-05  1.004949  0.0  0.137315  -1.4e-05  1.005755  0.0  0.108043  0.134354  -4e-06  1.004539  0.0
H  H6  1  0.64531576  0.44062370  0.50667605  1  0.115797  -2.4e-05  0.955319  0.0  0.135639  -1.1e-05  1.004915  0.0  0.13731  -1.5e-05  1.005723  0.0  0.108041  0.134349  -4e-06  1.004509  0.0
H  H7  1  0.85468628  0.49332629  0.55937032  1  0.115862  -1.7e-05  0.955264  0.0  0.135656  -1.1e-05  1.004921  0.0  0.137328  -1.4e-05  1.005728  0.0  0.108046  0.134368  -4e-06  1.004512  0.0
H  H8  1  0.22193707  0.57558961  0.70922114  1  0.103791  0.001035  0.976483  0.0  0.106788  0.001059  1.056451  0.0  0.109916  0.001085  1.052345  0.0  0.099992  0.104543  0.000971  1.05934  0.0
H  H9  1  0.27806582  0.29077774  0.42441094  1  0.103794  0.001039  0.976455  0.0  0.106792  0.001059  1.056424  0.0  0.109918  0.001086  1.052321  0.0  0.099983  0.104546  0.000971  1.059313  0.0
H  H10  1  0.77806389  0.42441089  0.29077813  1  0.103798  0.001036  0.976458  0.0  0.106788  0.001059  1.05643  0.0  0.109925  0.001085  1.052316  0.0  0.099991  0.104546  0.000971  1.059314  0.0
H  H11  1  0.72193809  0.70922151  0.57558435  1  0.103836  0.001039  0.97643  0.0  0.106835  0.001059  1.05638  0.0  0.109973  0.001085  1.052266  0.0  0.100014  0.104591  0.000971  1.059267  0.0
H  H12  1  0.97472780  0.81307747  0.60830217  1  0.119305  1.6e-05  0.946025  0.0  0.135351  6.8e-05  1.001401  0.0  0.137071  9.1e-05  1.001714  0.0  0.109267  0.134044  1.8e-05  1.001309  0.0
H  H13  1  0.52527150  0.39170002  0.18692126  1  0.119293  1.4e-05  0.946043  0.0  0.135357  6.8e-05  1.001396  0.0  0.137078  9.1e-05  1.001706  0.0  0.109261  0.134048  1.8e-05  1.001305  0.0
H  H14  1  0.02527235  0.18692177  0.39169800  1  0.119311  1.9e-05  0.946079  0.0  0.135359  6.8e-05  1.001452  0.0  0.13708  9.1e-05  1.001765  0.0  0.109273  0.13405  1.8e-05  1.001357  0.0
H  H15  1  0.47472857  0.60830298  0.81307520  1  0.119281  1.2e-05  0.946054  0.0  0.135327  6.8e-05  1.001432  0.0  0.137047  9.1e-05  1.001745  0.0  0.109251  0.134019  1.8e-05  1.00134  0.0
H  H16  1  0.10872349  0.79691795  0.39021415  1  0.124088  -0.000143  0.967096  0.0  0.136338  -9.4e-05  1.029595  0.0  0.139459  -4.5e-05  1.028229  0.0  0.11281  0.134005  -0.000153  1.030763  0.0
H  H17  1  0.39127837  0.60978296  0.20308170  1  0.124089  -0.000148  0.967129  0.0  0.136336  -9.5e-05  1.029634  0.0  0.13946  -4.5e-05  1.028258  0.0  0.112807  0.134007  -0.000153  1.030794  0.0
H  H18  1  0.89127836  0.20308004  0.60978473  1  0.124072  -0.000142  0.967158  0.0  0.136328  -9.5e-05  1.029654  0.0  0.139448  -4.5e-05  1.028282  0.0  0.112811  0.134006  -0.000153  1.030798  0.0
H  H19  1  0.60872430  0.39021628  0.79691735  1  0.124108  -0.000145  0.967091  0.0  0.136354  -9.4e-05  1.029598  0.0  0.139477  -4.5e-05  1.028221  0.0  0.112825  0.134022  -0.000153  1.030762  0.0
C  C20  1  0.24676321  0.81925921  0.52184425  1  -0.19084  0.001455  3.647681  0.0  -0.156418  0.000814  3.880578  0.0  -0.171222  0.000773  3.897841  0.0  -0.027273  -0.146615  0.000886  3.868849  0.0
C  C21  1  0.25323628  0.47815643  0.18073932  1  -0.190899  0.001483  3.647767  0.001  -0.156486  0.000792  3.880679  0.0  -0.17129  0.000789  3.897944  0.0  -0.027296  -0.14668  0.000886  3.868945  0.0
C  C22  1  0.75323739  0.18073877  0.47815626  1  -0.190966  0.001463  3.647812  0.0  -0.156504  0.000812  3.880679  0.0  -0.171307  0.000773  3.897944  0.0  -0.027303  -0.146694  0.000886  3.868943  0.0
C  C23  1  0.74676424  0.52184532  0.81925748  1  -0.190918  0.001466  3.647767  0.0  -0.15645  0.000796  3.880597  0.0  -0.171253  0.000786  3.897856  0.0  -0.027271  -0.14665  0.000886  3.868881  0.0
C  C24  1  0.19076890  0.88706892  0.66567389  1  0.694453  0.006875  3.846018  0.006  0.650803  0.00162  4.137716  0.001  0.688952  0.001348  4.130087  0.001  0.234325  0.62456  0.001785  4.141873  0.002
C  C25  1  0.30923021  0.33432617  0.11292967  1  0.694522  0.00687  3.845944  0.006  0.650837  0.001622  4.137695  0.001  0.688987  0.001348  4.130066  0.001  0.234365  0.624595  0.001786  4.141847  0.002
C  C26  1  0.80923044  0.11292906  0.33432610  1  0.694502  0.006868  3.846051  0.006  0.650825  0.001621  4.13777  0.001  0.688975  0.001347  4.130139  0.001  0.23436  0.624579  0.001785  4.141924  0.002
C  C27  1  0.69076735  0.66567683  0.88706792  1  0.694516  0.006886  3.84599  0.006  0.65086  0.00162  4.137676  0.001  0.68901  0.001348  4.130047  0.001  0.234389  0.624619  0.001786  4.141829  0.002
C  C28  1  0.24985831  0.63733607  0.57571998  1  -0.152912  0.001187  3.598835  0.001  -0.19821  0.000761  3.851241  0.001  -0.199015  0.000771  3.863061  0.001  -0.155013  -0.197254  0.000692  3.842944  0.0
C  C29  1  0.25014158  0.42428122  0.36266403  1  -0.152923  0.001131  3.598834  0.001  -0.198202  0.000774  3.851217  0.001  -0.199002  0.000758  3.863036  0.001  -0.155013  -0.197243  0.000692  3.842913  0.0
C  C30  1  0.75014229  0.36266191  0.42428052  1  -0.152874  0.001196  3.598842  0.001  -0.198185  0.000758  3.851227  0.001  -0.198998  0.000773  3.863039  0.001  -0.155015  -0.197231  0.000692  3.842928  0.0
C  C31  1  0.74986026  0.57571677  0.63733485  1  -0.152994  0.001134  3.598892  0.001  -0.198275  0.000771  3.851269  0.001  -0.199091  0.00076  3.863084  0.001  -0.155041  -0.19732  0.000692  3.842972  0.0
C  C32  1  0.10512980  0.77751285  0.51513757  1  -0.171244  0.000399  3.631521  0.0  -0.223161  0.00017  3.884975  0.0  -0.223719  0.000291  3.897185  0.0  -0.166745  -0.222639  -5e-06  3.876805  0.0
C  C33  1  0.39487020  0.48486109  0.22248643  1  -0.171218  0.000419  3.631565  0.0  -0.223146  0.000179  3.885014  0.0  -0.223701  0.000284  3.897212  0.0  -0.16673  -0.222628  -5e-06  3.876849  0.0
C  C34  1  0.89487204  0.22248514  0.48486131  1  -0.171217  0.000378  3.631642  0.0  -0.223153  0.000175  3.885092  0.0  -0.223706  0.00029  3.897294  0.0  -0.16675  -0.222631  -5e-06  3.876925  0.0
C  C35  1  0.60513076  0.51513941  0.77751177  1  -0.171212  0.000423  3.631579  0.0  -0.223133  0.000178  3.88502  0.0  -0.223689  0.000287  3.897223  0.0  -0.16676  -0.22261  -5e-06  3.876855  0.0
C  C36  1  0.39244836  0.85673517  0.36105659  1  0.693719  0.00442  3.848472  0.004  0.647199  -0.000453  4.138323  0.0  0.685135  0.000159  4.130075  0.0  0.231115  0.62106  -0.001323  4.143261  -0.001
C  C37  1  0.10755135  0.63893977  0.14326628  1  0.693672  0.004437  3.848488  0.004  0.6472  -0.000453  4.13827  0.0  0.685128  0.000161  4.13003  0.0  0.231128  0.621054  -0.001323  4.143221  -0.001
C  C38  1  0.60755179  0.14326407  0.63894251  1  0.693698  0.004428  3.848408  0.004  0.647169  -0.000452  4.138259  0.0  0.685097  0.000159  4.130018  0.0  0.231086  0.621025  -0.001323  4.143207  -0.001
C  C39  1  0.89245006  0.36105947  0.85673226  1  0.693726  0.004437  3.848421  0.004  0.647194  -0.000453  4.138281  0.0  0.68513  0.00016  4.130029  0.0  0.231123  0.621054  -0.001322  4.143226  -0.001
O  O40  1  0.27665961  0.96998059  0.66136268  1  -0.668747  -0.075499  2.106558  -0.105  -0.633956  -0.050577  2.404109  -0.077  -0.676205  -0.038335  2.388413  -0.064  -0.33965  -0.605095  -0.057738  2.414405  -0.083
O  O41  1  0.22333598  0.33863665  0.03002094  1  -0.668786  -0.075497  2.106545  -0.105  -0.633975  -0.050576  2.404124  -0.077  -0.676232  -0.038333  2.38842  -0.064  -0.339664  -0.605116  -0.057739  2.414413  -0.083
O  O42  1  0.72333589  0.03002115  0.33863850  1  -0.668753  -0.075498  2.106634  -0.105  -0.633961  -0.050578  2.40422  -0.077  -0.676206  -0.038336  2.388507  -0.064  -0.339643  -0.605101  -0.05774  2.414517  -0.083
O  O43  1  0.77665996  0.66136383  0.96998057  1  -0.668802  -0.075503  2.106581  -0.105  -0.634017  -0.050579  2.404161  -0.077  -0.676272  -0.038335  2.388451  -0.064  -0.339688  -0.605158  -0.05774  2.414452  -0.083
O  O44  1  0.52598147  0.87256352  0.36708410  1  -0.683677  -0.065189  2.135772  -0.09  -0.638475  -0.045634  2.422818  -0.068  -0.681015  -0.034605  2.409153  -0.057  -0.369508  -0.609349  -0.052232  2.431812  -0.074
O  O45  1  0.97401500  0.63291408  0.12744171  1  -0.683636  -0.065185  2.13571  -0.09  -0.638432  -0.045632  2.422719  -0.068  -0.680995  -0.034602  2.409095  -0.057  -0.369505  -0.609305  -0.052229  2.431709  -0.074
O  O46  1  0.47401743  0.12743571  0.63291770  1  -0.683654  -0.065189  2.135704  -0.09  -0.638442  -0.045634  2.422738  -0.068  -0.680992  -0.034604  2.409109  -0.057  -0.369501  -0.609316  -0.052231  2.431735  -0.074
O  O47  1  0.02598301  0.36708766  0.87255942  1  -0.68367  -0.065192  2.135694  -0.09  -0.638459  -0.045635  2.422741  -0.068  -0.681022  -0.034605  2.409106  -0.057  -0.36951  -0.609333  -0.052232  2.43173  -0.074
O  O48  1  0.05832290  0.86166564  0.78985804  1  -0.659114  -0.018735  2.001207  -0.025  -0.617782  -0.009038  2.259138  -0.014  -0.646741  -0.004254  2.250097  -0.007  -0.347395  -0.596064  -0.014406  2.264131  -0.02
O  O49  1  0.44167958  0.21014179  0.13832864  1  -0.659095  -0.018736  2.001106  -0.025  -0.617772  -0.009038  2.259106  -0.014  -0.646733  -0.004255  2.250061  -0.007  -0.34741  -0.59605  -0.014407  2.264091  -0.02
O  O50  1  0.94167776  0.13832859  0.21014189  1  -0.659098  -0.018734  2.001162  -0.025  -0.617773  -0.009039  2.259138  -0.014  -0.646732  -0.004254  2.250096  -0.007  -0.347419  -0.596052  -0.014406  2.264126  -0.02
O  O51  1  0.55832182  0.78985746  0.86166777  1  -0.659107  -0.018738  2.001183  -0.025  -0.617796  -0.009037  2.25916  -0.014  -0.646755  -0.004255  2.250119  -0.007  -0.347436  -0.596076  -0.014405  2.264147  -0.02
O  O52  1  0.39198748  0.86188198  0.22465269  1  -0.660557  -0.017599  1.964177  -0.023  -0.606159  -0.01045  2.204826  -0.015  -0.632908  -0.006509  2.194879  -0.01  -0.337076  -0.58725  -0.01445  2.211257  -0.02
O  O53  1  0.10801104  0.77534776  0.13812112  1  -0.660554  -0.017611  1.964168  -0.023  -0.606167  -0.010449  2.204776  -0.015  -0.632914  -0.006512  2.194833  -0.01  -0.33707  -0.587257  -0.014451  2.211213  -0.02
O  O54  1  0.60801394  0.13811726  0.77534799  1  -0.660528  -0.017604  1.964126  -0.023  -0.606136  -0.01045  2.204791  -0.015  -0.632881  -0.00651  2.194846  -0.01  -0.337055  -0.587229  -0.014451  2.211227  -0.02
O  O55  1  0.89198904  0.22465524  0.86187856  1  -0.660552  -0.017605  1.964211  -0.023  -0.606156  -0.010449  2.204862  -0.015  -0.632905  -0.00651  2.194914  -0.01  -0.337074  -0.587248  -0.01445  2.211293  -0.02
