# generated using pymatgen
data_NiH22C27(N2O3)2
_symmetry_space_group_name_H-M   'P 1'
_cell_length_a   10.31806593
_cell_length_b   10.72359271
_cell_length_c   11.80778507
_cell_angle_alpha   101.79067071
_cell_angle_beta   108.81617474
_cell_angle_gamma   100.54135302
_symmetry_Int_Tables_number   1
_chemical_formula_structural   NiH22C27(N2O3)2
_chemical_formula_sum   'Ni2 H44 C54 N8 O12'
_cell_volume   1166.10327536
_cell_formula_units_Z   2
loop_
 _symmetry_equiv_pos_site_id
 _symmetry_equiv_pos_as_xyz
  1  'x, y, z'
loop_
 _atom_site_type_symbol
 _atom_site_label
 _atom_site_symmetry_multiplicity
 _atom_site_fract_x
 _atom_site_fract_y
 _atom_site_fract_z
 _atom_site_occupancy
 _atom_site_pbe_bader_charge
 _atom_site_pbe_bader_spin_density
 _atom_site_pbe_cm5_charge
 _atom_site_pbe_ddec_charge
 _atom_site_pbe_ddec_spin_density
 _atom_site_pbe_ddec_sum_bond_order
 _atom_site_pbe_magmom
Ni  Ni0  1  0.50000148  0.00000116  0.50000055  1  1.185699  1.590428  0.626054  0.825797  1.78952  2.3294  1.58
Ni  Ni1  1  0.50000105  0.99999986  0.00000148  1  1.197354  1.584632  0.648713  0.83739  1.78781  2.417095  1.573
H  H2  1  0.41506143  0.67998097  0.16409403  1  0.108924  0.000356  0.10666  0.111773  0.000175  1.025065  0.0
H  H3  1  0.58493928  0.32001560  0.83589671  1  0.108658  0.000356  0.106619  0.111719  0.000175  1.024965  0.0
H  H4  1  0.41270944  0.47376037  0.02125364  1  0.089991  8.1e-05  0.104796  0.10864  1.5e-05  1.030178  0.0
H  H5  1  0.58728941  0.52623324  0.97873943  1  0.090104  8.1e-05  0.104852  0.108694  1.5e-05  1.030138  0.0
H  H6  1  0.28807787  0.45222136  0.38963626  1  0.106934  5.2e-05  0.105315  0.117634  2e-06  1.022955  0.0
H  H7  1  0.71190639  0.54778210  0.61035370  1  0.106635  5.2e-05  0.105293  0.11763  2e-06  1.023009  0.0
H  H8  1  0.52642334  0.25235353  0.39592863  1  0.169422  0.000415  0.137471  0.10642  -5.2e-05  1.015648  0.0
H  H9  1  0.47357714  0.74765293  0.60406641  1  0.169488  0.000415  0.137483  0.106381  -5.2e-05  1.015643  0.0
H  H10  1  0.14814411  0.84754788  0.33637799  1  0.086886  0.000122  0.102614  0.109345  -2.4e-05  1.038046  0.0
H  H11  1  0.85186330  0.15245762  0.66362728  1  0.086726  0.000122  0.102604  0.109357  -2.4e-05  1.037986  0.0
H  H12  1  0.89874693  0.81896141  0.19396766  1  0.090738  1.1e-05  0.097234  0.10518  1.8e-05  1.018131  0.0
H  H13  1  0.10125734  0.18104015  0.80604278  1  0.090778  1.1e-05  0.097208  0.105118  1.8e-05  1.018216  0.0
H  H14  1  0.83739990  0.98383179  0.08343622  1  0.11682  -7.9e-05  0.099844  0.103908  -0.000147  1.04035  0.0
H  H15  1  0.16260248  0.01616679  0.91657230  1  0.116777  -7.9e-05  0.099821  0.103915  -0.000147  1.040284  0.0
H  H16  1  0.02160362  0.18490089  0.10879286  1  0.083608  0.000391  0.097809  0.10565  0.000135  1.04274  0.0
H  H17  1  0.97839508  0.81509569  0.89120580  1  0.083534  0.000391  0.097791  0.105616  0.000135  1.042813  0.0
H  H18  1  0.68027750  0.25620699  0.19906867  1  0.104715  0.001809  0.117095  0.08867  0.000595  0.997076  0.001
H  H19  1  0.31972068  0.74379849  0.80093318  1  0.104748  0.001809  0.117064  0.088627  0.000595  0.996952  0.001
H  H20  1  0.86903867  0.45428968  0.22209830  1  0.071322  0.001004  0.103734  0.112208  0.000465  1.024458  0.0
H  H21  1  0.13096249  0.54571185  0.77790449  1  0.071373  0.001004  0.103675  0.112117  0.000465  1.024445  0.0
H  H22  1  0.85949922  0.25226653  0.86211564  1  0.092924  0.000791  0.103751  0.107117  0.000376  1.058683  0.0
H  H23  1  0.14049942  0.74773697  0.13788682  1  0.09283  0.000792  0.103731  0.107061  0.000376  1.058693  0.0
H  H24  1  0.67080258  0.06820464  0.85317727  1  0.140426  0.001715  0.120418  0.09591  0.000497  1.023308  0.001
H  H25  1  0.32919709  0.93179887  0.14682547  1  0.140359  0.001716  0.120412  0.095935  0.000497  1.023283  0.001
H  H26  1  0.02710108  0.56624400  0.13766398  1  0.076592  7.9e-05  0.106501  0.109056  6.8e-05  0.998756  0.0
H  H27  1  0.97290213  0.43375754  0.86234194  1  0.076636  7.9e-05  0.106486  0.109022  6.8e-05  0.998769  0.0
H  H28  1  0.70641214  0.14123940  0.47626422  1  0.637106  -0.000182  0.284807  0.361723  -0.000139  0.989972  0.0
H  H29  1  0.29358621  0.85876311  0.52373544  1  0.637152  -0.000182  0.284814  0.361741  -0.000139  0.989956  0.0
H  H30  1  0.73215871  0.99089573  0.44381457  1  0.621126  1.1e-05  0.283938  0.334267  0.000255  1.027379  0.0
H  H31  1  0.26783880  0.00910382  0.55618600  1  0.621148  1.1e-05  0.283923  0.334242  0.000255  1.027386  0.0
H  H32  1  0.63274225  0.89645068  0.15103294  1  0.646321  -2.6e-05  0.285415  0.373683  -7.6e-05  0.977136  0.0
H  H33  1  0.36725868  0.10354295  0.84896664  1  0.646211  -2.6e-05  0.28542  0.373675  -7.6e-05  0.977156  0.0
H  H34  1  0.61255263  0.00792916  0.25714719  1  0.651302  0.001781  0.292468  0.400709  0.001477  0.92034  0.003
H  H35  1  0.38745278  0.99206941  0.74285286  1  0.651249  0.001781  0.292476  0.400698  0.001477  0.920336  0.003
H  H36  1  0.61928316  0.74533648  0.32332244  1  0.127551  8e-05  0.112605  0.087145  5.9e-05  1.038722  0.0
H  H37  1  0.38071890  0.25466110  0.67667734  1  0.127525  8e-05  0.1126  0.087141  5.9e-05  1.038717  0.0
H  H38  1  0.67837663  0.53158617  0.33353689  1  0.071019  2.1e-05  0.102143  0.109442  1e-05  1.017194  0.0
H  H39  1  0.32162409  0.46841040  0.66645640  1  0.070984  2.1e-05  0.102144  0.109407  1e-05  1.017254  0.0
H  H40  1  0.09371166  0.76144996  0.60586847  1  0.068538  0.000281  0.107895  0.117916  0.000159  1.007626  0.0
H  H41  1  0.90628852  0.23854464  0.39412854  1  0.068516  0.000281  0.1079  0.117945  0.000159  1.007598  0.0
H  H42  1  0.01749904  0.96084350  0.58236501  1  0.117333  0.000102  0.110622  0.073287  9.1e-05  1.061948  0.0
H  H43  1  0.98250144  0.03915210  0.41763650  1  0.11732  0.000102  0.11062  0.073323  9.1e-05  1.061923  0.0
H  H44  1  0.84430735  0.41507079  0.44453165  1  0.083501  2e-05  0.103217  0.107725  1.4e-05  1.023786  0.0
H  H45  1  0.15569004  0.58492480  0.55546561  1  0.083561  2e-05  0.103218  0.107771  1.4e-05  1.023696  0.0
C  C46  1  0.34693135  0.70690797  0.36926103  1  1.555551  -0.000833  0.202666  0.551224  -0.00138  4.225192  -0.001
C  C47  1  0.65307267  0.29309652  0.63073549  1  1.55565  -0.000832  0.202601  0.551108  -0.001381  4.225077  -0.001
C  C48  1  0.34872209  0.58081937  0.28540363  1  0.006051  0.005682  -0.015011  -0.020324  0.003337  3.96532  0.004
C  C49  1  0.65126980  0.41918213  0.71458725  1  0.006246  0.005682  -0.015081  -0.020345  0.003337  3.965127  0.004
C  C50  1  0.38750430  0.58555348  0.18273382  1  -0.073164  0.00055  -0.081456  -0.092654  0.00027  3.98136  0.0
C  C51  1  0.61249197  0.41444901  0.81725762  1  -0.072935  0.00055  -0.081423  -0.092534  0.000271  3.981163  0.0
C  C52  1  0.38959375  0.47099389  0.10441363  1  0.031878  0.000336  -0.081837  -0.088809  -3.7e-05  3.978076  0.0
C  C53  1  0.61040316  0.52900367  0.89557878  1  0.031869  0.000336  -0.081898  -0.088947  -3.7e-05  3.978286  0.0
C  C54  1  0.36442938  0.34872142  0.13000943  1  -0.05877  0.006323  -0.008936  -0.094154  0.003672  3.917404  0.005
C  C55  1  0.63556653  0.65127614  0.86998778  1  -0.058798  0.006323  -0.008912  -0.094103  0.003672  3.917504  0.005
C  C56  1  0.33119670  0.34545275  0.23628414  1  0.310319  0.000387  0.094478  0.147916  7.1e-05  3.976522  0.0
C  C57  1  0.66879754  0.65454974  0.76371098  1  0.31033  0.000387  0.094433  0.147897  7e-05  3.976747  0.0
C  C58  1  0.31840540  0.45885114  0.31030608  1  -0.050172  0.000956  -0.082748  -0.17556  0.000438  3.933147  0.001
C  C59  1  0.68158313  0.54114935  0.68968369  1  -0.049922  0.000956  -0.082606  -0.175557  0.000438  3.933205  0.001
C  C60  1  0.38017704  0.23271070  0.04244628  1  1.592909  -0.000596  0.20854  0.570395  -0.001139  4.206797  -0.001
C  C61  1  0.61982427  0.76728787  0.95755348  1  1.592921  -0.000595  0.208612  0.570459  -0.001139  4.206865  -0.001
C  C62  1  0.41734435  0.19153985  0.35424116  1  1.004004  -0.00413  0.161812  0.150735  -0.005128  3.898646  -0.002
C  C63  1  0.58265866  0.80846464  0.64575762  1  1.003996  -0.004131  0.161759  0.150722  -0.005129  3.898706  -0.002
C  C64  1  0.22578036  0.03315473  0.30187287  1  0.360773  0.001362  0.086926  0.139049  0.000846  4.03544  0.001
C  C65  1  0.77422381  0.96685373  0.69813289  1  0.360772  0.001362  0.086979  0.13901  0.000846  4.035464  0.001
C  C66  1  0.12170209  0.92046881  0.28708674  1  -0.030435  0.000921  -0.094918  -0.163483  0.00033  3.990282  0.001
C  C67  1  0.87830039  0.07953372  0.71291999  1  -0.030366  0.000921  -0.094871  -0.16346  0.000329  3.990281  0.001
C  C68  1  0.98293248  0.90506180  0.20753303  1  -0.095416  -0.000505  -0.100069  -0.098079  -0.00055  4.010102  0.0
C  C69  1  0.01707149  0.09493876  0.79247545  1  -0.095241  -0.000505  -0.100061  -0.097982  -0.000551  4.010164  0.0
C  C70  1  0.94711241  0.99918386  0.14399561  1  -0.026411  0.000325  -0.095321  -0.073229  0.000172  3.991154  0.0
C  C71  1  0.05288325  0.00081273  0.85600728  1  -0.026394  0.000325  -0.095347  -0.073317  0.000172  3.99156  0.0
C  C72  1  0.04878536  0.11224990  0.15809726  1  -0.030021  0.000201  -0.096316  -0.159114  8e-06  4.005426  0.0
C  C73  1  0.95121962  0.88775066  0.84190812  1  -0.030009  0.000201  -0.096284  -0.159062  8e-06  4.00545  0.0
C  C74  1  0.18726021  0.12720674  0.23769212  1  0.331244  0.003187  0.09409  0.096467  0.001786  3.997764  0.002
C  C75  1  0.81273509  0.87279577  0.76231007  1  0.33159  0.003187  0.094057  0.096435  0.001787  3.997365  0.002
C  C76  1  0.72333752  0.26106802  0.12656878  1  0.436391  -0.004338  0.04685  0.096013  -0.005165  3.944403  -0.003
C  C77  1  0.27666141  0.73893647  0.87343395  1  0.436098  -0.004339  0.04693  0.096189  -0.005166  3.944329  -0.003
C  C78  1  0.82814483  0.37038829  0.13863021  1  -0.013993  0.004684  -0.082845  -0.176889  0.002562  3.919922  0.004
C  C79  1  0.17185688  0.62961522  0.86137141  1  -0.013951  0.004684  -0.082766  -0.176786  0.002562  3.919784  0.004
C  C80  1  0.87903030  0.37322782  0.04177721  1  0.003696  -0.006214  0.006027  0.138731  -0.006932  4.035455  -0.004
C  C81  1  0.12097012  0.62677470  0.95822641  1  0.003719  -0.006215  0.005939  0.138591  -0.006933  4.03537  -0.004
C  C82  1  0.82315503  0.25981991  0.93916844  1  -0.048623  0.004308  -0.079811  -0.16632  0.002449  3.933603  0.004
C  C83  1  0.17684799  0.74018459  0.06083373  1  -0.048568  0.004308  -0.079687  -0.166094  0.002448  3.93349  0.004
C  C84  1  0.71807888  0.15522519  0.93356653  1  0.459002  -0.004121  0.051289  0.09821  -0.004974  3.923821  -0.003
C  C85  1  0.28191864  0.84477436  0.06643573  1  0.458884  -0.00412  0.051198  0.098055  -0.004973  3.924031  -0.003
C  C86  1  0.98117926  0.48998618  0.04800332  1  -0.07228  -0.003059  -0.076033  -0.107768  -0.003532  3.929856  -0.001
C  C87  1  0.01882498  0.51001536  0.95200203  1  0.032112  -0.003038  -0.076026  -0.107711  -0.003531  3.929816  -0.001
C  C88  1  0.72417673  0.74391544  0.38271997  1  0.49752  0.000227  0.046311  0.105277  0.000102  3.944887  0.0
C  C89  1  0.27582021  0.25608213  0.61727923  1  0.4975  0.000227  0.046314  0.105224  0.000102  3.94507  0.0
C  C90  1  0.75763406  0.62496201  0.38993768  1  -0.106999  0.000181  -0.089553  -0.191073  8.8e-05  3.933963  0.0
C  C91  1  0.24236726  0.37503656  0.61006207  1  -0.106908  0.000181  -0.089569  -0.190979  8.8e-05  3.933892  0.0
C  C92  1  0.89366656  0.62672016  0.46893681  1  0.034449  9.4e-05  0.003552  0.140703  3.3e-05  4.041643  0.0
C  C93  1  0.10633082  0.37327543  0.53105876  1  0.033936  9.3e-05  0.003571  0.140579  3.3e-05  4.041615  0.0
C  C94  1  0.98842817  0.75146654  0.53899094  1  -0.055591  0.000329  -0.083049  -0.165508  0.000239  3.914527  0.0
C  C95  1  0.01157332  0.24852906  0.46100832  1  -0.055037  0.000328  -0.083065  -0.165528  0.000239  3.914713  0.0
C  C96  1  0.94550634  0.86439288  0.52637923  1  0.483301  0.000142  0.041362  0.086247  0.000121  3.991527  0.0
C  C97  1  0.05449323  0.13560667  0.47362276  1  0.483191  0.000142  0.041363  0.086257  0.000121  3.991642  0.0
C  C98  1  0.93240192  0.50415567  0.47705292  1  -0.096189  9.8e-05  -0.081652  -0.122548  4.9e-05  3.967164  0.0
C  C99  1  0.06759576  0.49584091  0.52294629  1  -0.004754  9.8e-05  -0.081649  -0.122497  4.9e-05  3.967059  0.0
N  N100  1  0.31178368  0.22692514  0.27417212  1  -1.241096  0.001552  -0.230122  -0.058014  0.00056  3.771619  0.001
N  N101  1  0.68821280  0.77307440  0.72582816  1  -1.241076  0.001552  -0.230065  -0.057923  0.00056  3.771738  0.001
N  N102  1  0.37101883  0.07735068  0.37417636  1  -1.185733  0.058913  -0.347569  -0.346203  0.033898  3.522974  0.053
N  N103  1  0.62898447  0.92265481  0.62582523  1  -1.186225  0.058915  -0.347599  -0.346143  0.033899  3.523014  0.053
N  N104  1  0.66640291  0.15557047  0.02466935  1  -1.19742  0.066499  -0.327247  -0.229443  0.038334  3.574482  0.06
N  N105  1  0.33359573  0.84443304  0.97533311  1  -1.197145  0.0665  -0.327249  -0.229522  0.038335  3.574678  0.06
N  N106  1  0.81572142  0.86257374  0.44956471  1  -1.22371  0.00115  -0.311017  -0.247612  0.000515  3.393827  0.001
N  N107  1  0.18427758  0.13742384  0.55043760  1  -1.223684  0.00115  -0.311022  -0.247593  0.000515  3.39393  0.001
O  O108  1  0.42377251  0.81269025  0.36545977  1  -1.147632  0.068253  -0.30676  -0.542516  0.037476  2.339363  0.063
O  O109  1  0.57623243  0.18731030  0.63453967  1  -1.147595  0.068261  -0.306743  -0.542531  0.03748  2.339341  0.063
O  O110  1  0.27355166  0.70061873  0.43740004  1  -1.170254  0.000431  -0.330759  -0.572923  -0.000588  2.166044  0.001
O  O111  1  0.72644740  0.29938278  0.56259370  1  -1.17042  0.000431  -0.330711  -0.57279  -0.000588  2.165935  0.001
O  O112  1  0.41485127  0.13857362  0.08630103  1  -1.149434  0.072974  -0.311568  -0.562266  0.040141  2.33484  0.068
O  O113  1  0.58515092  0.86142792  0.91370291  1  -1.149424  0.072971  -0.311595  -0.562264  0.040139  2.334958  0.068
O  O114  1  0.36182479  0.24090146  0.93322824  1  -1.175427  -9.1e-05  -0.312796  -0.539522  -0.00114  2.172107  0.0
O  O115  1  0.63818051  0.75909316  0.06677105  1  -1.175462  -9.1e-05  -0.312858  -0.539588  -0.00114  2.171985  0.0
O  O116  1  0.66202151  0.04635746  0.42479061  1  -1.239239  0.066556  -0.55386  -0.729915  0.036752  2.265205  0.058
O  O117  1  0.33797963  0.95364406  0.57520794  1  -1.239273  0.066553  -0.553854  -0.729901  0.036751  2.265169  0.058
O  O118  1  0.62226356  0.98882357  0.17517852  1  -1.271655  0.060888  -0.586374  -0.776088  0.033679  2.179761  0.053
O  O119  1  0.37773737  0.01117005  0.82482021  1  -1.271513  0.060889  -0.586371  -0.776052  0.033679  2.179738  0.053
