# generated using pymatgen
data_LaNiH16C12(NO4)3
_symmetry_space_group_name_H-M   'P 1'
_cell_length_a   8.54900786
_cell_length_b   9.77707124
_cell_length_c   12.85705393
_cell_angle_alpha   67.65168317
_cell_angle_beta   81.00175872
_cell_angle_gamma   65.73104864
_symmetry_Int_Tables_number   1
_chemical_formula_structural   LaNiH16C12(NO4)3
_chemical_formula_sum   'La2 Ni2 H32 C24 N6 O24'
_cell_volume   906.09248684
_cell_formula_units_Z   2
loop_
 _symmetry_equiv_pos_site_id
 _symmetry_equiv_pos_as_xyz
  1  'x, y, z'
loop_
 _atom_site_type_symbol
 _atom_site_label
 _atom_site_symmetry_multiplicity
 _atom_site_fract_x
 _atom_site_fract_y
 _atom_site_fract_z
 _atom_site_occupancy
 _atom_site_hle17_ddec_charge
 _atom_site_hle17_ddec_spin_density
 _atom_site_hle17_ddec_sum_bond_order
 _atom_site_hle17_magmom
 _atom_site_hse06_10hf_ddec_charge
 _atom_site_hse06_10hf_ddec_spin_density
 _atom_site_hse06_10hf_ddec_sum_bond_order
 _atom_site_hse06_10hf_magmom
 _atom_site_hse06_ddec_charge
 _atom_site_hse06_ddec_spin_density
 _atom_site_hse06_ddec_sum_bond_order
 _atom_site_hse06_magmom
 _atom_site_pbe_cm5_charge
 _atom_site_pbe_ddec_charge
 _atom_site_pbe_ddec_spin_density
 _atom_site_pbe_ddec_sum_bond_order
 _atom_site_pbe_magmom
La  La0  1  0.75003508  0.00606326  0.98780320  1  2.143414  0.000961  1.747026  0.0  2.016569  -0.000121  2.251239  0.0  2.124479  0.000161  2.148361  0.0  1.406638  1.934657  -0.000744  2.324465  -0.001
La  La1  1  0.24996510  0.99393606  0.01219700  1  2.143396  0.001022  1.747014  0.0  2.016555  -0.00013  2.251243  0.0  2.124461  0.000172  2.148367  0.0  1.406642  1.934651  -0.000744  2.324469  -0.001
Ni  Ni2  1  0.25002331  0.83696492  0.32594478  1  0.780585  -1.734465  2.070611  -1.483  0.78638  -1.801869  2.456464  -1.607  0.879242  -1.856852  2.386466  -1.695  0.634273  0.717386  -1.752891  2.508709  -1.532
Ni  Ni3  1  0.74997569  0.16303529  0.67405452  1  0.780561  -1.73446  2.070627  -1.483  0.786365  -1.80187  2.456486  -1.607  0.87923  -1.856854  2.386484  -1.695  0.634266  0.717357  -1.752887  2.508745  -1.532
H  H4  1  0.41275611  0.80321950  0.49831944  1  0.265381  0.00168  0.956024  0.002  0.250796  0.000575  1.023205  0.001  0.258386  0.000722  1.018526  0.001  0.28682  0.245436  0.000396  1.026387  0.001
H  H5  1  0.08721756  0.69837048  0.49838081  1  0.263699  0.001682  0.95785  0.002  0.249191  0.000575  1.024956  0.001  0.256789  0.000722  1.020306  0.001  0.286678  0.243847  0.000393  1.02809  0.001
H  H6  1  0.58724406  0.19677904  0.50168154  1  0.265373  0.00168  0.956039  0.002  0.250793  0.000575  1.023207  0.001  0.258383  0.000722  1.018527  0.001  0.286813  0.245436  0.000396  1.02639  0.001
H  H7  1  0.91278143  0.30162973  0.50161848  1  0.263687  0.001682  0.957834  0.002  0.249177  0.000575  1.024952  0.001  0.256775  0.000723  1.020302  0.001  0.286673  0.243835  0.000393  1.028085  0.001
H  H8  1  0.64533429  0.41267668  0.25376542  1  0.295351  8e-06  0.901113  0.0  0.274433  -2.2e-05  0.965945  0.0  0.283609  -1.4e-05  0.958905  0.0  0.305993  0.267942  -2.4e-05  0.970929  0.0
H  H9  1  0.85460901  0.33359325  0.25367990  1  0.295452  9e-06  0.901607  0.0  0.274592  -2.1e-05  0.966196  0.0  0.283743  -1.4e-05  0.95923  0.0  0.306498  0.268096  -2.5e-05  0.971196  0.0
H  H10  1  0.35466775  0.58732407  0.74623454  1  0.29534  8e-06  0.901175  0.0  0.274423  -2.2e-05  0.966001  0.0  0.283603  -1.4e-05  0.95895  0.0  0.306001  0.267931  -2.4e-05  0.970984  0.0
H  H11  1  0.14539067  0.66640620  0.74632136  1  0.295437  9e-06  0.901624  0.0  0.274574  -2.1e-05  0.966219  0.0  0.283725  -1.4e-05  0.959252  0.0  0.306485  0.268077  -2.5e-05  0.971217  0.0
H  H12  1  0.54525548  0.01477712  0.37536775  1  0.090035  -0.001749  0.928026  -0.002  0.105344  -0.001427  0.990088  -0.001  0.107551  -0.001014  0.987879  -0.001  0.10893  0.104034  -0.001689  0.991315  -0.002
H  H13  1  0.95478993  0.60978806  0.37537176  1  0.089077  -0.001747  0.927324  -0.002  0.10467  -0.001427  0.989191  -0.001  0.106856  -0.001013  0.986985  -0.001  0.108425  0.103352  -0.001689  0.990466  -0.002
H  H14  1  0.45474419  0.98522233  0.62463352  1  0.090033  -0.00175  0.928025  -0.002  0.105328  -0.001428  0.990113  -0.001  0.107536  -0.001015  0.987902  -0.001  0.108924  0.104019  -0.00169  0.991336  -0.002
H  H15  1  0.04521025  0.39021203  0.62462765  1  0.089079  -0.001746  0.927337  -0.002  0.104667  -0.001427  0.989202  -0.001  0.106854  -0.001014  0.986996  -0.001  0.108422  0.103348  -0.001689  0.990478  -0.002
H  H16  1  0.62373695  0.81624301  0.37461026  1  0.099067  2e-05  0.93447  0.0  0.114106  2e-06  0.999666  0.0  0.115538  8e-06  0.999  0.0  0.119004  0.112928  -3.6e-05  1.000476  0.0
H  H17  1  0.87625081  0.80904877  0.37474419  1  0.097407  1.9e-05  0.935921  0.0  0.113003  1e-06  1.00071  0.0  0.114444  7e-06  0.999973  0.0  0.118896  0.111825  -3.4e-05  1.001528  0.0
H  H18  1  0.37626559  0.18375607  0.62539018  1  0.099042  2e-05  0.934532  0.0  0.114089  2e-06  0.999724  0.0  0.115521  8e-06  0.999058  0.0  0.119004  0.11291  -3.6e-05  1.000535  0.0
H  H19  1  0.12374887  0.19095223  0.62525552  1  0.097416  1.8e-05  0.935937  0.0  0.113009  1e-06  1.00072  0.0  0.114451  7e-06  0.999982  0.0  0.118896  0.111829  -3.4e-05  1.001538  0.0
H  H20  1  0.19532335  0.99726851  0.53683653  1  0.108205  -0.00015  0.929662  0.0  0.12357  -0.000155  0.989086  0.0  0.126224  -0.000105  0.98749  0.0  0.117411  0.121711  -0.000182  0.990247  0.0
H  H21  1  0.30453968  0.46570341  0.53689300  1  0.109182  -0.000151  0.928076  0.0  0.124735  -0.000155  0.987335  0.0  0.127353  -0.000105  0.985749  0.0  0.117421  0.122855  -0.000183  0.988554  0.0
H  H22  1  0.80467682  0.00272926  0.46316522  1  0.108205  -0.00015  0.929629  0.0  0.123584  -0.000155  0.989066  0.0  0.126237  -0.000105  0.987471  0.0  0.117429  0.121723  -0.000182  0.990233  0.0
H  H23  1  0.69546099  0.53429577  0.46310613  1  0.109182  -0.00015  0.928082  0.0  0.124739  -0.000155  0.987326  0.0  0.127355  -0.000105  0.985742  0.0  0.117424  0.122841  -0.000183  0.988567  0.0
H  H24  1  0.29047123  0.12733768  0.43896164  1  0.086478  -0.001354  0.930283  -0.002  0.100344  -0.001172  0.995008  -0.001  0.102684  -0.000826  0.992833  -0.001  0.106302  0.09833  -0.001565  0.997116  -0.001
H  H25  1  0.20947329  0.43362770  0.43897019  1  0.086479  -0.001351  0.92869  -0.002  0.099871  -0.001172  0.994121  -0.001  0.102146  -0.000825  0.992009  -0.001  0.106323  0.097929  -0.001566  0.996132  -0.001
H  H26  1  0.70952658  0.87266342  0.56103675  1  0.086481  -0.001353  0.930343  -0.002  0.100357  -0.001172  0.995081  -0.001  0.102697  -0.000826  0.992906  -0.001  0.106311  0.098342  -0.001565  0.997189  -0.001
H  H27  1  0.79052807  0.56637304  0.56102857  1  0.086509  -0.00135  0.928662  -0.002  0.099895  -0.001171  0.99409  -0.001  0.102169  -0.000826  0.991979  -0.001  0.106349  0.097954  -0.001566  0.996096  -0.001
H  H28  1  0.85388119  0.54730360  0.06315082  1  0.134941  -4e-06  0.909939  0.0  0.146456  -4e-06  0.967743  0.0  0.149762  -3e-06  0.965374  0.0  0.130335  0.143856  -7e-06  0.970025  0.0
H  H29  1  0.64588163  0.38959869  0.06319577  1  0.134049  -4e-06  0.910992  0.0  0.145586  -3e-06  0.969218  0.0  0.148966  -3e-06  0.966861  0.0  0.129959  0.142948  -7e-06  0.971449  0.0
H  H30  1  0.14611967  0.45269650  0.93684980  1  0.134906  -3e-06  0.909983  0.0  0.146437  -3e-06  0.96777  0.0  0.149744  -3e-06  0.965407  0.0  0.130328  0.143837  -6e-06  0.970054  0.0
H  H31  1  0.35411755  0.61040167  0.93680579  1  0.134058  -3e-06  0.910954  0.0  0.145572  -3e-06  0.969211  0.0  0.148952  -3e-06  0.966855  0.0  0.129943  0.142936  -7e-06  0.971445  0.0
H  H32  1  0.80860604  0.59555828  0.18611703  1  0.126925  -6.7e-05  0.920345  0.0  0.136667  -0.000109  0.981941  0.0  0.140252  -6.5e-05  0.978959  0.0  0.1269  0.134079  -0.000134  0.984146  0.0
H  H33  1  0.69119677  0.21833733  0.18616796  1  0.12765  -6.6e-05  0.921216  0.0  0.137591  -0.000109  0.983052  0.0  0.14124  -6.6e-05  0.980092  0.0  0.126698  0.134925  -0.000134  0.985277  0.0
H  H34  1  0.19139650  0.40444080  0.81388342  1  0.126868  -6.7e-05  0.920406  0.0  0.136648  -0.000109  0.98196  0.0  0.140237  -6.6e-05  0.97898  0.0  0.126882  0.134058  -0.000134  0.984165  0.0
H  H35  1  0.30880360  0.78166445  0.81383216  1  0.127627  -6.7e-05  0.921223  0.0  0.137577  -0.000109  0.983047  0.0  0.141226  -6.6e-05  0.980084  0.0  0.126704  0.134909  -0.000134  0.985271  0.0
C  C36  1  0.48402113  0.99055653  0.22945323  1  0.720292  0.004408  3.789775  0.003  0.681601  0.000786  4.082831  0.0  0.718683  0.000851  4.074846  0.0  0.237339  0.655348  0.000886  4.088231  0.0
C  C37  1  0.01586062  0.78000070  0.22947916  1  0.720216  0.004402  3.788163  0.003  0.682433  0.000784  4.079848  0.0  0.719547  0.000847  4.07179  0.0  0.239798  0.656167  0.000884  4.085281  0.0
C  C38  1  0.51597905  0.00944433  0.77054541  1  0.720274  0.004409  3.789723  0.003  0.681615  0.000788  4.08274  0.0  0.718697  0.000851  4.074754  0.0  0.237339  0.655352  0.000886  4.088138  0.0
C  C39  1  0.98413552  0.22000066  0.77052018  1  0.720382  0.004401  3.788051  0.003  0.682618  0.000785  4.079682  0.0  0.719734  0.000848  4.071621  0.0  0.23989  0.656346  0.000883  4.085109  0.0
C  C40  1  0.51125223  0.92976625  0.35612865  1  -0.132168  0.003085  3.64098  0.004  -0.192918  0.000406  3.907409  0.001  -0.19269  0.000926  3.914096  0.002  -0.06894  -0.193092  -0.000273  3.902743  0.001
C  C41  1  0.98868333  0.71407829  0.35616407  1  -0.129031  0.003085  3.638826  0.004  -0.190381  0.000412  3.904289  0.001  -0.190071  0.000931  3.910905  0.002  -0.068668  -0.190616  -0.000269  3.899721  0.001
C  C42  1  0.48874677  0.07023396  0.64387065  1  -0.13211  0.003081  3.641072  0.004  -0.192875  0.000407  3.907492  0.001  -0.19265  0.000927  3.914186  0.002  -0.068923  -0.193045  -0.000273  3.902822  0.001
C  C43  1  0.01131634  0.28592270  0.64383564  1  -0.129102  0.003084  3.638948  0.004  -0.190431  0.000412  3.904378  0.001  -0.190126  0.000931  3.910999  0.002  -0.068669  -0.190663  -0.00027  3.899805  0.001
C  C44  1  0.23774103  0.03745919  0.44896698  1  -0.138647  0.002633  3.647183  0.003  -0.194816  0.000227  3.910843  0.001  -0.195539  0.000831  3.919097  0.001  -0.074397  -0.19454  -0.000252  3.905536  0.001
C  C45  1  0.26219765  0.51348816  0.44900705  1  -0.141253  0.002632  3.648392  0.003  -0.197527  0.00023  3.912647  0.001  -0.198133  0.000832  3.920858  0.001  -0.075422  -0.19731  -0.000256  3.907356  0.001
C  C46  1  0.76225746  0.96253960  0.55103494  1  -0.138642  0.002626  3.647149  0.003  -0.194883  0.000228  3.910898  0.001  -0.195606  0.000831  3.919153  0.001  -0.074429  -0.194605  -0.000252  3.905592  0.001
C  C47  1  0.73780421  0.48651168  0.55099142  1  -0.141327  0.002618  3.648407  0.003  -0.197571  0.00023  3.912641  0.001  -0.198176  0.000835  3.920851  0.001  -0.075468  -0.19734  -0.000256  3.907357  0.001
C  C48  1  0.07588957  0.11921348  0.37730422  1  0.670308  0.004344  3.84603  0.003  0.625501  0.000132  4.156599  -0.001  0.659289  0.00043  4.1512  0.0  0.209461  0.601977  6.3e-05  4.159529  -0.001
C  C49  1  0.42404425  0.50334649  0.37736750  1  0.670984  0.004355  3.847266  0.003  0.626656  0.000143  4.157026  -0.001  0.660423  0.000438  4.151567  0.0  0.210478  0.603139  8e-05  4.15999  -0.001
C  C50  1  0.92411011  0.88078596  0.62269705  1  0.670336  0.004346  3.84597  0.003  0.62557  0.000132  4.156503  -0.001  0.65936  0.00043  4.1511  0.0  0.209479  0.602041  6.3e-05  4.159428  -0.001
C  C51  1  0.57595711  0.49665270  0.62263282  1  0.670983  0.004361  3.847438  0.003  0.626623  0.000142  4.157228  -0.001  0.660391  0.000438  4.151771  0.0  0.210468  0.603103  8e-05  4.160185  -0.001
C  C52  1  0.58973001  0.69072062  0.08314441  1  0.70614  8.2e-05  3.844089  0.0  0.661166  2e-05  4.149882  0.0  0.695708  3.4e-05  4.144598  0.0  0.223218  0.637184  -7e-06  4.152695  0.0
C  C53  1  0.91007877  0.22619431  0.08311383  1  0.714082  8.1e-05  3.838294  0.0  0.669126  1.9e-05  4.144405  0.0  0.703836  3.4e-05  4.138836  0.0  0.225476  0.645059  -1.1e-05  4.147327  0.0
C  C54  1  0.41027035  0.30928117  0.91685572  1  0.706167  8.2e-05  3.844128  0.0  0.661231  2e-05  4.149858  0.0  0.695779  3.4e-05  4.144574  0.0  0.223238  0.637252  -7e-06  4.152661  0.0
C  C55  1  0.08992159  0.77380825  0.91688552  1  0.714141  8.2e-05  3.838191  0.0  0.669163  2e-05  4.144339  0.0  0.703874  3.4e-05  4.138769  0.0  0.2255  0.645096  -1.1e-05  4.147259  0.0
C  C56  1  0.76001329  0.55882607  0.13136736  1  -0.136563  -6.4e-05  3.539972  0.0  -0.194437  -9.7e-05  3.791123  0.0  -0.195135  -5.6e-05  3.793808  0.0  -0.055676  -0.193997  -0.000135  3.78975  0.0
C  C57  1  0.73975059  0.30982892  0.13138124  1  -0.135645  -6.5e-05  3.539242  0.0  -0.194519  -9.6e-05  3.791838  0.0  -0.195551  -5.6e-05  3.794894  0.0  -0.054068  -0.193797  -0.000135  3.790029  0.0
C  C58  1  0.23998756  0.44117326  0.86863403  1  -0.136497  -6.5e-05  3.54006  0.0  -0.194414  -9.7e-05  3.7912  0.0  -0.195134  -5.6e-05  3.793914  0.0  -0.055653  -0.193973  -0.000135  3.789821  0.0
C  C59  1  0.26025028  0.69017196  0.86861859  1  -0.135566  -6.6e-05  3.539002  0.0  -0.194431  -9.6e-05  3.791626  0.0  -0.195462  -5.5e-05  3.794681  0.0  -0.054022  -0.193711  -0.000135  3.789812  0.0
N  N60  1  0.36682729  0.89811524  0.42414864  1  -0.352881  -0.054077  3.299479  -0.087  -0.316341  -0.033996  3.581205  -0.055  -0.343904  -0.025362  3.59546  -0.044  -0.486557  -0.296161  -0.041119  3.57083  -0.063
N  N61  1  0.13314636  0.67767156  0.42417887  1  -0.3513  -0.054115  3.301838  -0.086  -0.314953  -0.034035  3.583896  -0.055  -0.342521  -0.025401  3.59811  -0.044  -0.486245  -0.294775  -0.04114  3.573492  -0.063
N  N62  1  0.63317171  0.10188342  0.57585221  1  -0.352934  -0.054074  3.299594  -0.087  -0.316374  -0.033995  3.581338  -0.055  -0.34394  -0.025361  3.595597  -0.044  -0.486583  -0.296196  -0.041118  3.570965  -0.063
N  N63  1  0.86685500  0.32232763  0.57582145  1  -0.351239  -0.054111  3.301831  -0.086  -0.314915  -0.034034  3.583891  -0.055  -0.342481  -0.025401  3.598105  -0.044  -0.486248  -0.294736  -0.041138  3.573482  -0.063
N  N64  1  0.74991671  0.40143285  0.19713610  1  -0.238703  0.000121  3.381606  0.0  -0.17833  -1.5e-05  3.601842  0.0  -0.190966  -2e-06  3.60933  0.0  -0.476291  -0.169642  1e-06  3.596896  0.0
N  N65  1  0.25008465  0.59856635  0.80286423  1  -0.238737  0.000122  3.381509  0.0  -0.178372  -1.8e-05  3.601785  0.0  -0.191001  -4e-06  3.609277  0.0  -0.476331  -0.169685  1e-06  3.596838  0.0
O  O66  1  0.58779038  0.04620080  0.16643962  1  -0.655843  -0.003163  2.006679  -0.005  -0.612514  -0.00202  2.250626  -0.003  -0.643955  -0.001064  2.241806  -0.002  -0.346421  -0.589748  -0.003099  2.256262  -0.005
O  O67  1  0.91207735  0.78740777  0.16646142  1  -0.655633  -0.003168  2.006473  -0.005  -0.612842  -0.002025  2.250016  -0.003  -0.644288  -0.001067  2.241118  -0.002  -0.34688  -0.590089  -0.003077  2.255701  -0.005
O  O68  1  0.41220998  0.95379944  0.83356207  1  -0.655808  -0.003163  2.006643  -0.005  -0.612493  -0.002021  2.250583  -0.003  -0.643934  -0.001064  2.241763  -0.002  -0.346411  -0.589729  -0.0031  2.256219  -0.005
O  O69  1  0.08792065  0.21259425  0.83353846  1  -0.655728  -0.003169  2.006368  -0.005  -0.612967  -0.002026  2.249929  -0.003  -0.644413  -0.001067  2.241028  -0.002  -0.346958  -0.590217  -0.003078  2.255612  -0.005
O  O70  1  0.35994823  0.97388082  0.19779155  1  -0.64482  -0.039753  2.147896  -0.067  -0.604151  -0.02913  2.417731  -0.05  -0.647615  -0.022714  2.410751  -0.041  -0.337429  -0.572491  -0.034492  2.422125  -0.056
O  O71  1  0.13993053  0.82833581  0.19780248  1  -0.645012  -0.039572  2.147151  -0.067  -0.604934  -0.029013  2.416796  -0.05  -0.648504  -0.022616  2.409985  -0.041  -0.33927  -0.573243  -0.034413  2.421134  -0.056
O  O72  1  0.64005145  0.02611940  0.80220894  1  -0.644829  -0.039754  2.147882  -0.067  -0.604165  -0.029131  2.4177  -0.05  -0.64763  -0.022715  2.410722  -0.041  -0.337434  -0.572503  -0.034494  2.422094  -0.056
O  O73  1  0.86006915  0.17166441  0.80219801  1  -0.645055  -0.039571  2.147162  -0.067  -0.604977  -0.029012  2.416781  -0.05  -0.648549  -0.022615  2.409975  -0.041  -0.33929  -0.573286  -0.034413  2.421114  -0.056
O  O74  1  0.04268396  0.03904851  0.33172395  1  -0.588006  -0.044417  2.040453  -0.075  -0.558258  -0.029917  2.305667  -0.052  -0.59492  -0.022577  2.298146  -0.042  -0.309876  -0.531627  -0.036519  2.310288  -0.06
O  O75  1  0.45732009  0.62905117  0.33169349  1  -0.587979  -0.044428  2.040911  -0.075  -0.558831  -0.029915  2.306681  -0.052  -0.595487  -0.02258  2.299137  -0.042  -0.310206  -0.532104  -0.036514  2.31114  -0.06
O  O76  1  0.95731621  0.96094847  0.66827858  1  -0.588002  -0.044419  2.040408  -0.075  -0.558279  -0.029917  2.305616  -0.052  -0.594941  -0.022578  2.298094  -0.042  -0.309895  -0.531647  -0.03652  2.310234  -0.06
O  O77  1  0.54268177  0.37094789  0.66830576  1  -0.587982  -0.044429  2.041033  -0.075  -0.558838  -0.029915  2.306839  -0.052  -0.595497  -0.02258  2.2993  -0.042  -0.310227  -0.532111  -0.036513  2.311301  -0.06
O  O78  1  0.97946020  0.26137619  0.37067420  1  -0.613059  -0.004586  1.935838  -0.007  -0.561735  -0.002873  2.14972  -0.004  -0.585397  -0.001534  2.139798  -0.002  -0.323275  -0.544807  -0.004661  2.155694  -0.007
O  O79  1  0.52044090  0.36774718  0.37082591  1  -0.613873  -0.004573  1.936239  -0.007  -0.56258  -0.002865  2.15006  -0.004  -0.586237  -0.001528  2.140133  -0.002  -0.32395  -0.545674  -0.004649  2.156036  -0.007
O  O80  1  0.02053830  0.73862337  0.62932694  1  -0.613052  -0.004585  1.935862  -0.007  -0.561732  -0.002873  2.149726  -0.004  -0.585395  -0.001533  2.139804  -0.002  -0.323262  -0.544806  -0.004661  2.155699  -0.007
O  O81  1  0.47955877  0.63225381  0.62917380  1  -0.613828  -0.004573  1.936288  -0.007  -0.562513  -0.002865  2.150105  -0.004  -0.586173  -0.001528  2.14018  -0.002  -0.323897  -0.545608  -0.004649  2.15608  -0.007
O  O82  1  0.58893348  0.83326702  0.04741936  1  -0.768108  -0.000278  2.131544  0.0  -0.720544  -0.000273  2.404035  0.0  -0.76061  -0.000189  2.398014  0.0  -0.43354  -0.690742  -0.000351  2.406631  0.0
O  O83  1  0.91092490  0.11933085  0.04741899  1  -0.772724  -0.000279  2.130916  0.0  -0.72492  -0.000274  2.40321  0.0  -0.764939  -0.000189  2.396798  0.0  -0.435268  -0.695146  -0.000358  2.40604  0.0
O  O84  1  0.41106670  0.16673229  0.95258083  1  -0.768095  -0.000278  2.1314  0.0  -0.720552  -0.000273  2.403888  0.0  -0.760616  -0.000189  2.397863  0.0  -0.433542  -0.690753  -0.000351  2.40648  0.0
O  O85  1  0.08907478  0.88067014  0.95258072  1  -0.772749  -0.000279  2.130917  0.0  -0.724942  -0.000273  2.40324  0.0  -0.764962  -0.00019  2.396829  0.0  -0.435282  -0.69517  -0.000358  2.406068  0.0
O  O86  1  0.45901421  0.66519440  0.07893560  1  -0.615627  6e-06  1.889791  0.0  -0.576048  0.0  2.113334  0.0  -0.60374  2.9e-05  2.106139  0.0  -0.3184  -0.556326  -3e-05  2.118071  0.0
O  O87  1  0.04081751  0.25590467  0.07886665  1  -0.61851  6e-06  1.889878  0.0  -0.578783  -0.0  2.113625  0.0  -0.606516  2.9e-05  2.106273  0.0  -0.318468  -0.559038  -3.3e-05  2.118476  0.0
O  O88  1  0.54098547  0.33480660  0.92106411  1  -0.615647  6e-06  1.889848  0.0  -0.576087  0.0  2.11338  0.0  -0.603778  2.9e-05  2.10618  0.0  -0.318418  -0.556369  -3e-05  2.118113  0.0
O  O89  1  0.95918217  0.74409555  0.92113384  1  -0.618566  5e-06  1.889858  0.0  -0.578822  -1e-06  2.113608  0.0  -0.606556  2.8e-05  2.106256  0.0  -0.318493  -0.559078  -3.3e-05  2.118458  0.0
