# generated using pymatgen
data_AlH4C10SClO6
_symmetry_space_group_name_H-M   'P 1'
_cell_length_a   6.62756724
_cell_length_b   11.17039816
_cell_length_c   12.72516344
_cell_angle_alpha   77.61538998
_cell_angle_beta   75.21864936
_cell_angle_gamma   70.94124745
_symmetry_Int_Tables_number   1
_chemical_formula_structural   AlH4C10SClO6
_chemical_formula_sum   'Al2 H8 C20 S2 Cl2 O12'
_cell_volume   852.05501152
_cell_formula_units_Z   2
loop_
 _symmetry_equiv_pos_site_id
 _symmetry_equiv_pos_as_xyz
  1  'x, y, z'
loop_
 _atom_site_type_symbol
 _atom_site_label
 _atom_site_symmetry_multiplicity
 _atom_site_fract_x
 _atom_site_fract_y
 _atom_site_fract_z
 _atom_site_occupancy
 _atom_site_pbe_bader_charge
 _atom_site_pbe_bader_spin_density
 _atom_site_pbe_cm5_charge
 _atom_site_pbe_ddec_charge
 _atom_site_pbe_ddec_spin_density
 _atom_site_pbe_ddec_sum_bond_order
 _atom_site_pbe_magmom
Al  Al0  1  0.48742468  0.49803867  0.49804691  1  2.5007  0  0.3887  1.636814  0  2.581648  0
Al  Al1  1  0.98714391  0.49680013  0.50007381  1  2.502882  0  0.391504  1.634834  0  2.57612  0
H  H2  1  0.23209306  0.40163306  0.62669406  1  0.633115  0  0.345027  0.424088  0  0.872001  0
H  H3  1  0.67147605  0.65905591  0.45939457  1  0.606002  0  0.337876  0.407642  0  0.902631  0
H  H4  1  0.27084644  0.24144473  0.36979799  1  0.089206  0  0.104723  0.125791  0  1.049606  0
H  H5  1  0.46609221  0.77545703  0.35583989  1  0.067498  0  0.106333  0.119556  0  1.057977  0
H  H6  1  0.72848938  0.88180188  0.55942763  1  0.066411  0  0.106974  0.110424  0  0.993113  0
H  H7  1  0.61769727  0.11987103  0.54938070  1  0.090797  0  0.109296  0.116142  0  0.989454  0
H  H8  1  0.62261505  0.22390038  0.27726924  1  0.606421  0  0.33005  0.360073  0  0.888056  0
H  H9  1  0.79796197  0.79467877  0.26499239  1  0.606628  0  0.329682  0.36224  0  0.881869  0
C  C10  1  0.85911851  0.27513195  0.47972157  1  1.531156  0  0.271359  0.652233  0  4.075231  0
C  C11  1  0.65554521  0.47694943  0.69751151  1  1.595443  0  0.258141  0.663151  0  4.130739  0
C  C12  1  0.12252235  0.72721684  0.49593793  1  1.540328  0  0.269654  0.658618  0  4.06557  0
C  C13  1  0.31939093  0.51069048  0.30274559  1  1.590448  0  0.252791  0.639634  0  4.162979  0
C  C14  1  0.43140386  0.43143540  0.89336436  1  0.095687  0  0.0111  0.105057  0  4.072597  0
C  C15  1  0.54643743  0.55020111  0.10750401  1  0.150654  0  0.011071  0.105682  0  4.082909  0
C  C16  1  0.58830131  0.47890287  0.81655480  1  -0.085222  0  -0.022591  -0.185652  0  3.922536  0
C  C17  1  0.38844415  0.50381254  0.18459813  1  -0.120548  0  -0.028077  -0.203073  0  3.951709  0
C  C18  1  0.56185134  0.52361323  0.00149718  1  -0.125506  0  -0.028372  -0.075205  0  4.105161  0
C  C19  1  0.41618888  0.45698696  0.99989507  1  -0.100643  0  -0.025771  -0.069005  0  4.085534  0
C  C20  1  0.93700575  0.13589056  0.47203525  1  -0.025138  0  -0.010329  -0.085164  0  3.937808  0
C  C21  1  0.15560789  0.07293293  0.42298074  1  0.029169  0  -0.002344  0.081052  0  3.968928  0
C  C22  1  0.78478024  0.06814515  0.51607021  1  0.029339  0  -0.086951  -0.102276  0  4.014292  0
C  C23  1  0.31236240  0.13893971  0.36865037  1  0.025167  0  -0.11727  -0.291698  0  4.003281  0
C  C24  1  0.51654958  0.07680381  0.31427955  1  0.477494  0  0.078686  0.226834  0  4.084789  0
C  C25  1  0.05930115  0.86939445  0.47837434  1  0.015442  0  -0.011276  -0.082124  0  3.932308  0
C  C26  1  0.84620390  0.93506173  0.52061121  1  -0.046318  0  -0.086998  -0.096821  0  4.013182  0
C  C27  1  0.21544873  0.93690280  0.42324111  1  -0.017805  0  -0.002614  0.084902  0  3.969419  0
C  C28  1  0.42400184  0.87626482  0.36404864  1  0.01518  0  -0.120303  -0.303326  0  4.025283  0
C  C29  1  0.57273076  0.94268481  0.31087823  1  0.496366  0  0.076347  0.228283  0  4.083247  0
S  S30  1  0.71836898  0.55354893  0.87433246  1  0.316408  0  0.101768  0.164467  0  2.836032  0
S  S31  1  0.25867431  0.42826131  0.12722759  1  0.309612  0  0.108937  0.170417  0  2.853213  0
Cl  Cl32  1  0.27690982  0.34813577  0.86897154  1  -0.162602  0  0.02502  -0.023136  0  1.550554  0
Cl  Cl33  1  0.70143275  0.63412333  0.13014612  1  -0.160754  0  0.029973  -0.017862  0  1.593155  0
O  O34  1  0.66680800  0.33476176  0.46333790  1  -1.26764  0  -0.237969  -0.593689  0  2.335737  0
O  O35  1  0.83807673  0.49959402  0.65259729  1  -1.252287  0  -0.241071  -0.594258  0  2.322088  0
O  O36  1  0.98659057  0.67317987  0.48614986  1  -1.264677  0  -0.241225  -0.610376  0  2.340132  0
O  O37  1  0.44339369  0.53820200  0.34941732  1  -1.251181  0  -0.233921  -0.578053  0  2.381035  0
O  O38  1  0.30830620  0.66814552  0.52099518  1  -1.267986  0  -0.245423  -0.6071  0  2.349779  0
O  O39  1  0.13893544  0.48685444  0.34972335  1  -1.248575  0  -0.236001  -0.574434  0  2.335186  0
O  O40  1  0.98283457  0.32581739  0.50567907  1  -1.259949  0  -0.233513  -0.584996  0  2.350287  0
O  O41  1  0.52832145  0.45495353  0.64888485  1  -1.251015  0  -0.237045  -0.596828  0  2.358701  0
O  O42  1  0.24822590  0.43393802  0.54874821  1  -1.438036  0  -0.448264  -0.983312  0  2.187315  0
O  O43  1  0.72124921  0.56781671  0.45469532  1  -1.414327  0  -0.452411  -0.984929  0  2.201723  0
O  O44  1  0.67193084  0.13624520  0.26099093  1  -1.109037  0  -0.347608  -0.418909  0  2.276949  0
O  O45  1  0.77477712  0.88707166  0.25357636  1  -1.118304  0  -0.347666  -0.415705  0  2.255397  0
