# generated using pymatgen
data_CuH8C10IN4
_symmetry_space_group_name_H-M   'P 1'
_cell_length_a   7.87134966
_cell_length_b   9.46813469
_cell_length_c   15.03842401
_cell_angle_alpha   95.91694605
_cell_angle_beta   89.99958931
_cell_angle_gamma   89.99970752
_symmetry_Int_Tables_number   1
_chemical_formula_structural   CuH8C10IN4
_chemical_formula_sum   'Cu4 H32 C40 I4 N16'
_cell_volume   1114.79756906
_cell_formula_units_Z   4
loop_
 _symmetry_equiv_pos_site_id
 _symmetry_equiv_pos_as_xyz
  1  'x, y, z'
loop_
 _atom_site_type_symbol
 _atom_site_label
 _atom_site_symmetry_multiplicity
 _atom_site_fract_x
 _atom_site_fract_y
 _atom_site_fract_z
 _atom_site_occupancy
 _atom_site_pbe_bader_spin_density
 _atom_site_pbe_cm5_charge
 _atom_site_pbe_ddec_charge
 _atom_site_pbe_ddec_spin_density
 _atom_site_pbe_ddec_sum_bond_order
 _atom_site_pbe_magmom
Cu  Cu0  1  0.37019798  0.94974339  0.54696093  1  0  0.394789  0.245607  0  2.603863  0
Cu  Cu1  1  0.37019292  0.05025892  0.95303719  1  0  0.394801  0.245643  0  2.603805  0
Cu  Cu2  1  0.62978585  0.05024836  0.45304677  1  0  0.39481  0.245612  0  2.604057  0
Cu  Cu3  1  0.62979344  0.94975574  0.04695638  1  0  0.394795  0.245556  0  2.604157  0
H  H4  1  0.03490209  0.01418156  0.62056980  1  0  0.095975  0.071264  0  1.055719  0
H  H5  1  0.03490750  0.98581491  0.87943043  1  0  0.095952  0.07121  0  1.055732  0
H  H6  1  0.96508047  0.98582102  0.37943345  1  0  0.095972  0.07123  0  1.055703  0
H  H7  1  0.96509284  0.01417288  0.12056963  1  0  0.095971  0.071239  0  1.055735  0
H  H8  1  0.90084632  0.19280982  0.73020528  1  0  0.104326  0.118931  0  1.029241  0
H  H9  1  0.90085686  0.80718870  0.76979389  1  0  0.104289  0.118855  0  1.029277  0
H  H10  1  0.09914132  0.80719265  0.26980062  1  0  0.104314  0.118851  0  1.029315  0
H  H11  1  0.09915238  0.19279375  0.23020641  1  0  0.104316  0.118872  0  1.029291  0
H  H12  1  0.40376413  0.33864412  0.80834288  1  0  0.105969  0.117542  0  1.02253  0
H  H13  1  0.40377536  0.66135262  0.69165733  1  0  0.105949  0.117481  0  1.022637  0
H  H14  1  0.59623621  0.66134566  0.19166067  1  0  0.10597  0.117502  0  1.022642  0
H  H15  1  0.59624277  0.33865656  0.30834046  1  0  0.105969  0.11749  0  1.022504  0
H  H16  1  0.52145178  0.14964065  0.69540148  1  0  0.10225  0.080396  0  1.029845  0
H  H17  1  0.52146031  0.85035554  0.80459758  1  0  0.102242  0.080391  0  1.029839  0
H  H18  1  0.47853713  0.85035144  0.30459760  1  0  0.102227  0.08039  0  1.029854  0
H  H19  1  0.47855020  0.14965255  0.19540078  1  0  0.102255  0.080427  0  1.029834  0
H  H20  1  0.96615562  0.82955407  0.02118475  1  0  0.095101  0.070361  0  1.056853  0
H  H21  1  0.96615582  0.17044865  0.47881038  1  0  0.09509  0.070369  0  1.056845  0
H  H22  1  0.03383456  0.17046258  0.97881231  1  0  0.095104  0.070354  0  1.056807  0
H  H23  1  0.03383944  0.82954469  0.52118414  1  0  0.095093  0.070332  0  1.056817  0
H  H24  1  0.10247861  0.62565370  0.93325341  1  0  0.107531  0.117541  0  1.019504  0
H  H25  1  0.10249077  0.37434603  0.56673619  1  0  0.107498  0.117576  0  1.019411  0
H  H26  1  0.89751919  0.37436272  0.06674962  1  0  0.107516  0.117591  0  1.019491  0
H  H27  1  0.89751720  0.62564212  0.43325459  1  0  0.107529  0.117585  0  1.019524  0
H  H28  1  0.60235953  0.45868675  0.86985597  1  0  0.105215  0.116696  0  1.025868  0
H  H29  1  0.60237487  0.54132278  0.63014520  1  0  0.105201  0.116712  0  1.025893  0
H  H30  1  0.39764463  0.54131569  0.13015059  1  0  0.105238  0.116719  0  1.025894  0
H  H31  1  0.39764199  0.45867593  0.36984776  1  0  0.105229  0.116724  0  1.025863  0
H  H32  1  0.48180965  0.67121806  0.96450264  1  0  0.10079  0.075777  0  1.036735  0
H  H33  1  0.48180980  0.32879732  0.53550077  1  0  0.100775  0.075838  0  1.036695  0
H  H34  1  0.51818815  0.32878557  0.03550069  1  0  0.100775  0.075785  0  1.036765  0
H  H35  1  0.51819308  0.67120981  0.46449486  1  0  0.10077  0.075838  0  1.036692  0
C  C36  1  0.11412560  0.08831023  0.66252197  1  0  0.032194  0.090313  0  3.940412  0
C  C37  1  0.11413331  0.91168588  0.83747728  1  0  0.03227  0.09046  0  3.940053  0
C  C38  1  0.88585822  0.91169027  0.33747978  1  0  0.032146  0.090254  0  3.940073  0
C  C39  1  0.88586958  0.08830305  0.16252088  1  0  0.032128  0.090254  0  3.940316  0
C  C40  1  0.03836405  0.18859845  0.72310870  1  0  -0.08099  -0.179012  0  3.926129  0
C  C41  1  0.03837447  0.81140012  0.77689169  1  0  -0.081024  -0.179026  0  3.926129  0
C  C42  1  0.96162486  0.81140083  0.27689694  1  0  -0.080951  -0.178859  0  3.926029  0
C  C43  1  0.96163350  0.18858451  0.22310746  1  0  -0.080873  -0.178857  0  3.926002  0
C  C44  1  0.14271907  0.28472311  0.77547862  1  0  0.100152  0.19927  0  4.023808  0
C  C45  1  0.14272571  0.71527606  0.72452010  1  0  0.100185  0.199242  0  4.023575  0
C  C46  1  0.85727619  0.71527622  0.22452570  1  0  0.100143  0.199207  0  4.023787  0
C  C47  1  0.85728480  0.28471708  0.27547907  1  0  0.100162  0.199264  0  4.023734  0
C  C48  1  0.31944364  0.26922785  0.76646243  1  0  -0.077068  -0.182034  0  3.928047  0
C  C49  1  0.31945260  0.73077245  0.73353905  1  0  -0.07704  -0.181934  0  3.92803  0
C  C50  1  0.68055289  0.73076721  0.23354221  1  0  -0.077011  -0.181886  0  3.92802  0
C  C51  1  0.68055918  0.26922924  0.26645947  1  0  -0.077096  -0.181968  0  3.928  0
C  C52  1  0.38489567  0.16501422  0.70415174  1  0  0.034259  0.088056  0  3.940076  0
C  C53  1  0.38490569  0.83498045  0.79584905  1  0  0.03427  0.08806  0  3.940212  0
C  C54  1  0.61509196  0.83498094  0.29585025  1  0  0.034309  0.088051  0  3.940127  0
C  C55  1  0.61510355  0.16501694  0.20415046  1  0  0.034258  0.087977  0  3.940133  0
C  C56  1  0.88771932  0.74556649  0.98741690  1  0  0.031858  0.09112  0  3.942691  0
C  C57  1  0.88772660  0.25444175  0.51258045  1  0  0.031802  0.09109  0  3.942673  0
C  C58  1  0.11227212  0.25444903  0.01258207  1  0  0.031875  0.091148  0  3.942475  0
C  C59  1  0.11227247  0.74555049  0.48741465  1  0  0.031885  0.091108  0  3.942512  0
C  C60  1  0.96472840  0.63191500  0.93815524  1  0  -0.078538  -0.174031  0  3.927155  0
C  C61  1  0.96473939  0.36808872  0.56183879  1  0  -0.07852  -0.174135  0  3.927111  0
C  C62  1  0.03527067  0.36809723  0.06184612  1  0  -0.078589  -0.174312  0  3.927186  0
C  C63  1  0.03526730  0.63190248  0.43815556  1  0  -0.078611  -0.174286  0  3.927242  0
C  C64  1  0.86170858  0.52678542  0.89280883  1  0  0.10141  0.195087  0  4.038396  0
C  C65  1  0.86172212  0.47322088  0.60718713  1  0  0.101427  0.19519  0  4.038398  0
C  C66  1  0.13829049  0.47322461  0.10719435  1  0  0.101461  0.195489  0  4.037975  0
C  C67  1  0.13829093  0.52677349  0.39280814  1  0  0.101434  0.195419  0  4.037955  0
C  C68  1  0.68486714  0.54025464  0.90289822  1  0  -0.07779  -0.18002  0  3.917269  0
C  C69  1  0.68487835  0.45975564  0.59710070  1  0  -0.077883  -0.180123  0  3.917248  0
C  C70  1  0.31513320  0.45975531  0.09710695  1  0  -0.077923  -0.180225  0  3.917133  0
C  C71  1  0.31513470  0.54023984  0.40289333  1  0  -0.077886  -0.180152  0  3.916917  0
C  C72  1  0.61840768  0.65686991  0.95488686  1  0  0.033482  0.086738  0  3.942043  0
C  C73  1  0.61841397  0.34314271  0.54511516  1  0  0.033575  0.086701  0  3.941818  0
C  C74  1  0.38159012  0.34314123  0.04511508  1  0  0.033575  0.086759  0  3.941809  0
C  C75  1  0.38159018  0.65685904  0.45488203  1  0  0.033512  0.086551  0  3.941799  0
I  I76  1  0.69363414  0.89461330  0.58823014  1  0  -0.201242  -0.391391  0  1.756758  0
I  I77  1  0.69363693  0.10538940  0.91177080  1  0  -0.20124  -0.391418  0  1.756721  0
I  I78  1  0.30635858  0.10538296  0.41177127  1  0  -0.201272  -0.391456  0  1.756673  0
I  I79  1  0.30635833  0.89461967  0.08822964  1  0  -0.201263  -0.391456  0  1.756604  0
N  N80  1  0.28454122  0.07619238  0.65110499  1  0  -0.36408  -0.194987  0  3.637776  0
N  N81  1  0.28454869  0.92380494  0.84889571  1  0  -0.364101  -0.19503  0  3.63761  0
N  N82  1  0.71544388  0.92380380  0.34889841  1  0  -0.364145  -0.194978  0  3.637783  0
N  N83  1  0.71545419  0.07619147  0.15110172  1  0  -0.364089  -0.194911  0  3.637847  0
N  N84  1  0.71722368  0.76104712  0.99574877  1  0  -0.364877  -0.199641  0  3.645967  0
N  N85  1  0.71722990  0.23896499  0.50425350  1  0  -0.364839  -0.199648  0  3.645727  0
N  N86  1  0.28276904  0.23896835  0.00425152  1  0  -0.364846  -0.199593  0  3.64572  0
N  N87  1  0.28277045  0.76103039  0.49574318  1  0  -0.364798  -0.199485  0  3.645561  0
N  N88  1  0.92199251  0.41126448  0.83530605  1  0  -0.149545  -0.127377  0  3.268218  0
N  N89  1  0.92200582  0.58873723  0.66469064  1  0  -0.149579  -0.127407  0  3.268123  0
N  N90  1  0.07800910  0.58874340  0.16469762  1  0  -0.149574  -0.127513  0  3.268346  0
N  N91  1  0.07801230  0.41125281  0.33530628  1  0  -0.149531  -0.127474  0  3.268322  0
N  N92  1  0.08313006  0.39647514  0.83634784  1  0  -0.151172  -0.136159  0  3.25406  0
N  N93  1  0.08314202  0.60352326  0.66365104  1  0  -0.1511  -0.136067  0  3.253878  0
N  N94  1  0.91687155  0.60352305  0.16365838  1  0  -0.151124  -0.136119  0  3.254179  0
N  N95  1  0.91687483  0.39647103  0.33634622  1  0  -0.151159  -0.136127  0  3.254126  0
