# generated using pymatgen
data_AgH11C11SN2O3
_symmetry_space_group_name_H-M   'P 1'
_cell_length_a   7.08592523
_cell_length_b   8.19885991
_cell_length_c   11.25485724
_cell_angle_alpha   81.41192131
_cell_angle_beta   73.80067834
_cell_angle_gamma   66.79232856
_symmetry_Int_Tables_number   1
_chemical_formula_structural   AgH11C11SN2O3
_chemical_formula_sum   'Ag2 H22 C22 S2 N4 O6'
_cell_volume   576.52361119
_cell_formula_units_Z   2
loop_
 _symmetry_equiv_pos_site_id
 _symmetry_equiv_pos_as_xyz
  1  'x, y, z'
loop_
 _atom_site_type_symbol
 _atom_site_label
 _atom_site_symmetry_multiplicity
 _atom_site_fract_x
 _atom_site_fract_y
 _atom_site_fract_z
 _atom_site_occupancy
 _atom_site_hle17_bader_spin_density
 _atom_site_hle17_ddec_charge
 _atom_site_hle17_ddec_spin_density
 _atom_site_hle17_ddec_sum_bond_order
 _atom_site_hle17_magmom
 _atom_site_hse06_10hf_bader_spin_density
 _atom_site_hse06_10hf_ddec_charge
 _atom_site_hse06_10hf_ddec_spin_density
 _atom_site_hse06_10hf_ddec_sum_bond_order
 _atom_site_hse06_10hf_magmom
 _atom_site_hse06_bader_spin_density
 _atom_site_hse06_ddec_charge
 _atom_site_hse06_ddec_spin_density
 _atom_site_hse06_ddec_sum_bond_order
 _atom_site_hse06_magmom
 _atom_site_pbe_bader_spin_density
 _atom_site_pbe_cm5_charge
 _atom_site_pbe_ddec_charge
 _atom_site_pbe_ddec_spin_density
 _atom_site_pbe_ddec_sum_bond_order
 _atom_site_pbe_magmom
Ag  Ag0  1  0.47120908  0.37997669  0.62661581  1  0  0.520933  0  1.447749  0  0  0.379864  0  1.885526  0  0  0.406341  0  1.842392  0  0  0.488512  0.363119  0  1.91516  0
Ag  Ag1  1  0.52878882  0.62003020  0.37339009  1  0  0.520912  0  1.447803  0  0  0.379862  0  1.885535  0  0  0.406337  0  1.842405  0  0  0.488512  0.363121  0  1.915168  0
H  H2  1  0.95070804  0.08479007  0.89073105  1  0  0.093788  0  0.964395  0  0  0.10398  0  1.029361  0  0  0.106686  0  1.028126  0  0  0.101554  0.102  0  1.030323  0
H  H3  1  0.04929036  0.91520243  0.10926901  1  0  0.093802  0  0.964392  0  0  0.103993  0  1.029353  0  0  0.106699  0  1.02812  0  0  0.101546  0.102017  0  1.030308  0
H  H4  1  0.01975099  0.27956646  0.00901621  1  0  0.102007  0  0.954182  0  0  0.113431  0  1.013124  0  0  0.116867  0  1.01149  0  0  0.099806  0.110944  0  1.014409  0
H  H5  1  0.98023975  0.72042336  0.99098720  1  0  0.102074  0  0.954169  0  0  0.113443  0  1.013164  0  0  0.116875  0  1.01154  0  0  0.099806  0.110955  0  1.014449  0
H  H6  1  0.67618255  0.08563680  0.80789019  1  0  0.10662  0  0.979052  0  0  0.113642  0  1.045141  0  0  0.116941  0  1.043469  0  0  0.097361  0.111204  0  1.046635  0
H  H7  1  0.32380624  0.91437422  0.19211244  1  0  0.106563  0  0.979036  0  0  0.113571  0  1.045144  0  0  0.116867  0  1.043479  0  0  0.09735  0.111134  0  1.046639  0
H  H8  1  0.60609574  0.89550537  0.69175559  1  0  0.098946  0  0.952651  0  0  0.110186  0  1.013614  0  0  0.112973  0  1.012122  0  0  0.103109  0.108194  0  1.014745  0
H  H9  1  0.39390540  0.10450439  0.30824148  1  0  0.098915  0  0.952726  0  0  0.110163  0  1.013671  0  0  0.112951  0  1.012178  0  0  0.103124  0.108171  0  1.014801  0
H  H10  1  0.56240752  0.30272694  0.95903042  1  0  0.110244  0  0.941557  0  0  0.13441  0  0.998073  0  0  0.135745  0  0.99815  0  0  0.090978  0.133395  0  0.998107  0
H  H11  1  0.43757655  0.69728145  0.04097327  1  0  0.110191  0  0.941604  0  0  0.134363  0  0.998117  0  0  0.135702  0  0.998187  0  0  0.090953  0.133348  0  0.998151  0
H  H12  1  0.35617588  0.28517813  0.08556982  1  0  0.106176  0  0.971053  0  0  0.128421  0  1.033745  0  0  0.128928  0  1.035131  0  0  0.088661  0.128069  0  1.032737  0
H  H13  1  0.64381082  0.71482770  0.91443011  1  0  0.106176  0  0.970986  0  0  0.128416  0  1.033687  0  0  0.128922  0  1.035074  0  0  0.088616  0.128064  0  1.032678  0
H  H14  1  0.30092757  0.45965015  0.96962638  1  0  0.120474  0  0.957767  0  0  0.141624  0  1.020472  0  0  0.143415  0  1.01951  0  0  0.091313  0.140328  0  1.021132  0
H  H15  1  0.69905855  0.54035693  0.03037619  1  0  0.120427  0  0.957792  0  0  0.141588  0  1.020497  0  0  0.14338  0  1.019536  0  0  0.091311  0.140291  0  1.021155  0
H  H16  1  0.99980985  0.57137508  0.76112557  1  0  0.105874  0  0.949595  0  0  0.112485  0  1.013934  0  0  0.115218  0  1.012231  0  0  0.125194  0.110386  0  1.015431  0
H  H17  1  0.00019332  0.42862663  0.23887458  1  0  0.105898  0  0.949663  0  0  0.112508  0  1.014002  0  0  0.115236  0  1.01231  0  0  0.1252  0.110408  0  1.015499  0
H  H18  1  0.64416874  0.55695873  0.76619680  1  0  0.1012  0  0.964034  0  0  0.109832  0  1.026676  0  0  0.112244  0  1.025544  0  0  0.123852  0.107977  0  1.027727  0
H  H19  1  0.35584086  0.44303498  0.23380389  1  0  0.101169  0  0.963992  0  0  0.109817  0  1.026626  0  0  0.112226  0  1.025496  0  0  0.123851  0.107961  0  1.027675  0
H  H20  1  0.94704644  0.17015504  0.50378133  1  0  0.110227  0  0.946074  0  0  0.117872  0  1.00808  0  0  0.120731  0  1.005565  0  0  0.126758  0.11566  0  1.010143  0
H  H21  1  0.05295733  0.82985213  0.49621287  1  0  0.110247  0  0.945973  0  0  0.117858  0  1.008018  0  0  0.120712  0  1.005508  0  0  0.126779  0.115651  0  1.010076  0
H  H22  1  0.30024438  0.18043617  0.50240818  1  0  0.111569  0  0.950553  0  0  0.121441  0  1.010511  0  0  0.123762  0  1.008877  0  0  0.125911  0.119623  0  1.011946  0
H  H23  1  0.69976523  0.81955749  0.49759429  1  0  0.111537  0  0.950713  0  0  0.121469  0  1.010586  0  0  0.123789  0  1.008952  0  0  0.125917  0.11965  0  1.012021  0
C  C24  1  0.27315916  0.97782937  0.78410749  1  0  -0.134033  0  3.768087  0  0  -0.10754  0  4.012365  0  0  -0.115673  0  4.036071  0  0  -0.030275  -0.102302  0  3.996523  0
C  C25  1  0.72683985  0.02216851  0.21588929  1  0  -0.133915  0  3.76798  0  0  -0.107465  0  4.012295  0  0  -0.115602  0  4.03601  0  0  -0.030279  -0.10223  0  3.996456  0
C  C26  1  0.10853073  0.08777695  0.87251488  1  0  -0.067345  0  3.779064  0  0  -0.094313  0  4.032408  0  0  -0.093338  0  4.053961  0  0  -0.09202  -0.094712  0  4.017754  0
C  C27  1  0.89146681  0.91222093  0.12748215  1  0  -0.067366  0  3.779051  0  0  -0.09431  0  4.032366  0  0  -0.093337  0  4.053927  0  0  -0.092005  -0.094707  0  4.017714  0
C  C28  1  0.14823137  0.19794805  0.93772397  1  0  -0.126821  0  3.698062  0  0  -0.142947  0  3.942842  0  0  -0.147755  0  3.963878  0  0  -0.092577  -0.139689  0  3.928574  0
C  C29  1  0.85176090  0.80205516  0.06227347  1  0  -0.126904  0  3.698047  0  0  -0.142962  0  3.942851  0  0  -0.147774  0  3.963892  0  0  -0.092573  -0.139703  0  3.928583  0
C  C30  1  0.35160543  0.20182372  0.91516672  1  0  0.15695  0  3.742715  0  0  0.182269  0  3.975891  0  0  0.184758  0  3.999626  0  0  -0.00635  0.180596  0  3.959762  0
C  C31  1  0.64838538  0.79817937  0.08483543  1  0  0.156934  0  3.742709  0  0  0.18218  0  3.975966  0  0  0.18467  0  3.999699  0  0  -0.006378  0.180508  0  3.959837  0
C  C32  1  0.51436437  0.09168021  0.82529189  1  0  -0.155904  0  3.756231  0  0  -0.167394  0  4.00236  0  0  -0.171605  0  4.02106  0  0  -0.102059  -0.164787  0  3.989988  0
C  C33  1  0.48562706  0.90832820  0.17470876  1  0  -0.155725  0  3.75611  0  0  -0.16719  0  4.002277  0  0  -0.171395  0  4.020968  0  0  -0.10202  -0.164586  0  3.989909  0
C  C34  1  0.47636848  0.97994283  0.76046329  1  0  -0.062048  0  3.771139  0  0  -0.08643  0  4.020557  0  0  -0.084846  0  4.039069  0  0  -0.091007  -0.087333  0  4.008095  0
C  C35  1  0.52363116  0.02006030  0.23953466  1  0  -0.062167  0  3.771225  0  0  -0.08653  0  4.020638  0  0  -0.084945  0  4.039147  0  0  -0.091037  -0.087432  0  4.008179  0
C  C36  1  0.39499588  0.31908334  0.98596430  1  0  -0.33722  0  3.704598  0  0  -0.419911  0  3.938119  0  0  -0.422449  0  3.947658  0  0  -0.242612  -0.417861  0  3.931421  0
C  C37  1  0.60499082  0.68092244  0.01403741  1  0  -0.337124  0  3.704544  0  0  -0.419817  0  3.938086  0  0  -0.422359  0  3.947631  0  0  -0.242548  -0.417765  0  3.931386  0
C  C38  1  0.98621948  0.48103486  0.70497432  1  0  0.069425  0  3.669827  0  0  0.040531  0  3.916825  0  0  0.041962  0  3.937691  0  0  0.056209  0.039113  0  3.903677  0
C  C39  1  0.01378513  0.51896017  0.29502799  1  0  0.069329  0  3.66984  0  0  0.040423  0  3.916885  0  0  0.041869  0  3.937724  0  0  0.056168  0.039005  0  3.903738  0
C  C40  1  0.79237983  0.47385893  0.70746573  1  0  0.068282  0  3.655277  0  0  0.038398  0  3.901405  0  0  0.039802  0  3.921809  0  0  0.053485  0.037148  0  3.888304  0
C  C41  1  0.20762655  0.52613877  0.29253513  1  0  0.06845  0  3.65516  0  0  0.038544  0  3.901297  0  0  0.039944  0  3.921712  0  0  0.053526  0.037297  0  3.888193  0
C  C42  1  0.95830793  0.25821240  0.56269112  1  0  0.095592  0  3.632159  0  0  0.062928  0  3.8826  0  0  0.066557  0  3.899272  0  0  0.062047  0.06015  0  3.871994  0
C  C43  1  0.04169962  0.74178264  0.43730980  1  0  0.095627  0  3.631957  0  0  0.062955  0  3.882425  0  0  0.066582  0  3.899102  0  0  0.061983  0.060173  0  3.871825  0
C  C44  1  0.15260431  0.26509150  0.56055128  1  0  0.079515  0  3.633369  0  0  0.048653  0  3.880591  0  0  0.051009  0  3.899699  0  0  0.056717  0.046754  0  3.868387  0
C  C45  1  0.84740472  0.73490349  0.43945116  1  0  0.07938  0  3.633493  0  0  0.048491  0  3.880704  0  0  0.050889  0  3.899735  0  0  0.056651  0.046594  0  3.868501  0
S  S46  1  0.22903068  0.82570625  0.70708726  1  0  1.271994  0  5.707873  0  0  1.180185  0  6.227952  0  0  1.228248  0  6.203849  0  0  0.485028  1.147046  0  6.243179  0
S  S47  1  0.77097511  0.17429295  0.29290734  1  0  1.272079  0  5.707908  0  0  1.180315  0  6.227982  0  0  1.22838  0  6.203875  0  0  0.48502  1.147177  0  6.243207  0
N  N48  1  0.16556358  0.37961223  0.62888452  1  0  -0.243394  0  3.341202  0  0  -0.156836  0  3.609766  0  0  -0.172179  0  3.629103  0  0  -0.327312  -0.146631  0  3.597085  0
N  N49  1  0.83444132  0.62037867  0.37112346  1  0  -0.243294  0  3.341051  0  0  -0.156723  0  3.609569  0  0  -0.172078  0  3.62892  0  0  -0.327251  -0.146517  0  3.596887  0
N  N50  1  0.77828709  0.36571935  0.63406890  1  0  -0.240346  0  3.32975  0  0  -0.154866  0  3.603758  0  0  -0.169568  0  3.619847  0  0  -0.327462  -0.14516  0  3.593381  0
N  N51  1  0.22172252  0.63427436  0.36593178  1  0  -0.240429  0  3.329841  0  0  -0.154918  0  3.603843  0  0  -0.169624  0  3.619931  0  0  -0.327401  -0.145212  0  3.59347  0
O  O52  1  0.28200388  0.65771910  0.78336840  1  0  -0.691126  0  1.959429  0  0  -0.634967  0  2.219081  0  0  -0.657255  0  2.203836  0  0  -0.354646  -0.618974  0  2.228886  0
O  O53  1  0.71800423  0.34227485  0.21662452  1  0  -0.6911  0  1.959478  0  0  -0.635013  0  2.21919  0  0  -0.657302  0  2.203942  0  0  -0.354626  -0.619021  0  2.228992  0
O  O54  1  0.00548570  0.90169580  0.70312188  1  0  -0.664347  0  1.93569  0  0  -0.616928  0  2.184352  0  0  -0.638835  0  2.172972  0  0  -0.348517  -0.601056  0  2.191464  0
O  O55  1  0.99452360  0.09830220  0.29686779  1  0  -0.664405  0  1.935693  0  0  -0.616997  0  2.184361  0  0  -0.638905  0  2.172979  0  0  -0.348529  -0.601123  0  2.191472  0
O  O56  1  0.37628067  0.80940218  0.58342527  1  0  -0.707224  0  2.000361  0  0  -0.657998  0  2.281416  0  0  -0.678667  0  2.263118  0  0  -0.361665  -0.643186  0  2.293339  0
O  O57  1  0.62373102  0.19059688  0.41657278  1  0  -0.707289  0  2.000315  0  0  -0.658055  0  2.281358  0  0  -0.678723  0  2.263057  0  0  -0.36166  -0.643244  0  2.29328  0
