# generated using pymatgen
data_CdH10C13S(NO)4
_symmetry_space_group_name_H-M   'P 1'
_cell_length_a   10.85506152
_cell_length_b   15.29171430
_cell_length_c   19.75915473
_cell_angle_alpha   89.99994802
_cell_angle_beta   94.22844752
_cell_angle_gamma   90.00003107
_symmetry_Int_Tables_number   1
_chemical_formula_structural   CdH10C13S(NO)4
_chemical_formula_sum   'Cd8 H80 C104 S8 N32 O32'
_cell_volume   3270.94364280
_cell_formula_units_Z   8
loop_
 _symmetry_equiv_pos_site_id
 _symmetry_equiv_pos_as_xyz
  1  'x, y, z'
loop_
 _atom_site_type_symbol
 _atom_site_label
 _atom_site_symmetry_multiplicity
 _atom_site_fract_x
 _atom_site_fract_y
 _atom_site_fract_z
 _atom_site_occupancy
 _atom_site_pbe_bader_charge
 _atom_site_pbe_bader_spin_density
 _atom_site_pbe_cm5_charge
 _atom_site_pbe_ddec_charge
 _atom_site_pbe_ddec_spin_density
 _atom_site_pbe_ddec_sum_bond_order
 _atom_site_pbe_magmom
Cd  Cd0  1  0.17506840  0.41555343  0.70230029  1  1.28547  0  0.781652  0.908088  0  2.179314  0
Cd  Cd1  1  0.82491948  0.91555107  0.79770075  1  1.285504  0  0.781659  0.908103  0  2.179381  0
Cd  Cd2  1  0.82492991  0.58445375  0.29769911  1  1.285289  0  0.781701  0.908102  0  2.17926  0
Cd  Cd3  1  0.17508068  0.08444565  0.20230327  1  1.285574  0  0.781679  0.908113  0  2.179342  0
Cd  Cd4  1  0.17789951  0.58645374  0.84024069  1  1.282619  0  0.784211  0.907396  0  2.171896  0
Cd  Cd5  1  0.82208907  0.08645967  0.65975758  1  1.282571  0  0.784207  0.907394  0  2.172025  0
Cd  Cd6  1  0.82210157  0.41353905  0.15975882  1  1.282677  0  0.784201  0.907371  0  2.171958  0
Cd  Cd7  1  0.17790647  0.91353639  0.34024272  1  1.282523  0  0.784233  0.907383  0  2.171954  0
H  H8  1  0.15792453  0.54517925  0.57488609  1  0.144718  0  0.104454  0.13598  0  1.030762  0
H  H9  1  0.84207603  0.04517768  0.92511421  1  0.144664  0  0.104434  0.135938  0  1.030828  0
H  H10  1  0.84207562  0.45482335  0.42511237  1  0.144664  0  0.104425  0.135942  0  1.030774  0
H  H11  1  0.15792505  0.95481903  0.07488378  1  0.144736  0  0.10447  0.135986  0  1.030795  0
H  H12  1  0.13407281  0.63242722  0.45970689  1  0.088676  0  0.105689  0.12286  0  1.025143  0
H  H13  1  0.86592303  0.13242414  0.04029335  1  0.088687  0  0.105674  0.122815  0  1.025175  0
H  H14  1  0.86591719  0.36757996  0.54029268  1  0.088741  0  0.105656  0.122773  0  1.02525  0
H  H15  1  0.13407990  0.86757192  0.95970522  1  0.088638  0  0.105681  0.122827  0  1.025142  0
H  H16  1  0.13906876  0.45092994  0.96303784  1  0.136356  0  0.109491  0.140077  0  1.009774  0
H  H17  1  0.86093392  0.95093313  0.53696226  1  0.136302  0  0.109483  0.140085  0  1.009718  0
H  H18  1  0.86092955  0.54906873  0.03695954  1  0.136339  0  0.10949  0.140047  0  1.009781  0
H  H19  1  0.13907085  0.04906816  0.46303943  1  0.13632  0  0.109475  0.140069  0  1.009735  0
H  H20  1  0.13361222  0.35980660  0.07613655  1  0.103718  0  0.105691  0.119292  0  1.040815  0
H  H21  1  0.86638747  0.85980934  0.42386317  1  0.103687  0  0.105673  0.119239  0  1.040865  0
H  H22  1  0.86638702  0.64019469  0.92386187  1  0.103691  0  0.105683  0.119284  0  1.040859  0
H  H23  1  0.13361361  0.14019195  0.57613785  1  0.103691  0  0.105656  0.119239  0  1.04084  0
H  H24  1  0.95320306  0.57185263  0.63884026  1  0.133556  0  0.112146  0.104311  0  1.047209  0
H  H25  1  0.04679937  0.07185018  0.86115857  1  0.133462  0  0.112144  0.104384  0  1.04717  0
H  H26  1  0.04679987  0.42814604  0.36115375  1  0.133357  0  0.112143  0.104345  0  1.047234  0
H  H27  1  0.95320356  0.92814914  0.13884860  1  0.133832  0  0.112134  0.104335  0  1.047271  0
H  H28  1  0.71089466  0.52183075  0.60498603  1  0.120215  0  0.11956  0.119761  0  1.01381  0
H  H29  1  0.28910957  0.02183031  0.89501241  1  0.120204  0  0.11958  0.119756  0  1.013781  0
H  H30  1  0.28910826  0.47816989  0.39501052  1  0.120158  0  0.119603  0.119784  0  1.013783  0
H  H31  1  0.71089336  0.97817032  0.10499325  1  0.120239  0  0.119623  0.119805  0  1.013819  0
H  H32  1  0.90536278  0.31048032  0.70187317  1  0.218712  0  0.142334  0.131216  0  1.011198  0
H  H33  1  0.09463889  0.81047899  0.79812749  1  0.218689  0  0.142316  0.13121  0  1.011196  0
H  H34  1  0.09463553  0.68952358  0.29813028  1  0.218671  0  0.142331  0.131201  0  1.011182  0
H  H35  1  0.90536681  0.18952622  0.20187018  1  0.218625  0  0.142333  0.131209  0  1.011292  0
H  H36  1  0.63439663  0.34864153  0.58842116  1  0.115782  0  0.134219  0.099598  0  0.95216  0
H  H37  1  0.36560691  0.84864278  0.91157853  1  0.115788  0  0.134226  0.099619  0  0.952144  0
H  H38  1  0.36559984  0.65135911  0.41158322  1  0.115555  0  0.134208  0.099607  0  0.952021  0
H  H39  1  0.63440063  0.15135916  0.08841922  1  0.115756  0  0.134179  0.099587  0  0.952076  0
H  H40  1  0.70337317  0.27703083  0.65136737  1  0.186553  0  0.136378  0.11913  0  1.019594  0
H  H41  1  0.29663031  0.77703278  0.84863186  1  0.18651  0  0.136392  0.119138  0  1.019644  0
H  H42  1  0.29662606  0.72296981  0.34863560  1  0.186461  0  0.136406  0.119077  0  1.019671  0
H  H43  1  0.70337261  0.22297112  0.15136569  1  0.186487  0  0.136417  0.119127  0  1.019593  0
H  H44  1  0.65169973  0.31817721  0.78048066  1  0.180241  0  0.117443  0.123243  0  1.058688  0
H  H45  1  0.34830102  0.81818064  0.71951793  1  0.1806  0  0.117455  0.123229  0  1.058753  0
H  H46  1  0.34829858  0.68182147  0.21952380  1  0.179355  0  0.117498  0.123289  0  1.058706  0
H  H47  1  0.65170099  0.18182196  0.28047857  1  0.179328  0  0.117506  0.123325  0  1.05865  0
H  H48  1  0.42124018  0.37318667  0.82118753  1  0.129254  0  0.12274  0.124815  0  0.994719  0
H  H49  1  0.57876337  0.87318697  0.67881063  1  0.129428  0  0.122714  0.124798  0  0.994734  0
H  H50  1  0.57875721  0.62681331  0.17881436  1  0.129354  0  0.122761  0.124823  0  0.994647  0
H  H51  1  0.42124140  0.12681236  0.32118599  1  0.129308  0  0.122767  0.12484  0  0.994688  0
H  H52  1  0.43029746  0.41401479  0.61074327  1  0.157711  0  0.13802  0.113311  0  0.992253  0
H  H53  1  0.56970890  0.91401157  0.88925497  1  0.157883  0  0.138025  0.11334  0  0.992205  0
H  H54  1  0.56970640  0.58598585  0.38926040  1  0.157584  0  0.138011  0.113332  0  0.992146  0
H  H55  1  0.43029495  0.08598645  0.11074110  1  0.157635  0  0.138044  0.113375  0  0.992102  0
H  H56  1  0.91829325  0.69061490  0.77279243  1  0.232973  0  0.141218  0.129514  0  1.010301  0
H  H57  1  0.08170649  0.19061459  0.72720773  1  0.233001  0  0.14125  0.129582  0  1.010313  0
H  H58  1  0.08170691  0.30938312  0.22720755  1  0.232942  0  0.141222  0.129527  0  1.010357  0
H  H59  1  0.91829552  0.80938344  0.27279283  1  0.232963  0  0.141191  0.12953  0  1.010323  0
H  H60  1  0.93724834  0.44163034  0.86620946  1  0.147477  0  0.112038  0.105454  0  1.043575  0
H  H61  1  0.06274879  0.94163181  0.63378991  1  0.147436  0  0.112039  0.10546  0  1.043602  0
H  H62  1  0.06275181  0.55836899  0.13378951  1  0.147467  0  0.112049  0.10545  0  1.043568  0
H  H63  1  0.93724859  0.05836818  0.36620945  1  0.147473  0  0.112051  0.105473  0  1.043578  0
H  H64  1  0.69219533  0.47974246  0.82680648  1  0.108646  0  0.117473  0.11625  0  1.036453  0
H  H65  1  0.30780091  0.97974332  0.67319232  1  0.10868  0  0.117484  0.116286  0  1.03642  0
H  H66  1  0.30780390  0.52025490  0.17319346  1  0.108682  0  0.117484  0.116294  0  1.036414  0
H  H67  1  0.69219555  0.02025536  0.32680650  1  0.108703  0  0.117476  0.116261  0  1.036444  0
H  H68  1  0.69592694  0.71377578  0.75543870  1  0.191162  0  0.134044  0.11725  0  1.004326  0
H  H69  1  0.30407281  0.21377553  0.74456043  1  0.19115  0  0.134046  0.117263  0  1.004354  0
H  H70  1  0.30407137  0.28622159  0.24456070  1  0.191079  0  0.134054  0.117237  0  1.004449  0
H  H71  1  0.69592550  0.78622249  0.25543896  1  0.191143  0  0.13406  0.117247  0  1.004446  0
H  H72  1  0.63385681  0.61775909  0.71403170  1  0.080117  0  0.126645  0.085053  0  0.965802  0
H  H73  1  0.36614472  0.11775946  0.78596707  1  0.080138  0  0.126675  0.0851  0  0.965777  0
H  H74  1  0.36614427  0.38223893  0.28596731  1  0.080152  0  0.126683  0.085142  0  0.96576  0
H  H75  1  0.63385636  0.88223921  0.21403193  1  0.080125  0  0.126695  0.085169  0  0.965732  0
H  H76  1  0.42832295  0.57189106  0.74457820  1  0.158867  0  0.133471  0.104575  0  1.021231  0
H  H77  1  0.57167670  0.07189089  0.75541951  1  0.158893  0  0.13348  0.104636  0  1.021186  0
H  H78  1  0.57167628  0.42810762  0.25542022  1  0.15892  0  0.13348  0.104618  0  1.021268  0
H  H79  1  0.42832068  0.92810844  0.24457833  1  0.158947  0  0.133471  0.104603  0  1.021151  0
H  H80  1  0.42654157  0.65509613  0.94770883  1  0.129632  0  0.123137  0.122651  0  0.991317  0
H  H81  1  0.57345814  0.15510143  0.55229034  1  0.129558  0  0.123144  0.122656  0  0.991282  0
H  H82  1  0.57345674  0.34489731  0.05229158  1  0.12961  0  0.123132  0.122626  0  0.991322  0
H  H83  1  0.42654202  0.84490378  0.44771014  1  0.129584  0  0.123139  0.12264  0  0.991318  0
H  H84  1  0.65252619  0.70203142  0.89775066  1  0.141521  0  0.120919  0.125739  0  1.060372  0
H  H85  1  0.34747540  0.20203396  0.60224855  1  0.1414  0  0.120909  0.125743  0  1.060424  0
H  H86  1  0.34747212  0.29796398  0.10224924  1  0.14148  0  0.120895  0.125711  0  1.060432  0
H  H87  1  0.65252660  0.79796863  0.39775100  1  0.141552  0  0.120929  0.125778  0  1.060367  0
C  C88  1  0.18863837  0.65040153  0.69965318  1  1.56667  0  0.187717  0.576383  0  4.2744  0
C  C89  1  0.81136318  0.15039944  0.80034556  1  1.566692  0  0.187642  0.576303  0  4.274672  0
C  C90  1  0.81136086  0.34960238  0.30034474  1  1.566756  0  0.187622  0.576252  0  4.274695  0
C  C91  1  0.18863697  0.84959858  0.19965239  1  1.566709  0  0.187619  0.576239  0  4.274559  0
C  C92  1  0.17874411  0.67176673  0.62667753  1  -0.235716  0  -0.03787  -0.148482  0  4.020809  0
C  C93  1  0.82125653  0.17176456  0.87332218  1  -0.236008  0  -0.037884  -0.148531  0  4.020861  0
C  C94  1  0.82125697  0.32823587  0.37332198  1  -0.235968  0  -0.037884  -0.148535  0  4.020753  0
C  C95  1  0.17874363  0.82823346  0.12667679  1  -0.235798  0  -0.0379  -0.148555  0  4.02083  0
C  C96  1  0.16205989  0.61625304  0.57118886  1  -0.052141  0  -0.10115  -0.112777  0  3.986057  0
C  C97  1  0.83793795  0.11625081  0.92881026  1  -0.051897  0  -0.101133  -0.112744  0  3.98607  0
C  C98  1  0.83793750  0.38374956  0.42881050  1  -0.051955  0  -0.101109  -0.112715  0  3.986024  0
C  C99  1  0.16206128  0.88374656  0.07118765  1  -0.052291  0  -0.101153  -0.112758  0  3.986022  0
C  C100  1  0.15170153  0.66250034  0.50928149  1  0.013549  0  -0.1024  -0.111141  0  3.985088  0
C  C101  1  0.84829726  0.16249739  0.99071865  1  0.013504  0  -0.102356  -0.111038  0  3.984827  0
C  C102  1  0.84829401  0.33750487  0.49071932  1  0.013561  0  -0.10234  -0.110961  0  3.984952  0
C  C103  1  0.15170474  0.83749932  0.00928039  1  0.013676  0  -0.102413  -0.111117  0  3.985056  0
C  C104  1  0.16333112  0.75233330  0.51749994  1  -0.188126  0  -0.024911  -0.111131  0  3.973389  0
C  C105  1  0.83666497  0.25232970  0.98250155  1  -0.188146  0  -0.024929  -0.111143  0  3.973277  0
C  C106  1  0.83666257  0.24767191  0.48250180  1  -0.188302  0  -0.024958  -0.111254  0  3.973369  0
C  C107  1  0.16333427  0.74766766  0.01749839  1  -0.188151  0  -0.02489  -0.111091  0  3.97335  0
C  C108  1  0.16450392  0.81916822  0.46291938  1  1.559229  0  0.178866  0.559123  0  4.304985  0
C  C109  1  0.83549574  0.31916710  0.03708037  1  1.559238  0  0.178818  0.559065  0  4.305048  0
C  C110  1  0.83548700  0.18083634  0.53708123  1  1.559523  0  0.178907  0.55928  0  4.304897  0
C  C111  1  0.16450904  0.68083027  0.96291979  1  1.559374  0  0.178941  0.559295  0  4.305151  0
C  C112  1  0.17078706  0.35195420  0.83910360  1  1.539075  0  0.188532  0.573591  0  4.275743  0
C  C113  1  0.82921001  0.85195985  0.66089684  1  1.539158  0  0.188656  0.573821  0  4.275706  0
C  C114  1  0.82921217  0.64804317  0.16089584  1  1.539035  0  0.188506  0.573535  0  4.275734  0
C  C115  1  0.17079569  0.14804472  0.33910538  1  1.539061  0  0.188614  0.573752  0  4.275701  0
C  C116  1  0.16676749  0.32695107  0.91079169  1  -0.24174  0  -0.034722  -0.145545  0  4.028443  0
C  C117  1  0.83323234  0.82695419  0.58920787  1  -0.24167  0  -0.034761  -0.145676  0  4.028374  0
C  C118  1  0.83323267  0.67304760  0.08920879  1  -0.241628  0  -0.034697  -0.145539  0  4.02835  0
C  C119  1  0.16677244  0.17304710  0.41079280  1  -0.241659  0  -0.034767  -0.145761  0  4.02861  0
C  C120  1  0.14960460  0.38014063  0.96617658  1  0.014094  0  -0.093532  -0.097983  0  3.954707  0
C  C121  1  0.85039527  0.88014381  0.53382244  1  0.014005  0  -0.093509  -0.09797  0  3.954653  0
C  C122  1  0.85039741  0.61985870  0.03382296  1  0.014041  0  -0.093526  -0.097903  0  3.954599  0
C  C123  1  0.14960397  0.11985748  0.46617750  1  0.014028  0  -0.093469  -0.097851  0  3.954661  0
C  C124  1  0.14849320  0.33189544  0.02689974  1  0.01072  0  -0.097392  -0.101028  0  3.974936  0
C  C125  1  0.85150463  0.83189746  0.47309993  1  0.010695  0  -0.097397  -0.10096  0  3.974946  0
C  C126  1  0.85150419  0.66810520  0.97309962  1  0.010771  0  -0.097419  -0.101068  0  3.974895  0
C  C127  1  0.14849368  0.16810318  0.52689947  1  0.010728  0  -0.097349  -0.100948  0  3.974825  0
C  C128  1  0.16752349  0.24300286  0.01806891  1  -0.223308  0  -0.02569  -0.114811  0  3.955737  0
C  C129  1  0.83247335  0.74300617  0.48193180  1  -0.223344  0  -0.025644  -0.114758  0  3.955743  0
C  C130  1  0.83247666  0.75699843  0.98193157  1  -0.223224  0  -0.025678  -0.11495  0  3.955746  0
C  C131  1  0.16752681  0.25699577  0.51806919  1  -0.223287  0  -0.0257  -0.114869  0  3.955678  0
C  C132  1  0.18018041  0.17508828  0.07216584  1  1.583741  0  0.179342  0.563522  0  4.302268  0
C  C133  1  0.81981639  0.67509099  0.42783794  1  1.583709  0  0.179268  0.563358  0  4.302468  0
C  C134  1  0.81981883  0.82491171  0.92783409  1  1.583383  0  0.179359  0.563627  0  4.302269  0
C  C135  1  0.18018192  0.32491095  0.57216449  1  1.583678  0  0.179278  0.563539  0  4.302247  0
C  C136  1  0.90739967  0.51050436  0.64795448  1  0.397052  0  0.001103  -0.010637  0  3.994349  0
C  C137  1  0.09260086  0.01050260  0.85204483  1  0.396959  0  0.001071  -0.010732  0  3.994425  0
C  C138  1  0.09260510  0.48949496  0.35204316  1  0.397093  0  0.00108  -0.010704  0  3.994299  0
C  C139  1  0.90739930  0.98949542  0.14796021  1  0.396554  0  0.001106  -0.010668  0  3.994351  0
C  C140  1  0.78690760  0.48713745  0.63153688  1  0.280857  0  -0.008787  -0.130592  0  3.947983  0
C  C141  1  0.21309418  0.98713739  0.86846112  1  0.280926  0  -0.008807  -0.130537  0  3.947825  0
C  C142  1  0.21309348  0.51286188  0.36846111  1  0.280897  0  -0.0088  -0.130552  0  3.947822  0
C  C143  1  0.78690875  0.01286194  0.13154352  1  0.280973  0  -0.008858  -0.130661  0  3.947983  0
C  C144  1  0.88871151  0.37536580  0.68117321  1  0.990007  0  0.155613  0.122952  0  3.875335  0
C  C145  1  0.11128928  0.87536510  0.81882636  1  0.989973  0  0.15564  0.123038  0  3.875351  0
C  C146  1  0.11128680  0.62463615  0.31882771  1  0.989981  0  0.155593  0.122935  0  3.875317  0
C  C147  1  0.88871273  0.12463750  0.18117521  1  0.990017  0  0.155661  0.123074  0  3.875475  0
C  C148  1  0.67085553  0.34379247  0.64154401  1  0.631775  0  0.061979  0.00637  0  3.868772  0
C  C149  1  0.32914431  0.84379378  0.85845655  1  0.631756  0  0.061931  0.006281  0  3.868816  0
C  C150  1  0.32913539  0.65620686  0.35845964  1  0.631746  0  0.061927  0.006483  0  3.868744  0
C  C151  1  0.67086323  0.15620621  0.14154272  1  0.631846  0  0.061953  0.006275  0  3.868746  0
C  C152  1  0.57190650  0.34783183  0.75317150  1  0.284806  0  0.000617  -0.100897  0  3.909765  0
C  C153  1  0.42809519  0.84783526  0.74682711  1  0.284205  0  0.000648  -0.100752  0  3.909505  0
C  C154  1  0.42809274  0.65216684  0.24683299  1  0.28626  0  0.000532  -0.100918  0  3.909929  0
C  C155  1  0.57190681  0.15216603  0.25316991  1  0.285594  0  0.00058  -0.100975  0  3.909854  0
C  C156  1  0.45804559  0.37405777  0.77167573  1  0.360924  0  -0.003509  -0.03719  0  3.99955  0
C  C157  1  0.54195704  0.87405995  0.72832239  1  0.360809  0  -0.003485  -0.037207  0  3.999472  0
C  C158  1  0.54195364  0.62593895  0.22832826  1  0.360366  0  -0.003516  -0.037212  0  3.999346  0
C  C159  1  0.45804589  0.12594068  0.27167365  1  0.360941  0  -0.003556  -0.037216  0  3.999432  0
C  C160  1  0.45918790  0.39819574  0.66314984  1  0.972256  0  0.139119  0.079433  0  3.94286  0
C  C161  1  0.54081475  0.89819453  0.83684927  1  0.971986  0  0.139112  0.079427  0  3.942891  0
C  C162  1  0.54081411  0.60180621  0.33685426  1  0.972184  0  0.139078  0.079352  0  3.942799  0
C  C163  1  0.45918633  0.10180676  0.16314720  1  0.972224  0  0.139056  0.079304  0  3.942631  0
C  C164  1  0.89391435  0.62764615  0.79307251  1  0.948436  0  0.151872  0.115276  0  3.883704  0
C  C165  1  0.10608349  0.12764586  0.70692660  1  0.948442  0  0.151876  0.115273  0  3.883718  0
C  C166  1  0.10608488  0.37235187  0.20692641  1  0.948496  0  0.151877  0.115263  0  3.883909  0
C  C167  1  0.89391482  0.87235216  0.29307279  1  0.948527  0  0.151886  0.11528  0  3.883941  0
C  C168  1  0.89774403  0.49852064  0.84020984  1  0.443561  0  0.000858  -0.011821  0  3.993484  0
C  C169  1  0.10225315  0.99852143  0.65978949  1  0.443982  0  0.000882  -0.011759  0  3.993422  0
C  C170  1  0.10225521  0.50147673  0.15978909  1  0.444317  0  0.000914  -0.01167  0  3.993359  0
C  C171  1  0.89774701  0.00147659  0.34020998  1  0.443555  0  0.000888  -0.011769  0  3.99342  0
C  C172  1  0.77632394  0.51609550  0.82099405  1  0.257268  0  -0.007138  -0.120444  0  3.9361  0
C  C173  1  0.22367475  0.01609529  0.67900518  1  0.25659  0  -0.007139  -0.120468  0  3.935947  0
C  C174  1  0.22367714  0.48390252  0.17900445  1  0.256592  0  -0.00718  -0.120572  0  3.935956  0
C  C175  1  0.77632541  0.98390207  0.32099277  1  0.257138  0  -0.007155  -0.120465  0  3.936173  0
C  C176  1  0.66778159  0.64584552  0.76312652  1  0.643223  0  0.067161  0.022573  0  3.843237  0
C  C177  1  0.33221904  0.14584463  0.73687269  1  0.643266  0  0.067148  0.022538  0  3.843219  0
C  C178  1  0.33222226  0.35415119  0.23687310  1  0.643495  0  0.067133  0.022519  0  3.843229  0
C  C179  1  0.66777927  0.85415274  0.26312620  1  0.643122  0  0.067102  0.022416  0  3.843282  0
C  C180  1  0.45694542  0.60060462  0.79341458  1  0.973918  0  0.139429  0.093168  0  3.925942  0
C  C181  1  0.54305610  0.10060450  0.70658369  1  0.973717  0  0.139421  0.093155  0  3.925795  0
C  C182  1  0.54305289  0.39939274  0.20658481  1  0.974027  0  0.139371  0.093119  0  3.925833  0
C  C183  1  0.45694405  0.89939548  0.29341578  1  0.973632  0  0.13943  0.093125  0  3.925841  0
C  C184  1  0.46058864  0.64552497  0.89802148  1  0.464235  0  0.000814  -0.029654  0  3.991463  0
C  C185  1  0.53941198  0.14552562  0.60197621  1  0.464178  0  0.000828  -0.02951  0  3.991209  0
C  C186  1  0.53941244  0.35447240  0.10197803  1  0.464145  0  0.000837  -0.029476  0  3.99127  0
C  C187  1  0.46058725  0.85447436  0.39802322  1  0.464162  0  0.000825  -0.029542  0  3.991401  0
C  C188  1  0.57160361  0.66943010  0.87451912  1  0.245441  0  0.000984  -0.096405  0  3.895872  0
C  C189  1  0.42839796  0.16943330  0.62547961  1  0.245525  0  0.000971  -0.096524  0  3.895991  0
C  C190  1  0.42839655  0.33056399  0.12547984  1  0.24544  0  0.001008  -0.096434  0  3.895973  0
C  C191  1  0.57160035  0.83056668  0.37451979  1  0.245425  0  0.000982  -0.096522  0  3.895944  0
S  S192  1  0.18268597  0.78003518  0.60192097  1  0.244128  0  0.094503  0.148289  0  2.951267  0
S  S193  1  0.81731290  0.28003233  0.89808010  1  0.244272  0  0.094499  0.148308  0  2.951207  0
S  S194  1  0.81731511  0.21996807  0.39808107  1  0.244282  0  0.094519  0.148334  0  2.951195  0
S  S195  1  0.18268633  0.71996634  0.10192034  1  0.24424  0  0.094481  0.148288  0  2.951214  0
S  S196  1  0.18224335  0.21830464  0.93409719  1  0.247058  0  0.084988  0.136445  0  2.922114  0
S  S197  1  0.81774624  0.71830974  0.56590304  1  0.247055  0  0.084993  0.136478  0  2.922169  0
S  S198  1  0.81775311  0.78169534  0.06590415  1  0.246947  0  0.085011  0.136544  0  2.922008  0
S  S199  1  0.18225576  0.28169220  0.43409752  1  0.247018  0  0.084985  0.136492  0  2.922161  0
N  N200  1  0.96937707  0.44021204  0.67868477  1  -1.22816  0  -0.355078  -0.289034  0  3.51182  0
N  N201  1  0.03062191  0.94020935  0.82131518  1  -1.227888  0  -0.35507  -0.28917  0  3.511929  0
N  N202  1  0.03062494  0.55978990  0.32131326  1  -1.227898  0  -0.355061  -0.289021  0  3.511731  0
N  N203  1  0.96937917  0.05979194  0.17868837  1  -1.227918  0  -0.355102  -0.289171  0  3.511752  0
N  N204  1  0.77638066  0.40119547  0.65314708  1  -1.24285  0  -0.248924  0.010334  0  3.786144  0
N  N205  1  0.22362107  0.90119609  0.84684997  1  -1.242885  0  -0.248889  0.010401  0  3.78611  0
N  N206  1  0.22361765  0.59880648  0.34685383  1  -1.242719  0  -0.248874  0.010354  0  3.786158  0
N  N207  1  0.77638186  0.09880585  0.15315164  1  -1.243017  0  -0.248944  0.010405  0  3.786347  0
N  N208  1  0.57127294  0.36407204  0.68425027  1  -1.235342  0  -0.244945  0.015738  0  3.796469  0
N  N209  1  0.42872969  0.86407277  0.81574937  1  -1.235026  0  -0.245001  0.015602  0  3.796556  0
N  N210  1  0.42872815  0.63592991  0.31575480  1  -1.235092  0  -0.244903  0.015535  0  3.796744  0
N  N211  1  0.57127139  0.13592917  0.18424811  1  -1.235076  0  -0.244902  0.015776  0  3.796434  0
N  N212  1  0.38874457  0.40490717  0.71504920  1  -1.217441  0  -0.355494  -0.294196  0  3.536466  0
N  N213  1  0.61125900  0.90490671  0.78494893  1  -1.217435  0  -0.355487  -0.294192  0  3.536576  0
N  N214  1  0.61125559  0.59509150  0.28495381  1  -1.217442  0  -0.355504  -0.294075  0  3.536342  0
N  N215  1  0.38874300  0.09509393  0.21504758  1  -1.217502  0  -0.355476  -0.294107  0  3.536292  0
N  N216  1  0.96955095  0.56826170  0.82230467  1  -1.21232  0  -0.35714  -0.291846  0  3.525455  0
N  N217  1  0.03044408  0.06826207  0.67769438  1  -1.212129  0  -0.357155  -0.291945  0  3.525379  0
N  N218  1  0.03044921  0.43173698  0.17769480  1  -1.212434  0  -0.357177  -0.291922  0  3.525526  0
N  N219  1  0.96955422  0.93173595  0.32230451  1  -1.212185  0  -0.357168  -0.291922  0  3.525412  0
N  N220  1  0.77545696  0.59829297  0.79130595  1  -1.23119  0  -0.246591  0.009539  0  3.78115  0
N  N221  1  0.22454179  0.09829339  0.70869373  1  -1.231145  0  -0.246658  0.009458  0  3.781031  0
N  N222  1  0.22454412  0.40170439  0.20869305  1  -1.231246  0  -0.246621  0.009536  0  3.780975  0
N  N223  1  0.77545836  0.90170464  0.29130574  1  -1.231256  0  -0.2466  0.009491  0  3.781319  0
N  N224  1  0.56788241  0.64045563  0.80798712  1  -1.255255  0  -0.242289  0.015797  0  3.779098  0
N  N225  1  0.43211636  0.14045548  0.69201152  1  -1.25519  0  -0.242236  0.01586  0  3.779058  0
N  N226  1  0.43211590  0.35954239  0.19201127  1  -1.255377  0  -0.242223  0.015833  0  3.779133  0
N  N227  1  0.56788379  0.85954581  0.30798795  1  -1.255095  0  -0.242264  0.015952  0  3.778998  0
N  N228  1  0.38974704  0.60328838  0.84684522  1  -1.219073  0  -0.354563  -0.28849  0  3.510809  0
N  N229  1  0.61025356  0.10329031  0.65315301  1  -1.218795  0  -0.354641  -0.28866  0  3.51088  0
N  N230  1  0.61025311  0.39670767  0.15315476  1  -1.21915  0  -0.354586  -0.288636  0  3.510828  0
N  N231  1  0.38974660  0.89670967  0.34684595  1  -1.218786  0  -0.354583  -0.288563  0  3.510862  0
O  O232  1  0.19370563  0.56933474  0.71772125  1  -1.184132  0  -0.34194  -0.58429  0  2.357871  0
O  O233  1  0.80629217  0.06933333  0.78227689  1  -1.184183  0  -0.341847  -0.584187  0  2.358152  0
O  O234  1  0.80628991  0.43066786  0.28227753  1  -1.184252  0  -0.341863  -0.584192  0  2.358112  0
O  O235  1  0.19370798  0.93066535  0.21772106  1  -1.184122  0  -0.341896  -0.584229  0  2.357993  0
O  O236  1  0.19179239  0.71207281  0.74253425  1  -1.169485  0  -0.331057  -0.570247  0  2.181694  0
O  O237  1  0.80821198  0.21207012  0.75746456  1  -1.169472  0  -0.33108  -0.570292  0  2.181796  0
O  O238  1  0.80821331  0.28793175  0.25746291  1  -1.169491  0  -0.331068  -0.570262  0  2.181811  0
O  O239  1  0.19178171  0.78792921  0.24253465  1  -1.169511  0  -0.331036  -0.570202  0  2.181738  0
O  O240  1  0.15038845  0.78882371  0.40214544  1  -1.149831  0  -0.336223  -0.563869  0  2.271073  0
O  O241  1  0.84961211  0.28882449  0.09785487  1  -1.149867  0  -0.336241  -0.563906  0  2.271064  0
O  O242  1  0.84959508  0.21118150  0.59785538  1  -1.149951  0  -0.336238  -0.563998  0  2.271051  0
O  O243  1  0.15039543  0.71117549  0.90214591  1  -1.149906  0  -0.336261  -0.564033  0  2.271115  0
O  O244  1  0.18264353  0.89899641  0.47718817  1  -1.169297  0  -0.344082  -0.570443  0  2.093045  0
O  O245  1  0.81735711  0.39899465  0.02280954  1  -1.169272  0  -0.344018  -0.570368  0  2.09303  0
O  O246  1  0.81734831  0.10100815  0.52281097  1  -1.169447  0  -0.344085  -0.570475  0  2.093088  0
O  O247  1  0.18264674  0.60100337  0.97719109  1  -1.169402  0  -0.344083  -0.570468  0  2.093057  0
O  O248  1  0.18164184  0.43352387  0.82408231  1  -1.174578  0  -0.339293  -0.572462  0  2.356339  0
O  O249  1  0.81834882  0.93352819  0.67591630  1  -1.174725  0  -0.339279  -0.572407  0  2.356226  0
O  O250  1  0.81835647  0.56647349  0.17591658  1  -1.174612  0  -0.339271  -0.572359  0  2.356141  0
O  O251  1  0.18164857  0.06647375  0.32408610  1  -1.174635  0  -0.339298  -0.572427  0  2.356185  0
O  O252  1  0.16499990  0.29335844  0.79355647  1  -1.174847  0  -0.329498  -0.563701  0  2.189879  0
O  O253  1  0.83499806  0.79336338  0.70644405  1  -1.174746  0  -0.329547  -0.563817  0  2.190114  0
O  O254  1  0.83500118  0.70664024  0.20644354  1  -1.174792  0  -0.329479  -0.563706  0  2.189968  0
O  O255  1  0.16500764  0.20663987  0.29355817  1  -1.174724  0  -0.329532  -0.563788  0  2.190003  0
O  O256  1  0.16983463  0.20407845  0.13269793  1  -1.153906  0  -0.341008  -0.569781  0  2.257372  0
O  O257  1  0.83016495  0.70407666  0.36730341  1  -1.153599  0  -0.340982  -0.569732  0  2.257532  0
O  O258  1  0.83016645  0.79592415  0.86730157  1  -1.15362  0  -0.341006  -0.56981  0  2.257449  0
O  O259  1  0.16982966  0.29592397  0.63269735  1  -1.153831  0  -0.340998  -0.569828  0  2.257399  0
O  O260  1  0.20291071  0.09659218  0.05748453  1  -1.18727  0  -0.351258  -0.585166  0  2.098409  0
O  O261  1  0.79708696  0.59659422  0.44251986  1  -1.187245  0  -0.351278  -0.58513  0  2.098355  0
O  O262  1  0.79708853  0.90340845  0.94251339  1  -1.187198  0  -0.351277  -0.585187  0  2.098416  0
O  O263  1  0.20290766  0.40340903  0.55748293  1  -1.187224  0  -0.351237  -0.585148  0  2.098331  0
