# generated using pymatgen
data_Cu3H16(C6N11)2
_symmetry_space_group_name_H-M   'P 1'
_cell_length_a   7.39977142
_cell_length_b   9.07932381
_cell_length_c   9.26942442
_cell_angle_alpha   76.49710893
_cell_angle_beta   75.62175871
_cell_angle_gamma   71.00127499
_symmetry_Int_Tables_number   1
_chemical_formula_structural   Cu3H16(C6N11)2
_chemical_formula_sum   'Cu3 H16 C12 N22'
_cell_volume   562.41873905
_cell_formula_units_Z   1
loop_
 _symmetry_equiv_pos_site_id
 _symmetry_equiv_pos_as_xyz
  1  'x, y, z'
loop_
 _atom_site_type_symbol
 _atom_site_label
 _atom_site_symmetry_multiplicity
 _atom_site_fract_x
 _atom_site_fract_y
 _atom_site_fract_z
 _atom_site_occupancy
 _atom_site_hle17_ddec_charge
 _atom_site_hle17_ddec_spin_density
 _atom_site_hle17_ddec_sum_bond_order
 _atom_site_hle17_magmom
 _atom_site_hse06_10hf_ddec_charge
 _atom_site_hse06_10hf_ddec_spin_density
 _atom_site_hse06_10hf_ddec_sum_bond_order
 _atom_site_hse06_10hf_magmom
 _atom_site_hse06_ddec_charge
 _atom_site_hse06_ddec_spin_density
 _atom_site_hse06_ddec_sum_bond_order
 _atom_site_hse06_magmom
 _atom_site_pbe_cm5_charge
 _atom_site_pbe_ddec_charge
 _atom_site_pbe_ddec_spin_density
 _atom_site_pbe_ddec_sum_bond_order
 _atom_site_pbe_magmom
Cu  Cu0  1  0.00064589  0.49990544  0.50000068  1  0.808916  -0.631949  1.880112  -0.423  0.822347  -0.750555  2.257161  -0.563  0.905187  -0.843253  2.196818  -0.657  0.758462  0.777275  -0.68112  2.296123  -0.499
Cu  Cu1  1  0.43214885  0.39791311  0.28169441  1  0.746573  -0.546847  1.921068  -0.363  0.729635  -0.682886  2.35876  -0.507  0.821551  -0.78359  2.285518  -0.603  0.756351  0.68224  -0.615401  2.402685  -0.447
Cu  Cu2  1  0.56720755  0.60206963  0.71845951  1  0.746498  0.573758  1.91966  0.357  0.729273  0.716452  2.3568  0.508  0.822191  0.837492  2.282942  0.607  0.754948  0.680792  0.62969  2.401426  0.441
H  H3  1  0.67549106  0.08993106  0.38833267  1  0.084925  -3e-06  0.970068  -0.001  0.08866  -0.00048  1.046339  -0.001  0.090295  -0.00031  1.044658  -0.001  0.114045  0.086355  -0.000728  1.049568  -0.002
H  H4  1  0.32428899  0.91006927  0.61174547  1  0.085035  1.9e-05  0.96946  0.001  0.088728  0.000283  1.04584  0.001  0.090344  0.000203  1.044312  0.001  0.114338  0.086522  0.000213  1.048789  0.001
H  H5  1  0.89085471  0.84044438  0.00835832  1  0.099747  -0.000141  0.978955  0.0  0.106039  -3e-06  1.049635  0.0  0.109353  3.3e-05  1.046806  0.0  0.103713  0.103846  -4.9e-05  1.051061  0.0
H  H6  1  0.10932668  0.15984313  0.99153011  1  0.10024  0.000228  0.979129  0.0  0.106518  -0.000122  1.049586  0.0  0.109749  -0.000139  1.046914  0.0  0.103975  0.104552  -0.000225  1.050681  0.0
H  H7  1  0.67216355  0.06773464  0.86398520  1  0.105425  -0.000378  0.964574  0.0  0.11028  -0.000323  1.032666  -0.001  0.112881  -0.000235  1.032418  0.0  0.105723  0.108389  -0.000354  1.032816  -0.001
H  H8  1  0.32744134  0.93249386  0.13608897  1  0.104803  -0.000242  0.965324  0.0  0.110008  -0.000119  1.033224  0.001  0.112634  -0.00012  1.0329  0.0  0.105672  0.108159  -0.000154  1.033382  0.001
H  H9  1  0.46967569  0.29896372  0.98837669  1  0.075874  -0.001082  0.979427  -0.001  0.082403  -0.001129  1.051645  -0.002  0.084309  -0.000867  1.050449  -0.001  0.112908  0.08092  -0.001296  1.052573  -0.002
H  H10  1  0.52976601  0.70099918  0.01185844  1  0.076364  0.001283  0.979407  0.002  0.082647  0.001177  1.051622  0.002  0.084593  0.000933  1.050341  0.001  0.11297  0.081162  0.001319  1.052575  0.002
H  H11  1  0.08119630  0.79439321  0.24299363  1  0.074977  0.000247  0.945989  0.0  0.090609  0.00026  1.011451  0.0  0.089652  0.000238  1.013443  0.0  0.108855  0.091059  0.00031  1.010131  0.0
H  H12  1  0.91912815  0.20634300  0.75668301  1  0.075534  6.1e-05  0.945192  0.0  0.091134  -5.9e-05  1.010925  0.0  0.090159  -6.4e-05  1.012913  0.0  0.10918  0.091653  -0.000234  1.009548  0.0
H  H13  1  0.92230498  0.85182823  0.40991517  1  0.071224  -0.000712  0.93905  -0.001  0.08501  -0.000676  1.002417  -0.001  0.083966  -0.000458  1.003755  -0.001  0.10796  0.085309  -0.000753  1.001974  -0.001
H  H14  1  0.07808335  0.14860288  0.58987392  1  0.071115  -0.000628  0.9394  -0.001  0.08515  -0.000521  1.002825  -0.001  0.084017  -0.000349  1.004259  -0.001  0.108314  0.085681  -0.000716  1.002174  -0.001
H  H15  1  0.92591159  0.61476847  0.23862170  1  0.296508  0.000232  0.91438  0.001  0.288489  -0.000509  0.973869  0.0  0.295003  -0.000184  0.970318  0.0  0.292288  0.284344  -0.000685  0.976053  0.0
H  H16  1  0.07531071  0.38527411  0.76127806  1  0.296626  0.000891  0.914736  0.001  0.28839  -0.000303  0.974586  0.0  0.294889  -8.3e-05  0.971147  0.0  0.292248  0.283998  -0.000435  0.977161  0.0
H  H17  1  0.73372094  0.68299527  0.36750797  1  0.282934  0.000281  0.941166  0.001  0.271422  -0.000587  1.008908  0.0  0.277064  -0.000294  1.006719  0.001  0.28471  0.267704  -0.000995  1.010328  0.0
H  H18  1  0.26761438  0.31652052  0.63265390  1  0.283687  0.001533  0.941922  0.001  0.272051  0.000307  1.009383  0.0  0.277698  0.000439  1.007109  0.001  0.284797  0.268453  0.000345  1.010706  0.0
C  C19  1  0.67947483  0.07904787  0.27265885  1  0.083527  0.003319  3.651539  0.004  0.046774  -0.001164  3.898761  0.0  0.053533  0.000393  3.919927  0.001  0.047008  0.042072  -0.00332  3.887527  -0.002
C  C20  1  0.32030206  0.92096553  0.72740621  1  0.08398  -0.008658  3.649642  -0.009  0.047017  -0.00156  3.897599  -0.003  0.053773  -0.002471  3.918753  -0.004  0.047255  0.042393  -0.000839  3.886137  -0.002
C  C21  1  0.79951562  0.94634301  0.21068361  1  0.036889  -0.012725  3.696153  -0.013  0.066385  -0.007474  3.923833  -0.009  0.061046  -0.006273  3.947027  -0.007  0.001057  0.069491  -0.00836  3.907972  -0.009
C  C22  1  0.20055093  0.05382903  0.78927191  1  0.037103  0.00331  3.694201  0.003  0.066197  0.001205  3.922947  0.001  0.060812  0.002118  3.94611  0.002  0.001417  0.069346  0.000414  3.907066  0.0
C  C23  1  0.79769315  0.94174812  0.06122274  1  -0.042778  0.003441  3.664349  0.003  -0.067058  -0.000253  3.901897  0.0  -0.063245  0.000928  3.918998  0.001  -0.06422  -0.068931  0.000336  3.889545  0.001
C  C24  1  0.20230498  0.05845237  0.93874767  1  -0.042737  -0.008366  3.66353  -0.007  -0.066954  -0.003094  3.901264  -0.003  -0.06319  -0.003512  3.918589  -0.003  -0.063822  -0.068615  -0.002827  3.888414  -0.002
C  C25  1  0.67747625  0.06822432  0.98033972  1  -0.109568  -0.006479  3.751382  -0.006  -0.116773  -0.003269  3.998056  -0.003  -0.123969  -0.003077  4.020013  -0.003  -0.081796  -0.112363  -0.003534  3.98383  -0.003
C  C26  1  0.32222427  0.93187291  0.01974459  1  -0.108584  0.009911  3.751213  0.009  -0.116369  0.004143  3.997958  0.004  -0.123655  0.004128  4.019932  0.004  -0.081577  -0.111811  0.003262  3.983457  0.003
C  C27  1  0.56311989  0.19709499  0.04950261  1  0.115483  0.003211  3.693971  0.004  0.084366  -0.001  3.945664  0.0  0.092307  0.000766  3.966246  0.002  0.038923  0.079437  -0.001415  3.932539  0.0
C  C28  1  0.43640871  0.80288671  0.95068935  1  0.115016  -0.009013  3.693674  -0.009  0.083931  -0.001925  3.946136  -0.003  0.091997  -0.002838  3.966593  -0.004  0.038567  0.078864  -0.001025  3.93315  -0.002
C  C29  1  0.93002570  0.81546963  0.30334863  1  0.034552  0.000987  3.659362  0.003  -0.021762  -0.001179  3.909232  0.001  -0.015278  -0.000457  3.923564  0.001  -0.067496  -0.025674  -0.00186  3.900007  0.0
C  C30  1  0.07039283  0.18489046  0.69646643  1  0.034307  0.001336  3.656292  0.003  -0.023093  -0.000399  3.908151  0.001  -0.016652  6.6e-05  3.922622  0.002  -0.068431  -0.027018  -0.000798  3.898684  0.001
N  N31  1  0.30939824  0.56487140  0.40955359  1  -0.524065  -0.057607  2.802882  -0.068  -0.552177  -0.034581  3.162049  -0.044  -0.593615  -0.022768  3.170925  -0.032  -0.324132  -0.528734  -0.040759  3.157437  -0.048
N  N32  1  0.69061890  0.43504738  0.58995369  1  -0.526067  0.055988  2.801604  0.059  -0.552267  0.033694  3.157851  0.038  -0.592868  0.024099  3.166311  0.029  -0.324033  -0.53019  0.037475  3.154199  0.041
N  N33  1  0.37394766  0.67078311  0.40739686  1  0.402314  0.025784  4.188918  0.036  0.450892  0.002872  4.486255  0.009  0.471061  0.005417  4.520345  0.011  0.091057  0.438495  -0.00028  4.463882  0.006
N  N34  1  0.62618648  0.32908932  0.59225378  1  0.402377  -0.020557  4.194528  -0.031  0.451524  -0.001373  4.488798  -0.007  0.471549  -0.003719  4.522073  -0.009  0.090153  0.43937  0.001049  4.467641  -0.004
N  N35  1  0.43332207  0.77562664  0.40766650  1  -0.382011  -0.112862  2.411824  -0.12  -0.395722  -0.05664  2.655354  -0.063  -0.406772  -0.047958  2.664274  -0.056  -0.185119  -0.388524  -0.062599  2.64931  -0.067
N  N36  1  0.56682933  0.22418345  0.59195899  1  -0.388607  0.113904  2.415346  0.113  -0.400473  0.05556  2.657311  0.059  -0.410417  0.049711  2.665358  0.055  -0.189027  -0.394953  0.057827  2.652428  0.06
N  N37  1  0.17113461  0.35385345  0.34703254  1  -0.552604  -0.092863  2.943033  -0.109  -0.579357  -0.067597  3.327732  -0.085  -0.627797  -0.053023  3.336714  -0.072  -0.35756  -0.55293  -0.074755  3.325029  -0.089
N  N38  1  0.82794932  0.64603019  0.65282474  1  -0.559841  -0.012444  2.939069  -0.017  -0.583607  0.001519  3.322245  0.0  -0.633179  0.003945  3.331962  0.002  -0.358163  -0.555023  -0.000485  3.317818  -0.002
N  N39  1  0.12408969  0.25182036  0.31365021  1  0.385191  0.033068  4.136034  0.045  0.433608  0.003921  4.431398  0.012  0.454143  0.010759  4.461964  0.02  0.090705  0.420878  -0.002343  4.411399  0.005
N  N40  1  0.87506057  0.74778527  0.68694195  1  0.391057  0.007367  4.135825  0.01  0.438479  0.000796  4.427851  0.001  0.459207  0.000912  4.459484  0.001  0.093696  0.425473  9.9e-05  4.405522  0.0
N  N41  1  0.07784146  0.15432903  0.28217978  1  -0.296131  -0.137524  2.343561  -0.146  -0.302982  -0.083823  2.566283  -0.093  -0.307225  -0.074065  2.57616  -0.087  -0.14201  -0.299986  -0.090938  2.559367  -0.097
N  N42  1  0.92172410  0.84483168  0.71858384  1  -0.299431  -0.025654  2.350203  -0.028  -0.302845  -0.004787  2.569603  -0.006  -0.308407  -0.002725  2.580418  -0.004  -0.139164  -0.296996  -0.006406  2.560701  -0.007
N  N43  1  0.65460807  0.48690864  0.19021277  1  -0.4971  -0.080934  2.66248  -0.095  -0.527926  -0.042708  2.997536  -0.054  -0.568452  -0.027329  3.011405  -0.039  -0.317266  -0.504934  -0.051463  2.98892  -0.062
N  N44  1  0.34482290  0.51303279  0.80959560  1  -0.49692  0.085885  2.66215  0.094  -0.52905  0.044418  2.997986  0.054  -0.569388  0.029724  3.011506  0.039  -0.318147  -0.506315  0.052017  2.990001  0.06
N  N45  1  0.76488922  0.44243552  0.07899878  1  0.365649  0.031524  4.21613  0.043  0.413097  0.003439  4.528318  0.01  0.43113  0.006447  4.566234  0.013  0.077406  0.40191  0.000184  4.504456  0.007
N  N46  1  0.23490048  0.55748320  0.92095970  1  0.366483  -0.028618  4.215684  -0.043  0.414396  -0.002788  4.528175  -0.01  0.432514  -0.005622  4.565616  -0.013  0.077879  0.403029  0.000281  4.504903  -0.007
N  N47  1  0.87238265  0.40434285  0.96958951  1  -0.355476  -0.130704  2.445548  -0.138  -0.378396  -0.066404  2.706542  -0.073  -0.392463  -0.057802  2.720415  -0.067  -0.179541  -0.370605  -0.071943  2.698349  -0.076
N  N48  1  0.12781151  0.59567102  0.03048686  1  -0.354794  0.14011  2.445937  0.138  -0.378752  0.069744  2.707439  0.073  -0.392265  0.062058  2.720798  0.067  -0.179708  -0.371367  0.073651  2.699673  0.075
N  N49  1  0.56464777  0.20193673  0.19344370  1  -0.310584  -0.066925  3.402781  -0.079  -0.246709  -0.058525  3.691639  -0.074  -0.278098  -0.052323  3.716635  -0.07  -0.356215  -0.229427  -0.060371  3.67748  -0.073
N  N50  1  0.43486066  0.79799432  0.80675820  1  -0.308974  0.071186  3.401619  0.079  -0.246697  0.061876  3.692059  0.075  -0.278335  0.056641  3.716989  0.072  -0.356314  -0.229318  0.061135  3.678237  0.072
N  N51  1  0.88205193  0.66355182  0.33537673  1  -0.592834  -0.089108  3.17753  -0.102  -0.568767  -0.062694  3.437856  -0.077  -0.602013  -0.051797  3.443325  -0.067  -0.636652  -0.548321  -0.066356  3.43522  -0.078
N  N52  1  0.11913758  0.33647666  0.66453490  1  -0.59183  -0.085841  3.176109  -0.098  -0.567723  -0.060154  3.437387  -0.074  -0.601323  -0.049742  3.442934  -0.065  -0.63619  -0.547135  -0.063785  3.4348  -0.075
