# generated using pymatgen
data_Sm2H22C18S9N6O17
_symmetry_space_group_name_H-M   'P 1'
_cell_length_a   9.66015259
_cell_length_b   13.11972467
_cell_length_c   14.97583245
_cell_angle_alpha   66.06607971
_cell_angle_beta   82.91887092
_cell_angle_gamma   80.63638197
_symmetry_Int_Tables_number   1
_chemical_formula_structural   Sm2H22C18S9N6O17
_chemical_formula_sum   'Sm4 H44 C36 S18 N12 O34'
_cell_volume   1708.24219345
_cell_formula_units_Z   2
loop_
 _symmetry_equiv_pos_site_id
 _symmetry_equiv_pos_as_xyz
  1  'x, y, z'
loop_
 _atom_site_type_symbol
 _atom_site_label
 _atom_site_symmetry_multiplicity
 _atom_site_fract_x
 _atom_site_fract_y
 _atom_site_fract_z
 _atom_site_occupancy
 _atom_site_hle17_bader_spin_density
 _atom_site_hle17_ddec_charge
 _atom_site_hle17_ddec_spin_density
 _atom_site_hle17_ddec_sum_bond_order
 _atom_site_hle17_magmom
 _atom_site_hse06_10hf_bader_spin_density
 _atom_site_hse06_10hf_ddec_charge
 _atom_site_hse06_10hf_ddec_spin_density
 _atom_site_hse06_10hf_ddec_sum_bond_order
 _atom_site_hse06_10hf_magmom
 _atom_site_hse06_bader_spin_density
 _atom_site_hse06_ddec_charge
 _atom_site_hse06_ddec_spin_density
 _atom_site_hse06_ddec_sum_bond_order
 _atom_site_hse06_magmom
 _atom_site_pbe_bader_spin_density
 _atom_site_pbe_cm5_charge
 _atom_site_pbe_ddec_charge
 _atom_site_pbe_ddec_spin_density
 _atom_site_pbe_ddec_sum_bond_order
 _atom_site_pbe_magmom
Sm  Sm0  1  0.28958307  0.04398618  0.94676546  1  0  2.317814  0  1.587147  0  0  2.223283  0  1.928844  0  0  2.268155  0  1.887722  0  0  1.489084  2.12517  0  2.080096  0
Sm  Sm1  1  0.71041429  0.95601509  0.05323379  1  0  2.317848  0  1.587194  0  0  2.223331  0  1.928905  0  0  2.2682  0  1.887781  0  0  1.489112  2.125249  0  2.080109  0
Sm  Sm2  1  0.16951464  0.54894002  0.04031765  1  0  2.34045  0  1.583125  0  0  2.250372  0  1.925663  0  0  2.290105  0  1.885024  0  0  1.499307  2.158109  0  2.07169  0
Sm  Sm3  1  0.83048403  0.45105957  0.95968210  1  0  2.340432  0  1.583172  0  0  2.250331  0  1.925708  0  0  2.290063  0  1.885068  0  0  1.499291  2.158077  0  2.071718  0
H  H4  1  0.33271751  0.35462468  0.19715528  1  0  0.396006  0  0.929415  0  0  0.356061  0  1.009243  0  0  0.366528  0  0.994421  0  0  0.288856  0.348579  0  1.019602  0
H  H5  1  0.66728127  0.64537405  0.80284277  1  0  0.396016  0  0.929392  0  0  0.356077  0  1.009216  0  0  0.366545  0  0.994392  0  0  0.28885  0.348595  0  1.019576  0
H  H6  1  0.43890778  0.40965286  0.10270920  1  0  0.434818  0  0.870677  0  0  0.405199  0  0.932573  0  0  0.416045  0  0.916907  0  0  0.296641  0.397629  0  0.943262  0
H  H7  1  0.56109063  0.59034841  0.89729063  1  0  0.43486  0  0.870616  0  0  0.40525  0  0.932501  0  0  0.416092  0  0.916843  0  0  0.296649  0.39768  0  0.943191  0
H  H8  1  0.08904997  0.98256199  0.75238395  1  0  0.134959  0  0.946777  0  0  0.139749  0  1.019828  0  0  0.142512  0  1.018639  0  0  0.107358  0.137806  0  1.020763  0
H  H9  1  0.91094952  0.01743258  0.24761955  1  0  0.135031  0  0.946712  0  0  0.139767  0  1.019862  0  0  0.142533  0  1.018675  0  0  0.107367  0.137824  0  1.020801  0
H  H10  1  0.98087571  0.10035984  0.76567960  1  0  0.14438  0  0.922973  0  0  0.155604  0  0.983913  0  0  0.157754  0  0.98358  0  0  0.115987  0.154042  0  0.984382  0
H  H11  1  0.01912441  0.89963724  0.23432094  1  0  0.144411  0  0.92299  0  0  0.155614  0  0.983927  0  0  0.157766  0  0.983596  0  0  0.115973  0.154052  0  0.984397  0
H  H12  1  0.25004167  0.72172124  0.10357378  1  0  0.456114  0  0.812657  0  0  0.431013  0  0.871247  0  0  0.440724  0  0.856888  0  0  0.320779  0.423913  0  0.881557  0
H  H13  1  0.74995763  0.27828087  0.89642433  1  0  0.456127  0  0.812635  0  0  0.431027  0  0.871226  0  0  0.440738  0  0.856868  0  0  0.320797  0.423927  0  0.881536  0
H  H14  1  0.33123144  0.74657174  0.00259784  1  0  0.45211  0  0.841157  0  0  0.421823  0  0.901768  0  0  0.432759  0  0.885954  0  0  0.308792  0.413971  0  0.91292  0
H  H15  1  0.66876813  0.25342869  0.99740086  1  0  0.45211  0  0.841164  0  0  0.421823  0  0.90178  0  0  0.43276  0  0.885963  0  0  0.308784  0.413969  0  0.912936  0
H  H16  1  0.05850911  0.58202249  0.22708745  1  0  0.449429  0  0.849604  0  0  0.416377  0  0.916444  0  0  0.428377  0  0.898836  0  0  0.292238  0.407885  0  0.928717  0
H  H17  1  0.94149135  0.41797877  0.77290954  1  0  0.449367  0  0.849699  0  0  0.416335  0  0.916513  0  0  0.428335  0  0.898904  0  0  0.292211  0.407842  0  0.928788  0
H  H18  1  0.16359386  0.46646885  0.27047891  1  0  0.410837  0  0.898177  0  0  0.371791  0  0.975869  0  0  0.382719  0  0.959964  0  0  0.289914  0.363893  0  0.987113  0
H  H19  1  0.83640466  0.53353157  0.72951988  1  0  0.410821  0  0.898203  0  0  0.371771  0  0.975902  0  0  0.3827  0  0.959997  0  0  0.289901  0.363873  0  0.987146  0
H  H20  1  0.87991570  0.63966506  0.08417371  1  0  0.448663  0  0.837453  0  0  0.421111  0  0.895728  0  0  0.430773  0  0.881287  0  0  0.318815  0.414185  0  0.905801  0
H  H21  1  0.12008491  0.36033537  0.91582490  1  0  0.448715  0  0.837396  0  0  0.421167  0  0.89566  0  0  0.430827  0  0.88122  0  0  0.318846  0.414239  0  0.905734  0
H  H22  1  0.94215769  0.75570017  0.02375793  1  0  0.456802  0  0.82998  0  0  0.42718  0  0.890311  0  0  0.437777  0  0.874658  0  0  0.31463  0.419715  0  0.901046  0
H  H23  1  0.05783968  0.24430111  0.97624266  1  0  0.456836  0  0.829936  0  0  0.427198  0  0.890304  0  0  0.4378  0  0.874642  0  0  0.314615  0.419733  0  0.901039  0
H  H24  1  0.44887219  0.18737241  0.00663629  1  0  0.439385  0  0.85924  0  0  0.409722  0  0.919823  0  0  0.420261  0  0.904431  0  0  0.304479  0.402086  0  0.930774  0
H  H25  1  0.55112621  0.81262886  0.99336221  1  0  0.439334  0  0.859305  0  0  0.409668  0  0.919896  0  0  0.420207  0  0.904504  0  0  0.304447  0.40203  0  0.930848  0
H  H26  1  0.32904993  0.28360614  0.95131535  1  0  0.44089  0  0.846214  0  0  0.416989  0  0.897107  0  0  0.426224  0  0.883522  0  0  0.307322  0.409701  0  0.907851  0
H  H27  1  0.67094860  0.71639429  0.04868345  1  0  0.440828  0  0.846288  0  0  0.416922  0  0.897192  0  0  0.426156  0  0.883609  0  0  0.307282  0.409636  0  0.907932  0
H  H28  1  0.97184653  0.34889179  0.28883938  1  0  0.142101  0  0.92682  0  0  0.148442  0  0.994277  0  0  0.151573  0  0.99255  0  0  0.111099  0.146339  0  0.995599  0
H  H29  1  0.02815303  0.65110864  0.71115865  1  0  0.142075  0  0.926885  0  0  0.148419  0  0.994344  0  0  0.151551  0  0.992618  0  0  0.111095  0.146319  0  0.995669  0
H  H30  1  0.06995054  0.22799238  0.27511237  1  0  0.132617  0  0.949912  0  0  0.135634  0  1.024881  0  0  0.138434  0  1.024023  0  0  0.104629  0.133367  0  1.026214  0
H  H31  1  0.93004693  0.77200803  0.72488451  1  0  0.13257  0  0.949928  0  0  0.1356  0  1.024887  0  0  0.138399  0  1.024029  0  0  0.1046  0.133334  0  1.026221  0
H  H32  1  0.20913757  0.15279749  0.66516334  1  0  0.139582  0  0.943867  0  0  0.150775  0  1.007729  0  0  0.153425  0  1.005943  0  0  0.106214  0.14896  0  1.009138  0
H  H33  1  0.79086212  0.84720208  0.33483432  1  0  0.139567  0  0.943938  0  0  0.150752  0  1.007802  0  0  0.153401  0  1.006022  0  0  0.10621  0.148937  0  1.009213  0
H  H34  1  0.32859443  0.25247039  0.64452551  1  0  0.132124  0  0.961581  0  0  0.13686  0  1.037511  0  0  0.139305  0  1.036586  0  0  0.102793  0.135087  0  1.038583  0
H  H35  1  0.67140513  0.74753003  0.35547186  1  0  0.132123  0  0.961562  0  0  0.136855  0  1.037478  0  0  0.139302  0  1.036558  0  0  0.102787  0.135081  0  1.038546  0
H  H36  1  0.41582590  0.20232603  0.18513535  1  0  0.146683  0  0.926572  0  0  0.16101  0  0.979934  0  0  0.16419  0  0.977895  0  0  0.120596  0.158336  0  0.982323  0
H  H37  1  0.58418449  0.79767866  0.81486424  1  0  0.146671  0  0.926721  0  0  0.161079  0  0.979966  0  0  0.164258  0  0.977929  0  0  0.120649  0.158406  0  0.982357  0
H  H38  1  0.58124947  0.24038904  0.19340584  1  0  0.150184  0  0.923081  0  0  0.159523  0  0.985615  0  0  0.162993  0  0.98369  0  0  0.116328  0.156957  0  0.987541  0
H  H39  1  0.41876579  0.75960472  0.80659595  1  0  0.150241  0  0.922967  0  0  0.159576  0  0.985519  0  0  0.163049  0  0.983587  0  0  0.116364  0.157013  0  0.987449  0
H  H40  1  0.51899400  0.74771131  0.23845252  1  0  0.124398  0  0.959233  0  0  0.12905  0  1.035238  0  0  0.132026  0  1.033667  0  0  0.106723  0.127075  0  1.035987  0
H  H41  1  0.48100389  0.25228659  0.76154724  1  0  0.12437  0  0.959242  0  0  0.129014  0  1.035256  0  0  0.131991  0  1.033682  0  0  0.106702  0.127038  0  1.036006  0
H  H42  1  0.44134234  0.84892011  0.28670094  1  0  0.143191  0  0.923334  0  0  0.149915  0  0.991227  0  0  0.152405  0  0.990396  0  0  0.109996  0.148243  0  0.991877  0
H  H43  1  0.55865634  0.15107948  0.71329948  1  0  0.143156  0  0.923329  0  0  0.149862  0  0.991253  0  0  0.152354  0  0.990418  0  0  0.109981  0.148189  0  0.991901  0
H  H44  1  0.53645936  0.45921438  0.79472899  1  0  0.14275  0  0.921416  0  0  0.152516  0  0.984316  0  0  0.155994  0  0.981781  0  0  0.114321  0.150289  0  0.985826  0
H  H45  1  0.46354144  0.54078526  0.20527591  1  0  0.142785  0  0.921334  0  0  0.15253  0  0.984236  0  0  0.156012  0  0.981697  0  0  0.114337  0.150302  0  0.985747  0
H  H46  1  0.45260472  0.59916289  0.73989014  1  0  0.13806  0  0.939219  0  0  0.143896  0  1.010148  0  0  0.146152  0  1.010044  0  0  0.109951  0.142301  0  1.010364  0
H  H47  1  0.54739607  0.40083674  0.26011343  1  0  0.138045  0  0.939218  0  0  0.143871  0  1.01014  0  0  0.146125  0  1.010037  0  0  0.10995  0.142276  0  1.010356  0
C  C48  1  0.99453647  0.95197664  0.89732624  1  0  0.811488  0  3.762261  0  0  0.768326  0  4.054285  0  0  0.803365  0  4.041733  0  0  0.251774  0.744335  0  4.057903  0
C  C49  1  0.00546638  0.04802297  0.10267449  1  0  0.811034  0  3.762807  0  0  0.767931  0  4.054743  0  0  0.802972  0  4.042199  0  0  0.251595  0.74395  0  4.058343  0
C  C50  1  0.99086124  0.00898830  0.78680809  1  0  -0.310436  0  3.590857  0  0  -0.342865  0  3.838796  0  0  -0.347299  0  3.843414  0  0  -0.141007  -0.340199  0  3.836785  0
C  C51  1  0.00913771  0.99100962  0.21319357  1  0  -0.310464  0  3.590976  0  0  -0.34283  0  3.838772  0  0  -0.347284  0  3.84342  0  0  -0.140935  -0.340167  0  3.836759  0
C  C52  1  0.87698507  0.05416877  0.61800230  1  0  0.069366  0  3.800772  0  0  0.068348  0  4.109688  0  0  0.078603  0  4.123983  0  0  0.109305  0.061344  0  4.100119  0
C  C53  1  0.12301257  0.94583083  0.38199887  1  0  0.069445  0  3.800773  0  0  0.068428  0  4.109675  0  0  0.078682  0  4.123966  0  0  0.109341  0.061423  0  4.100106  0
C  C54  1  0.87070499  0.14771871  0.44411048  1  0  0.081572  0  3.798517  0  0  0.082357  0  4.102308  0  0  0.09275  0  4.11627  0  0  0.109035  0.075423  0  4.092629  0
C  C55  1  0.12929343  0.85228257  0.55589068  1  0  0.081586  0  3.798583  0  0  0.082376  0  4.102366  0  0  0.092764  0  4.116335  0  0  0.109062  0.075446  0  4.092683  0
C  C56  1  0.96889482  0.28251656  0.26254646  1  0  -0.301839  0  3.599154  0  0  -0.331883  0  3.846739  0  0  -0.336869  0  3.85137  0  0  -0.144823  -0.329275  0  3.845513  0
C  C57  1  0.03110371  0.71748387  0.73745233  1  0  -0.3017  0  3.59903  0  0  -0.331743  0  3.846614  0  0  -0.336735  0  3.851256  0  0  -0.144753  -0.329135  0  3.845377  0
C  C58  1  0.94289285  0.33297511  0.15494512  1  0  0.75662  0  3.818515  0  0  0.715993  0  4.11061  0  0  0.749792  0  4.100242  0  0  0.219113  0.693426  0  4.110318  0
C  C59  1  0.05710566  0.66702530  0.84505234  1  0  0.756596  0  3.818576  0  0  0.715948  0  4.110731  0  0  0.749749  0  4.100359  0  0  0.21908  0.693382  0  4.110438  0
C  C60  1  0.14328343  0.26485823  0.73908197  1  0  0.757053  0  3.849718  0  0  0.711981  0  4.149349  0  0  0.745425  0  4.140451  0  0  0.219538  0.688837  0  4.153506  0
C  C61  1  0.85671862  0.73513967  0.26091610  1  0  0.757043  0  3.849893  0  0  0.71196  0  4.149505  0  0  0.745409  0  4.140615  0  0  0.219564  0.688817  0  4.153656  0
C  C62  1  0.21693531  0.24019998  0.65278545  1  0  -0.329308  0  3.609432  0  0  -0.359764  0  3.85593  0  0  -0.364555  0  3.860864  0  0  -0.154722  -0.356776  0  3.853155  0
C  C63  1  0.78306424  0.75980042  0.34721059  1  0  -0.329307  0  3.609526  0  0  -0.35972  0  3.855959  0  0  -0.364527  0  3.860927  0  0  -0.154706  -0.356745  0  3.853223  0
C  C64  1  0.23645578  0.28855835  0.46092870  1  0  0.115395  0  3.752757  0  0  0.103113  0  4.068719  0  0  0.117093  0  4.078931  0  0  0.131206  0.094184  0  4.062061  0
C  C65  1  0.76354365  0.71144292  0.53906971  1  0  0.115424  0  3.752612  0  0  0.103081  0  4.068668  0  0  0.117059  0  4.07888  0  0  0.1312  0.094154  0  4.062009  0
C  C66  1  0.38915368  0.18878767  0.37614356  1  0  0.066216  0  3.813084  0  0  0.052255  0  4.133291  0  0  0.063242  0  4.14701  0  0  0.110158  0.045613  0  4.122988  0
C  C67  1  0.61084708  0.81121192  0.62385602  1  0  0.066156  0  3.813084  0  0  0.052241  0  4.133234  0  0  0.063228  0  4.146952  0  0  0.110182  0.0456  0  4.122929  0
C  C68  1  0.52073354  0.16925500  0.21302532  1  0  -0.306469  0  3.609498  0  0  -0.334264  0  3.854903  0  0  -0.339148  0  3.858977  0  0  -0.145804  -0.331836  0  3.853776  0
C  C69  1  0.47927988  0.83074381  0.78697614  1  0  -0.306477  0  3.609359  0  0  -0.334401  0  3.854857  0  0  -0.339283  0  3.858931  0  0  -0.145912  -0.331991  0  3.853761  0
C  C70  1  0.59268930  0.09341785  0.16370206  1  0  0.736226  0  3.830849  0  0  0.685201  0  4.133298  0  0  0.718838  0  4.12433  0  0  0.214078  0.663357  0  4.132794  0
C  C71  1  0.40731459  0.90658176  0.83629791  1  0  0.736133  0  3.83089  0  0  0.685164  0  4.133264  0  0  0.718798  0  4.124299  0  0  0.214104  0.663323  0  4.132753  0
C  C72  1  0.37397543  0.87897649  0.14586741  1  0  0.724485  0  3.888954  0  0  0.676461  0  4.197893  0  0  0.71018  0  4.187953  0  0  0.208975  0.654594  0  4.195291  0
C  C73  1  0.62602011  0.12102310  0.85413327  1  0  0.724441  0  3.889109  0  0  0.676392  0  4.198078  0  0  0.71011  0  4.188134  0  0  0.20894  0.654516  0  4.195485  0
C  C74  1  0.42065169  0.80018040  0.24610225  1  0  -0.319393  0  3.640363  0  0  -0.34723  0  3.888927  0  0  -0.352178  0  3.893741  0  0  -0.146914  -0.343922  0  3.885729  0
C  C75  1  0.57934673  0.19982089  0.75389891  1  0  -0.319276  0  3.64042  0  0  -0.347123  0  3.889086  0  0  -0.352067  0  3.893896  0  0  -0.146857  -0.343809  0  3.885885  0
C  C76  1  0.33773357  0.65727686  0.42769300  1  0  0.068423  0  3.810821  0  0  0.065029  0  4.122462  0  0  0.075132  0  4.137338  0  0  0.108985  0.058654  0  4.112102  0
C  C77  1  0.66226513  0.34272276  0.57231007  1  0  0.068357  0  3.810842  0  0  0.065017  0  4.122411  0  0  0.075121  0  4.137286  0  0  0.108959  0.05864  0  4.112057  0
C  C78  1  0.35433654  0.55707837  0.59959665  1  0  0.064864  0  3.815507  0  0  0.062277  0  4.131543  0  0  0.071603  0  4.146275  0  0  0.10888  0.055896  0  4.121715  0
C  C79  1  0.64566424  0.44292124  0.40040492  1  0  0.064915  0  3.815348  0  0  0.062313  0  4.131411  0  0  0.071639  0  4.146145  0  0  0.108944  0.055934  0  4.12158  0
C  C80  1  0.43399823  0.51206242  0.78452160  1  0  -0.306327  0  3.591  0  0  -0.335883  0  3.840758  0  0  -0.340493  0  3.844947  0  0  -0.144773  -0.333446  0  3.83905  0
C  C81  1  0.56600454  0.48793808  0.21548415  1  0  -0.306401  0  3.591191  0  0  -0.335873  0  3.840839  0  0  -0.340479  0  3.84501  0  0  -0.144862  -0.333438  0  3.839131  0
C  C82  1  0.36191809  0.50237028  0.88330682  1  0  0.716887  0  3.837458  0  0  0.667444  0  4.140157  0  0  0.700253  0  4.132423  0  0  0.214984  0.645899  0  4.13941  0
C  C83  1  0.63808138  0.49763102  0.11669491  1  0  0.716881  0  3.837512  0  0  0.667436  0  4.140176  0  0  0.700244  0  4.132446  0  0  0.215015  0.645893  0  4.139426  0
S  S84  1  0.84270630  0.97812154  0.74265527  1  0  0.081278  0  2.438129  0  0  0.079204  0  2.780777  0  0  0.076407  0  2.779576  0  0  0.045843  0.08068  0  2.781539  0
S  S85  1  0.15729251  0.02187722  0.25734543  1  0  0.081295  0  2.438081  0  0  0.079208  0  2.780712  0  0  0.076414  0  2.779519  0  0  0.045838  0.080686  0  2.781473  0
S  S86  1  0.74849799  0.08033491  0.53639124  1  0  0.055663  0  2.569444  0  0  0.047139  0  2.921676  0  0  0.048018  0  2.922069  0  0  0.074324  0.046126  0  2.921533  0
S  S87  1  0.25149936  0.91966635  0.46360802  1  0  0.055616  0  2.569444  0  0  0.047083  0  2.921683  0  0  0.047966  0  2.922078  0  0  0.074313  0.046069  0  2.92154  0
S  S88  1  0.82539202  0.20062490  0.32362249  1  0  0.063169  0  2.511984  0  0  0.054395  0  2.872621  0  0  0.050684  0  2.873486  0  0  0.030943  0.056354  0  2.872389  0
S  S89  1  0.17460652  0.79937553  0.67637696  1  0  0.063137  0  2.51199  0  0  0.054368  0  2.87262  0  0  0.050661  0  2.873484  0  0  0.030944  0.056325  0  2.872388  0
S  S90  1  0.13325929  0.33534092  0.54219631  1  0  0.112618  0  2.530886  0  0  0.098366  0  2.892467  0  0  0.094163  0  2.890103  0  0  0.055536  0.100999  0  2.894023  0
S  S91  1  0.86674131  0.66465950  0.45780097  1  0  0.11263  0  2.530823  0  0  0.098377  0  2.892422  0  0  0.094178  0  2.890069  0  0  0.055553  0.101015  0  2.893978  0
S  S92  1  0.34831851  0.16269058  0.49820908  1  0  0.133168  0  2.607151  0  0  0.124117  0  2.973581  0  0  0.12525  0  2.970691  0  0  0.123423  0.121157  0  2.976362  0
S  S93  1  0.65168211  0.83730985  0.50178954  1  0  0.133166  0  2.607114  0  0  0.12412  0  2.973563  0  0  0.125252  0  2.970672  0  0  0.123415  0.121161  0  2.976347  0
S  S94  1  0.50555532  0.09229482  0.34371039  1  0  0.064756  0  2.569831  0  0  0.053135  0  2.945841  0  0  0.049901  0  2.943717  0  0  0.033847  0.055987  0  2.946401  0
S  S95  1  0.49444937  0.90770650  0.65629157  1  0  0.064816  0  2.569824  0  0  0.053185  0  2.945855  0  0  0.049956  0  2.943732  0  0  0.033852  0.056043  0  2.946421  0
S  S96  1  0.28228639  0.71412782  0.30940098  1  0  0.100654  0  2.450231  0  0  0.093291  0  2.79214  0  0  0.091331  0  2.790184  0  0  0.043871  0.093365  0  2.794836  0
S  S97  1  0.71771023  0.28587180  0.69060293  1  0  0.100637  0  2.450299  0  0  0.093267  0  2.792187  0  0  0.091311  0  2.790229  0  0  0.04385  0.09334  0  2.794884  0
S  S98  1  0.22184597  0.58441923  0.52138364  1  0  0.103107  0  2.564708  0  0  0.103498  0  2.897967  0  0  0.105551  0  2.897617  0  0  0.103889  0.101187  0  2.898848  0
S  S99  1  0.77815273  0.41558038  0.47861943  1  0  0.103146  0  2.56468  0  0  0.103516  0  2.897937  0  0  0.105569  0  2.897585  0  0  0.103913  0.101204  0  2.898816  0
S  S100  1  0.31941375  0.47023155  0.72146051  1  0  0.087193  0  2.445676  0  0  0.084792  0  2.792701  0  0  0.083144  0  2.790342  0  0  0.043734  0.08541  0  2.795045  0
S  S101  1  0.68058715  0.52976721  0.27854068  1  0  0.087241  0  2.445868  0  0  0.084805  0  2.792889  0  0  0.08315  0  2.790528  0  0  0.04375  0.085419  0  2.795229  0
N  N102  1  0.99403140  0.09632399  0.57566884  1  0  -0.224077  0  3.062312  0  0  -0.206836  0  3.367223  0  0  -0.216813  0  3.385489  0  0  -0.222833  -0.200259  0  3.354562  0
N  N103  1  0.00596623  0.90367560  0.42433166  1  0  -0.224173  0  3.062426  0  0  -0.20692  0  3.367326  0  0  -0.216904  0  3.385607  0  0  -0.222879  -0.200343  0  3.354666  0
N  N104  1  0.99075559  0.14967351  0.47582714  1  0  -0.218324  0  3.046636  0  0  -0.202684  0  3.347595  0  0  -0.212925  0  3.366741  0  0  -0.224962  -0.195374  0  3.334118  0
N  N105  1  0.00924282  0.85032776  0.52417269  1  0  -0.218272  0  3.046657  0  0  -0.202642  0  3.347633  0  0  -0.212883  0  3.366781  0  0  -0.224949  -0.195334  0  3.334155  0
N  N106  1  0.23657963  0.34146069  0.36487101  1  0  -0.221305  0  3.068265  0  0  -0.187412  0  3.338017  0  0  -0.198326  0  3.350107  0  0  -0.209637  -0.180194  0  3.329718  0
N  N107  1  0.76342007  0.65853889  0.63512732  1  0  -0.221314  0  3.068175  0  0  -0.187389  0  3.337939  0  0  -0.198302  0  3.35003  0  0  -0.20965  -0.180171  0  3.329642  0
N  N108  1  0.32258237  0.28400359  0.31682761  1  0  -0.229957  0  3.152683  0  0  -0.18104  0  3.411725  0  0  -0.19124  0  3.42674  0  0  -0.216339  -0.173901  0  3.401375  0
N  N109  1  0.67741852  0.71599515  0.68317159  1  0  -0.229925  0  3.152634  0  0  -0.181033  0  3.411676  0  0  -0.191231  0  3.426689  0  0  -0.216328  -0.173893  0  3.401324  0
N  N110  1  0.45893617  0.66170380  0.45731660  1  0  -0.230373  0  3.04018  0  0  -0.20923  0  3.340098  0  0  -0.220206  0  3.358621  0  0  -0.224636  -0.20143  0  3.326661  0
N  N111  1  0.54106474  0.33829498  0.54268592  1  0  -0.230349  0  3.04009  0  0  -0.209197  0  3.339935  0  0  -0.220175  0  3.358459  0  0  -0.224619  -0.201398  0  3.3265  0
N  N112  1  0.46834120  0.60385343  0.55658522  1  0  -0.206438  0  3.011493  0  0  -0.194068  0  3.310777  0  0  -0.203144  0  3.328906  0  0  -0.225344  -0.187379  0  3.297829  0
N  N113  1  0.53165750  0.39614618  0.44341719  1  0  -0.206471  0  3.011367  0  0  -0.194102  0  3.310662  0  0  -0.203178  0  3.328791  0  0  -0.22538  -0.187414  0  3.297714  0
O  O114  1  0.10136479  0.95861172  0.93390634  1  0  -0.718151  0  2.036769  0  0  -0.682216  0  2.294406  0  0  -0.706804  0  2.282618  0  0  -0.3916  -0.65526  0  2.304195  0
O  O115  1  0.89862852  0.04138868  0.06609223  1  0  -0.718005  0  2.036686  0  0  -0.682107  0  2.294313  0  0  -0.706707  0  2.282553  0  0  -0.39161  -0.655157  0  2.304096  0
O  O116  1  0.33801113  0.39910737  0.12362603  1  0  -0.945827  0  1.918304  0  0  -0.906071  0  2.128426  0  0  -0.924421  0  2.095823  0  0  -0.68197  -0.883654  0  2.155002  0
O  O117  1  0.66198818  0.60088799  0.87637185  1  0  -0.945862  0  1.918246  0  0  -0.906121  0  2.128346  0  0  -0.924468  0  2.09575  0  0  -0.681966  -0.883702  0  2.15492  0
O  O118  1  0.89075333  0.90045930  0.94732592  1  0  -0.768019  0  2.018796  0  0  -0.715524  0  2.261829  0  0  -0.739973  0  2.246853  0  0  -0.389404  -0.690214  0  2.273891  0
O  O119  1  0.10924251  0.09953862  0.05267734  1  0  -0.767793  0  2.019025  0  0  -0.715315  0  2.262033  0  0  -0.73976  0  2.247054  0  0  -0.389297  -0.690003  0  2.274088  0
O  O120  1  0.28945318  0.68511399  0.05880811  1  0  -0.914488  0  1.817502  0  0  -0.875865  0  2.009772  0  0  -0.893535  0  1.976945  0  0  -0.649762  -0.854363  0  2.037979  0
O  O121  1  0.71054522  0.31488728  0.94119038  1  0  -0.914492  0  1.817521  0  0  -0.875871  0  2.009774  0  0  -0.89354  0  1.976946  0  0  -0.649767  -0.854368  0  2.037984  0
O  O122  1  0.00793026  0.41508396  0.09601586  1  0  -0.83367  0  2.1074  0  0  -0.792391  0  2.370253  0  0  -0.817022  0  2.357462  0  0  -0.438565  -0.759688  0  2.378641  0
O  O123  1  0.99206619  0.58491646  0.90398377  1  0  -0.833671  0  2.107295  0  0  -0.792366  0  2.370144  0  0  -0.816997  0  2.357352  0  0  -0.438562  -0.759665  0  2.378534  0
O  O124  1  0.12786795  0.52670060  0.20864165  1  0  -0.952225  0  1.886121  0  0  -0.902842  0  2.089757  0  0  -0.922784  0  2.056035  0  0  -0.668136  -0.880298  0  2.116569  0
O  O125  1  0.87213175  0.47329898  0.79135668  1  0  -0.952155  0  1.886187  0  0  -0.90278  0  2.089786  0  0  -0.922724  0  2.056067  0  0  -0.668107  -0.880237  0  2.116599  0
O  O126  1  0.85360670  0.29578216  0.12460667  1  0  -0.667934  0  1.953584  0  0  -0.622008  0  2.182507  0  0  -0.645342  0  2.174706  0  0  -0.359249  -0.599985  0  2.188776  0
O  O127  1  0.14639209  0.70421657  0.87539137  1  0  -0.667903  0  1.953743  0  0  -0.622027  0  2.182736  0  0  -0.645362  0  2.174936  0  0  -0.359242  -0.600003  0  2.189003  0
O  O128  1  0.96699131  0.67353376  0.05748735  1  0  -0.915345  0  1.883889  0  0  -0.874197  0  2.074508  0  0  -0.89091  0  2.042021  0  0  -0.649632  -0.854215  0  2.101219  0
O  O129  1  0.03300800  0.32646834  0.94251076  1  0  -0.915441  0  1.883826  0  0  -0.874278  0  2.074417  0  0  -0.890988  0  2.04193  0  0  -0.64964  -0.854296  0  2.10113  0
O  O130  1  0.37022471  0.20588740  0.96354683  1  0  -0.902219  0  1.834496  0  0  -0.861086  0  2.015993  0  0  -0.878252  0  1.985063  0  0  -0.635922  -0.841287  0  2.043025  0
O  O131  1  0.62977473  0.79411387  0.03645159  1  0  -0.902099  0  1.834538  0  0  -0.860959  0  2.016038  0  0  -0.878129  0  1.98511  0  0  -0.63587  -0.841169  0  2.043076  0
O  O132  1  0.19059681  0.20325365  0.82308412  1  0  -0.786377  0  2.032139  0  0  -0.743705  0  2.300642  0  0  -0.769399  0  2.28769  0  0  -0.441507  -0.715413  0  2.312314  0
O  O133  1  0.80939948  0.79674759  0.17691189  1  0  -0.786433  0  2.031907  0  0  -0.743795  0  2.300482  0  0  -0.769475  0  2.287481  0  0  -0.441605  -0.715506  0  2.312155  0
O  O134  1  0.04362944  0.34324767  0.72091322  1  0  -0.614805  0  1.967717  0  0  -0.560706  0  2.192715  0  0  -0.585522  0  2.183071  0  0  -0.304574  -0.543705  0  2.199953  0
O  O135  1  0.95636735  0.65675693  0.27908153  1  0  -0.614801  0  1.968041  0  0  -0.560673  0  2.193041  0  0  -0.585489  0  2.183394  0  0  -0.304573  -0.543671  0  2.200278  0
O  O136  1  0.64314195  0.99384793  0.21081163  1  0  -0.642533  0  1.972425  0  0  -0.597851  0  2.212074  0  0  -0.621769  0  2.204598  0  0  -0.33086  -0.575192  0  2.216074  0
O  O137  1  0.35686246  0.00614830  0.78918752  1  0  -0.642495  0  1.972649  0  0  -0.59781  0  2.212216  0  0  -0.621752  0  2.204795  0  0  -0.330865  -0.57515  0  2.21621  0
O  O138  1  0.59813000  0.13661687  0.06894903  1  0  -0.73912  0  2.087024  0  0  -0.670563  0  2.307572  0  0  -0.697374  0  2.297284  0  0  -0.359189  -0.646428  0  2.31479  0
O  O139  1  0.40187141  0.86338526  0.93105090  1  0  -0.739096  0  2.087019  0  0  -0.670551  0  2.307543  0  0  -0.69736  0  2.297255  0  0  -0.359202  -0.646414  0  2.314756  0
O  O140  1  0.45058770  0.95640859  0.09293146  1  0  -0.812707  0  2.114915  0  0  -0.770288  0  2.379241  0  0  -0.796111  0  2.369877  0  0  -0.420566  -0.737979  0  2.383736  0
O  O141  1  0.54940981  0.04359185  0.90707008  1  0  -0.812733  0  2.115082  0  0  -0.770289  0  2.379402  0  0  -0.796112  0  2.37004  0  0  -0.420561  -0.737979  0  2.383902  0
O  O142  1  0.26358742  0.86911225  0.11427356  1  0  -0.669158  0  1.991638  0  0  -0.620008  0  2.224963  0  0  -0.643154  0  2.215246  0  0  -0.329779  -0.598689  0  2.231212  0
O  O143  1  0.73641229  0.13088735  0.88572677  1  0  -0.669136  0  1.991629  0  0  -0.619975  0  2.224968  0  0  -0.643136  0  2.215289  0  0  -0.32977  -0.598658  0  2.23122  0
O  O144  1  0.39633161  0.56155938  0.92479253  1  0  -0.681504  0  2.015383  0  0  -0.622937  0  2.241675  0  0  -0.648974  0  2.234083  0  0  -0.337706  -0.599224  0  2.246173  0
O  O145  1  0.60366813  0.43844024  0.07521046  1  0  -0.68145  0  2.015431  0  0  -0.622889  0  2.241701  0  0  -0.648929  0  2.234113  0  0  -0.337688  -0.599175  0  2.246196  0
O  O146  1  0.26557494  0.43855999  0.92266490  1  0  -0.716263  0  2.017727  0  0  -0.659234  0  2.245895  0  0  -0.683411  0  2.235493  0  0  -0.328072  -0.636922  0  2.251794  0
O  O147  1  0.73442307  0.56144382  0.07733539  1  0  -0.716301  0  2.017739  0  0  -0.65924  0  2.245866  0  0  -0.683404  0  2.235436  0  0  -0.328067  -0.636925  0  2.251758  0
