# generated using pymatgen
data_Cd3H20C12(N5O4)2
_symmetry_space_group_name_H-M   'P 1'
_cell_length_a   7.12248156
_cell_length_b   12.56666409
_cell_length_c   13.79393974
_cell_angle_alpha   107.07921404
_cell_angle_beta   89.98138247
_cell_angle_gamma   106.47373620
_symmetry_Int_Tables_number   1
_chemical_formula_structural   Cd3H20C12(N5O4)2
_chemical_formula_sum   'Cd6 H40 C24 N20 O16'
_cell_volume   1127.09870446
_cell_formula_units_Z   2
loop_
 _symmetry_equiv_pos_site_id
 _symmetry_equiv_pos_as_xyz
  1  'x, y, z'
loop_
 _atom_site_type_symbol
 _atom_site_label
 _atom_site_symmetry_multiplicity
 _atom_site_fract_x
 _atom_site_fract_y
 _atom_site_fract_z
 _atom_site_occupancy
 _atom_site_hle17_bader_spin_density
 _atom_site_hle17_ddec_charge
 _atom_site_hle17_ddec_spin_density
 _atom_site_hle17_ddec_sum_bond_order
 _atom_site_hle17_magmom
 _atom_site_hse06_10hf_bader_spin_density
 _atom_site_hse06_10hf_ddec_charge
 _atom_site_hse06_10hf_ddec_spin_density
 _atom_site_hse06_10hf_ddec_sum_bond_order
 _atom_site_hse06_10hf_magmom
 _atom_site_hse06_bader_spin_density
 _atom_site_hse06_ddec_charge
 _atom_site_hse06_ddec_spin_density
 _atom_site_hse06_ddec_sum_bond_order
 _atom_site_hse06_magmom
 _atom_site_pbe_bader_spin_density
 _atom_site_pbe_cm5_charge
 _atom_site_pbe_ddec_charge
 _atom_site_pbe_ddec_spin_density
 _atom_site_pbe_ddec_sum_bond_order
 _atom_site_pbe_magmom
Cd  Cd0  1  0.28815145  0.00008538  0.75005379  1  0  1.148986  0  1.634976  0  0  0.960202  0  2.071138  0  0  1.017253  0  2.020056  0  0  0.796082  0.919677  0  2.106064  0
Cd  Cd1  1  0.71184255  0.99991534  0.24994803  1  0  1.149029  0  1.63496  0  0  0.960203  0  2.071132  0  0  1.017255  0  2.020051  0  0  0.796072  0.919677  0  2.106054  0
Cd  Cd2  1  0.91357655  0.83332660  0.95563563  1  0  1.119912  0  1.705923  0  0  0.924024  0  2.163244  0  0  0.979203  0  2.112683  0  0  0.788781  0.884773  0  2.197989  0
Cd  Cd3  1  0.08029735  0.16666103  0.54430956  1  0  1.120369  0  1.705772  0  0  0.924664  0  2.16266  0  0  0.979824  0  2.112075  0  0  0.788853  0.885394  0  2.197383  0
Cd  Cd4  1  0.08641895  0.16667150  0.04436260  1  0  1.119927  0  1.705937  0  0  0.924007  0  2.163263  0  0  0.979182  0  2.112711  0  0  0.788792  0.884762  0  2.197977  0
Cd  Cd5  1  0.91970139  0.83333794  0.45569180  1  0  1.120367  0  1.705771  0  0  0.924671  0  2.162669  0  0  0.979831  0  2.112084  0  0  0.788836  0.885401  0  2.197401  0
H  H6  1  0.66866326  0.71856998  0.67926740  1  0  0.149507  0  0.959528  0  0  0.163714  0  1.029481  0  0  0.166379  0  1.028888  0  0  0.103645  0.161801  0  1.029956  0
H  H7  1  0.94934262  0.28103280  0.82091443  1  0  0.149138  0  0.960564  0  0  0.163456  0  1.03041  0  0  0.166107  0  1.029848  0  0  0.103482  0.161535  0  1.030873  0
H  H8  1  0.33133600  0.28142724  0.32072987  1  0  0.149485  0  0.959555  0  0  0.163718  0  1.029475  0  0  0.166382  0  1.028884  0  0  0.10363  0.161805  0  1.029943  0
H  H9  1  0.05065452  0.71897140  0.17908686  1  0  0.149155  0  0.960544  0  0  0.163477  0  1.030377  0  0  0.166128  0  1.029816  0  0  0.103481  0.161557  0  1.03084  0
H  H10  1  0.79916296  0.63364515  0.71713563  1  0  0.141141  0  0.956644  0  0  0.159397  0  1.014536  0  0  0.161607  0  1.014178  0  0  0.099121  0.157738  0  1.014915  0
H  H11  1  0.16455130  0.36623832  0.78299250  1  0  0.140449  0  0.958255  0  0  0.158936  0  1.015903  0  0  0.161143  0  1.015576  0  0  0.098964  0.157286  0  1.01625  0
H  H12  1  0.20083491  0.36635207  0.28286237  1  0  0.141165  0  0.956636  0  0  0.159414  0  1.01454  0  0  0.16163  0  1.014173  0  0  0.099122  0.157749  0  1.014922  0
H  H13  1  0.83544865  0.63376588  0.21700952  1  0  0.14039  0  0.958188  0  0  0.158854  0  1.015875  0  0  0.161061  0  1.015549  0  0  0.098917  0.157209  0  1.016217  0
H  H14  1  0.79144935  0.63721636  0.58785387  1  0  0.141586  0  0.957689  0  0  0.159567  0  1.015614  0  0  0.161938  0  1.014979  0  0  0.098243  0.157825  0  1.016132  0
H  H15  1  0.15338619  0.36265776  0.91227482  1  0  0.141594  0  0.95868  0  0  0.15953  0  1.016684  0  0  0.161901  0  1.016062  0  0  0.0982  0.157786  0  1.017199  0
H  H16  1  0.20854948  0.36277999  0.41214389  1  0  0.141636  0  0.957692  0  0  0.159619  0  1.015612  0  0  0.16199  0  1.014978  0  0  0.098249  0.157874  0  1.016132  0
H  H17  1  0.84661245  0.63734382  0.08772505  1  0  0.141582  0  0.958701  0  0  0.159518  0  1.016701  0  0  0.16189  0  1.016079  0  0  0.098178  0.157776  0  1.017215  0
H  H18  1  0.49227813  0.73500475  0.84833164  1  0  0.334358  0  0.915823  0  0  0.319753  0  0.977345  0  0  0.326987  0  0.970929  0  0  0.299105  0.314624  0  0.981921  0
H  H19  1  0.75749536  0.26501105  0.65171979  1  0  0.333575  0  0.916784  0  0  0.318599  0  0.978822  0  0  0.325857  0  0.972405  0  0  0.298705  0.31347  0  0.98335  0
H  H20  1  0.50772191  0.26499684  0.15166896  1  0  0.334338  0  0.915829  0  0  0.319734  0  0.97735  0  0  0.326967  0  0.970934  0  0  0.299094  0.314605  0  0.98193  0
H  H21  1  0.24250338  0.73498792  0.34828157  1  0  0.33361  0  0.916694  0  0  0.318632  0  0.978747  0  0  0.325891  0  0.972329  0  0  0.298714  0.313504  0  0.983273  0
H  H22  1  0.30705994  0.78516115  0.81643835  1  0  0.326759  0  0.909986  0  0  0.312048  0  0.973987  0  0  0.318419  0  0.96907  0  0  0.299557  0.307537  0  0.977509  0
H  H23  1  0.52193823  0.21491229  0.68349422  1  0  0.326023  0  0.910729  0  0  0.311785  0  0.974336  0  0  0.318144  0  0.969375  0  0  0.299556  0.307291  0  0.977859  0
H  H24  1  0.69293599  0.21483783  0.18356228  1  0  0.326789  0  0.909968  0  0  0.312072  0  0.973972  0  0  0.318443  0  0.969054  0  0  0.299577  0.307556  0  0.977507  0
H  H25  1  0.47806279  0.78508843  0.31650687  1  0  0.326043  0  0.910716  0  0  0.311801  0  0.974331  0  0  0.318161  0  0.969365  0  0  0.29955  0.307305  0  0.977854  0
H  H26  1  0.80933335  0.42135737  0.84874401  1  0  0.136203  0  0.961533  0  0  0.155935  0  1.020383  0  0  0.158208  0  1.019742  0  0  0.095725  0.15429  0  1.020888  0
H  H27  1  0.38795240  0.57847527  0.65154014  1  0  0.136716  0  0.961164  0  0  0.156243  0  1.020264  0  0  0.158526  0  1.019613  0  0  0.096173  0.154584  0  1.020789  0
H  H28  1  0.19066679  0.57864159  0.15125227  1  0  0.136212  0  0.961536  0  0  0.155938  0  1.020384  0  0  0.158211  0  1.019745  0  0  0.09573  0.154293  0  1.020887  0
H  H29  1  0.61205617  0.42152370  0.34846122  1  0  0.136794  0  0.961028  0  0  0.156283  0  1.020178  0  0  0.158567  0  1.019525  0  0  0.09619  0.154625  0  1.020702  0
H  H30  1  0.59430939  0.43497107  0.91215586  1  0  0.138797  0  0.92956  0  0  0.161433  0  0.983032  0  0  0.163585  0  0.982714  0  0  0.101156  0.159912  0  0.983267  0
H  H31  1  0.15943598  0.56515692  0.58825935  1  0  0.138532  0  0.929797  0  0  0.16139  0  0.983016  0  0  0.163548  0  0.982692  0  0  0.100876  0.159851  0  0.983255  0
H  H32  1  0.40569172  0.56502702  0.08784164  1  0  0.13881  0  0.929534  0  0  0.161439  0  0.983021  0  0  0.16359  0  0.982702  0  0  0.101155  0.159915  0  0.983258  0
H  H33  1  0.84057487  0.43484379  0.41174175  1  0  0.138558  0  0.929848  0  0  0.161459  0  0.983001  0  0  0.163619  0  0.982673  0  0  0.100914  0.159921  0  0.983241  0
H  H34  1  0.60326307  0.43526781  0.78407799  1  0  0.142285  0  0.929661  0  0  0.164829  0  0.983073  0  0  0.167314  0  0.982284  0  0  0.101841  0.163029  0  0.983711  0
H  H35  1  0.16796112  0.56456612  0.71624606  1  0  0.14247  0  0.929018  0  0  0.164797  0  0.982728  0  0  0.167299  0  0.981914  0  0  0.101815  0.162974  0  0.983384  0
H  H36  1  0.39673654  0.56473289  0.21591948  1  0  0.14233  0  0.929569  0  0  0.164869  0  0.982986  0  0  0.167353  0  0.982196  0  0  0.101854  0.163069  0  0.983627  0
H  H37  1  0.83204788  0.43543373  0.28375408  1  0  0.142515  0  0.928967  0  0  0.164865  0  0.982644  0  0  0.167353  0  0.981847  0  0  0.101822  0.163041  0  0.983304  0
H  H38  1  0.76671923  0.27143008  0.99292073  1  0  0.335178  0  0.897445  0  0  0.323257  0  0.954766  0  0  0.330094  0  0.94863  0  0  0.304017  0.318379  0  0.959212  0
H  H39  1  0.49472661  0.72856205  0.50693566  1  0  0.336623  0  0.895365  0  0  0.323817  0  0.95378  0  0  0.330681  0  0.947609  0  0  0.3043  0.31892  0  0.958256  0
H  H40  1  0.23327801  0.72857151  0.00707987  1  0  0.335155  0  0.897438  0  0  0.323235  0  0.954769  0  0  0.330071  0  0.948634  0  0  0.304009  0.318357  0  0.95921  0
H  H41  1  0.50527301  0.27143866  0.49306544  1  0  0.336641  0  0.895323  0  0  0.323837  0  0.953739  0  0  0.330701  0  0.947567  0  0  0.30429  0.318939  0  0.958207  0
H  H42  1  0.52959101  0.22430922  0.93872890  1  0  0.328973  0  0.902198  0  0  0.313935  0  0.967195  0  0  0.320374  0  0.96208  0  0  0.301243  0.309384  0  0.970823  0
H  H43  1  0.30468423  0.77577697  0.56103118  1  0  0.328999  0  0.90282  0  0  0.314244  0  0.967395  0  0  0.320661  0  0.962282  0  0  0.301404  0.309703  0  0.971006  0
H  H44  1  0.47040667  0.77569324  0.06127338  1  0  0.328976  0  0.902245  0  0  0.313947  0  0.967223  0  0  0.320387  0  0.96211  0  0  0.301275  0.309399  0  0.970847  0
H  H45  1  0.69531776  0.22422288  0.43896969  1  0  0.328985  0  0.902798  0  0  0.314229  0  0.967386  0  0  0.320646  0  0.962273  0  0  0.301401  0.309687  0  0.971001  0
C  C46  1  0.56307283  0.90975357  0.87378191  1  0  0.603024  0  3.86586  0  0  0.551797  0  4.150426  0  0  0.578108  0  4.158052  0  0  0.313717  0.534026  0  4.144857  0
C  C47  1  0.65327437  0.09026273  0.62623187  1  0  0.60502  0  3.866051  0  0  0.552629  0  4.151704  0  0  0.578984  0  4.159222  0  0  0.31407  0.534851  0  4.146182  0
C  C48  1  0.43692300  0.09024801  0.12621869  1  0  0.602939  0  3.865968  0  0  0.551664  0  4.150573  0  0  0.577971  0  4.158203  0  0  0.313652  0.533893  0  4.144998  0
C  C49  1  0.34672806  0.90973800  0.37377067  1  0  0.605074  0  3.866053  0  0  0.552683  0  4.151696  0  0  0.579039  0  4.159212  0  0  0.314052  0.534903  0  4.146177  0
C  C50  1  0.79973664  0.68783835  0.66792458  1  0  -0.465185  0  3.647696  0  0  -0.537256  0  3.876008  0  0  -0.545396  0  3.878879  0  0  -0.247575  -0.531471  0  3.87402  0
C  C51  1  0.11120410  0.31200066  0.83220852  1  0  -0.464043  0  3.65137  0  0  -0.536433  0  3.879866  0  0  -0.5446  0  3.882818  0  0  -0.247068  -0.530635  0  3.877847  0
C  C52  1  0.20026306  0.31215975  0.33207437  1  0  -0.465235  0  3.647718  0  0  -0.537349  0  3.876048  0  0  -0.545493  0  3.878912  0  0  -0.247584  -0.531564  0  3.874057  0
C  C53  1  0.88879682  0.68800266  0.16779037  1  0  -0.464008  0  3.651263  0  0  -0.536376  0  3.879773  0  0  -0.544543  0  3.882724  0  0  -0.246992  -0.530585  0  3.877759  0
C  C54  1  0.97623720  0.79340696  0.69616823  1  0  0.762949  0  3.799789  0  0  0.719586  0  4.084226  0  0  0.754537  0  4.077317  0  0  0.210113  0.695737  0  4.08807  0
C  C55  1  0.18266558  0.20663557  0.80395523  1  0  0.762456  0  3.802625  0  0  0.718978  0  4.08723  0  0  0.753958  0  4.080322  0  0  0.209481  0.695113  0  4.0911  0
C  C56  1  0.02376067  0.20659026  0.30382976  1  0  0.76293  0  3.800006  0  0  0.719592  0  4.084393  0  0  0.754543  0  4.077487  0  0  0.210105  0.695744  0  4.088237  0
C  C57  1  0.81732982  0.79336515  0.19604514  1  0  0.762618  0  3.80238  0  0  0.719139  0  4.086994  0  0  0.75412  0  4.080081  0  0  0.20953  0.695269  0  4.090877  0
C  C58  1  0.69250967  0.46308352  0.85710189  1  0  -0.444478  0  3.645819  0  0  -0.51859  0  3.869925  0  0  -0.525983  0  3.873248  0  0  -0.245076  -0.513363  0  3.867527  0
C  C59  1  0.22937350  0.53683903  0.64317788  1  0  -0.443897  0  3.645628  0  0  -0.517763  0  3.869699  0  0  -0.525235  0  3.873092  0  0  -0.244777  -0.512471  0  3.867297  0
C  C60  1  0.30748950  0.53691632  0.14289534  1  0  -0.444518  0  3.645682  0  0  -0.518613  0  3.869813  0  0  -0.526001  0  3.873129  0  0  -0.245075  -0.513393  0  3.867436  0
C  C61  1  0.77063778  0.46316256  0.35682272  1  0  -0.44408  0  3.645591  0  0  -0.517934  0  3.869721  0  0  -0.525394  0  3.873118  0  0  -0.244801  -0.51264  0  3.867322  0
C  C62  1  0.77411297  0.59413570  0.89249624  1  0  0.724748  0  3.885912  0  0  0.687224  0  4.17744  0  0  0.720137  0  4.17225  0  0  0.191655  0.664884  0  4.180101  0
C  C63  1  0.17972156  0.40579595  0.60754040  1  0  0.721321  0  3.889192  0  0  0.683339  0  4.181619  0  0  0.716246  0  4.176472  0  0  0.189562  0.660981  0  4.184275  0
C  C64  1  0.22588620  0.40586413  0.10750099  1  0  0.724745  0  3.885881  0  0  0.68721  0  4.177413  0  0  0.720122  0  4.172224  0  0  0.191636  0.664878  0  4.180064  0
C  C65  1  0.82028095  0.59420214  0.39245638  1  0  0.721418  0  3.888947  0  0  0.683317  0  4.181579  0  0  0.716223  0  4.176432  0  0  0.189552  0.660964  0  4.184228  0
C  C66  1  0.65776736  0.09713620  0.92458346  1  0  0.60225  0  3.867671  0  0  0.551672  0  4.151779  0  0  0.578044  0  4.159273  0  0  0.315575  0.533883  0  4.146281  0
C  C67  1  0.56030351  0.90287633  0.57530739  1  0  0.60491  0  3.865242  0  0  0.552502  0  4.151603  0  0  0.578854  0  4.15909  0  0  0.315018  0.53473  0  4.146098  0
C  C68  1  0.34222945  0.90286452  0.07541764  1  0  0.602356  0  3.86771  0  0  0.551726  0  4.151854  0  0  0.578097  0  4.159347  0  0  0.315634  0.533951  0  4.146341  0
C  C69  1  0.43969566  0.09712352  0.42469420  1  0  0.604918  0  3.865122  0  0  0.552544  0  4.151439  0  0  0.578897  0  4.158927  0  0  0.31506  0.53477  0  4.145934  0
N  N70  1  0.50817815  0.00382235  0.86961116  1  0  -0.635188  0  3.066553  0  0  -0.554643  0  3.345015  0  0  -0.583476  0  3.351447  0  0  -0.386347  -0.53488  0  3.340003  0
N  N71  1  0.50397025  0.99620725  0.63017182  1  0  -0.636901  0  3.068416  0  0  -0.554866  0  3.346873  0  0  -0.583779  0  3.353471  0  0  -0.38541  -0.535117  0  3.341853  0
N  N72  1  0.49181584  0.99617837  0.13038921  1  0  -0.635332  0  3.066783  0  0  -0.554661  0  3.345129  0  0  -0.583504  0  3.351592  0  0  -0.386337  -0.534902  0  3.34011  0
N  N73  1  0.49602892  0.00379260  0.36982905  1  0  -0.636882  0  3.068427  0  0  -0.554853  0  3.346877  0  0  -0.583761  0  3.35346  0  0  -0.385406  -0.53511  0  3.341867  0
N  N74  1  0.73715023  0.94180002  0.92691647  1  0  -0.432975  0  3.158376  0  0  -0.365609  0  3.452266  0  0  -0.388064  0  3.467156  0  0  -0.305713  -0.350331  0  3.441806  0
N  N75  1  0.79556305  0.05819722  0.57332728  1  0  -0.434689  0  3.159132  0  0  -0.367045  0  3.45338  0  0  -0.389515  0  3.468192  0  0  -0.306127  -0.351762  0  3.442974  0
N  N76  1  0.26284798  0.05820070  0.07308535  1  0  -0.432912  0  3.158317  0  0  -0.365531  0  3.452211  0  0  -0.387985  0  3.467103  0  0  -0.305695  -0.350252  0  3.441745  0
N  N77  1  0.20443612  0.94180262  0.42667358  1  0  -0.434739  0  3.15912  0  0  -0.367095  0  3.453374  0  0  -0.389565  0  3.468183  0  0  -0.306136  -0.35181  0  3.442966  0
N  N78  1  0.45426235  0.79725912  0.82589712  1  0  -0.718933  0  3.057497  0  0  -0.688234  0  3.297383  0  0  -0.707153  0  3.291637  0  0  -0.59539  -0.674999  0  3.301143  0
N  N79  1  0.65702111  0.20277275  0.67411008  1  0  -0.71826  0  3.057523  0  0  -0.687477  0  3.297704  0  0  -0.706427  0  3.291999  0  0  -0.595423  -0.674223  0  3.301408  0
N  N80  1  0.54573629  0.20274247  0.17410420  1  0  -0.718908  0  3.057576  0  0  -0.688201  0  3.297487  0  0  -0.707116  0  3.291741  0  0  -0.595387  -0.674957  0  3.301252  0
N  N81  1  0.34297991  0.79722797  0.32589102  1  0  -0.718373  0  3.057416  0  0  -0.687586  0  3.297593  0  0  -0.706536  0  3.291884  0  0  -0.595449  -0.674329  0  3.301299  0
N  N82  1  0.79847791  0.06381222  0.96015580  1  0  -0.433755  0  3.170562  0  0  -0.3664  0  3.465343  0  0  -0.388967  0  3.480198  0  0  -0.307862  -0.351064  0  3.454915  0
N  N83  1  0.73471650  0.93618125  0.53998397  1  0  -0.434332  0  3.167788  0  0  -0.36633  0  3.462931  0  0  -0.388907  0  3.477794  0  0  -0.307559  -0.350999  0  3.452497  0
N  N84  1  0.20151705  0.93618762  0.03984434  1  0  -0.433779  0  3.170466  0  0  -0.366425  0  3.465272  0  0  -0.388991  0  3.480125  0  0  -0.307865  -0.351093  0  3.454843  0
N  N85  1  0.26528408  0.06381860  0.46001907  1  0  -0.434325  0  3.167735  0  0  -0.366338  0  3.462863  0  0  -0.388917  0  3.477727  0  0  -0.307573  -0.351003  0  3.452417  0
N  N86  1  0.66362752  0.21033855  0.93813080  1  0  -0.710058  0  3.042867  0  0  -0.68023  0  3.280275  0  0  -0.698673  0  3.274523  0  0  -0.590767  -0.667325  0  3.284039  0
N  N87  1  0.45268681  0.78970504  0.56165073  1  0  -0.712472  0  3.041631  0  0  -0.681548  0  3.279924  0  0  -0.699967  0  3.274124  0  0  -0.591531  -0.66865  0  3.283721  0
N  N88  1  0.33636972  0.78966304  0.06187053  1  0  -0.710061  0  3.042937  0  0  -0.680236  0  3.280357  0  0  -0.698677  0  3.274605  0  0  -0.590832  -0.667336  0  3.284114  0
N  N89  1  0.54731615  0.21029393  0.43835063  1  0  -0.712481  0  3.041561  0  0  -0.681567  0  3.279827  0  0  -0.699987  0  3.274027  0  0  -0.591525  -0.668668  0  3.283626  0
O  O90  1  0.65304115  0.65454644  0.90480849  1  0  -0.684583  0  1.926797  0  0  -0.619095  0  2.156817  0  0  -0.647672  0  2.146749  0  0  -0.34889  -0.599071  0  2.163007  0
O  O91  1  0.99819222  0.34544126  0.59495296  1  0  -0.682589  0  1.929515  0  0  -0.616977  0  2.159785  0  0  -0.64549  0  2.149673  0  0  -0.347369  -0.596997  0  2.166002  0
O  O92  1  0.34695618  0.34545253  0.09519214  1  0  -0.684603  0  1.926767  0  0  -0.619097  0  2.156778  0  0  -0.647675  0  2.146712  0  0  -0.34887  -0.599076  0  2.162961  0
O  O93  1  0.00181572  0.65456206  0.40504520  1  0  -0.682606  0  1.929351  0  0  -0.616976  0  2.159704  0  0  -0.645491  0  2.149597  0  0  -0.347365  -0.596993  0  2.165909  0
O  O94  1  0.95985315  0.64231666  0.90940152  1  0  -0.67202  0  1.900473  0  0  -0.608588  0  2.124961  0  0  -0.636279  0  2.114331  0  0  -0.343313  -0.589213  0  2.131617  0
O  O95  1  0.31720962  0.35753562  0.59071148  1  0  -0.67144  0  1.899619  0  0  -0.607717  0  2.124285  0  0  -0.635441  0  2.113724  0  0  -0.343217  -0.588343  0  2.130937  0
O  O96  1  0.04014603  0.35768317  0.09059644  1  0  -0.672029  0  1.900506  0  0  -0.608594  0  2.124996  0  0  -0.636286  0  2.114367  0  0  -0.343331  -0.589224  0  2.131648  0
O  O97  1  0.68279517  0.64246422  0.40928793  1  0  -0.671456  0  1.899466  0  0  -0.607687  0  2.124186  0  0  -0.635413  0  2.113634  0  0  -0.343226  -0.588319  0  2.130843  0
O  O98  1  0.05007746  0.84076146  0.62882004  1  0  -0.678537  0  2.007878  0  0  -0.601198  0  2.2639  0  0  -0.632392  0  2.251083  0  0  -0.324065  -0.579257  0  2.271863  0
O  O99  1  0.20937713  0.15936725  0.87133256  1  0  -0.679133  0  2.007518  0  0  -0.601505  0  2.263369  0  0  -0.632759  0  2.250657  0  0  -0.324216  -0.579621  0  2.271427  0
O  O100  1  0.94992277  0.15923489  0.37117845  1  0  -0.678559  0  2.007996  0  0  -0.601231  0  2.264013  0  0  -0.632424  0  2.251193  0  0  -0.324086  -0.57929  0  2.271971  0
O  O101  1  0.79061188  0.84062911  0.12866593  1  0  -0.679172  0  2.007352  0  0  -0.601586  0  2.263271  0  0  -0.632838  0  2.250556  0  0  -0.324246  -0.579697  0  2.271329  0
O  O102  1  0.05249428  0.83879080  0.78863043  1  0  -0.686197  0  2.006225  0  0  -0.608124  0  2.260906  0  0  -0.639131  0  2.247922  0  0  -0.326246  -0.586354  0  2.269117  0
O  O103  1  0.21353251  0.16126221  0.71146961  1  0  -0.685166  0  2.006977  0  0  -0.60762  0  2.262326  0  0  -0.638576  0  2.249229  0  0  -0.326071  -0.585793  0  2.270366  0
O  O104  1  0.94749928  0.16120905  0.21137043  1  0  -0.686194  0  2.006339  0  0  -0.608097  0  2.260987  0  0  -0.639104  0  2.248004  0  0  -0.326235  -0.586327  0  2.269186  0
O  O105  1  0.78646656  0.83874025  0.28853122  1  0  -0.685257  0  2.006938  0  0  -0.607695  0  2.262279  0  0  -0.638656  0  2.24919  0  0  -0.326085  -0.585861  0  2.270313  0
