# generated using pymatgen
data_PH10Pb2C6NCl2O5
_symmetry_space_group_name_H-M   'P 1'
_cell_length_a   9.98269948
_cell_length_b   10.43687630
_cell_length_c   11.98510000
_cell_angle_alpha   90.00000000
_cell_angle_beta   98.05837343
_cell_angle_gamma   90.00000000
_symmetry_Int_Tables_number   1
_chemical_formula_structural   PH10Pb2C6NCl2O5
_chemical_formula_sum   'P4 H40 Pb8 C24 N4 Cl8 O20'
_cell_volume   1236.37597310
_cell_formula_units_Z   4
loop_
 _symmetry_equiv_pos_site_id
 _symmetry_equiv_pos_as_xyz
  1  'x, y, z'
loop_
 _atom_site_type_symbol
 _atom_site_label
 _atom_site_symmetry_multiplicity
 _atom_site_fract_x
 _atom_site_fract_y
 _atom_site_fract_z
 _atom_site_occupancy
 _atom_site_pbe_bader_charge
 _atom_site_pbe_bader_spin_density
 _atom_site_pbe_cm5_charge
 _atom_site_pbe_ddec_charge
 _atom_site_pbe_ddec_spin_density
 _atom_site_pbe_ddec_sum_bond_order
 _atom_site_pbe_magmom
P  P0  1  0.74924060  0.62691075  0.38176175  1  3.319217  0  0.334139  1.281489  0  5.412467  0
P  P1  1  0.24923797  0.87309074  0.38176086  1  3.319368  0  0.334138  1.281409  0  5.412439  0
P  P2  1  0.25076264  0.37309152  0.61823896  1  3.319294  0  0.334106  1.28142  0  5.412428  0
P  P3  1  0.75076527  0.12690770  0.61823568  1  3.319616  0  0.334154  1.281499  0  5.412357  0
H  H4  1  0.84728567  0.48098108  0.18548752  1  0.474103  0  0.293655  0.236717  0  0.965264  0
H  H5  1  0.34728608  0.01902102  0.18548615  1  0.474098  0  0.293674  0.236719  0  0.965259  0
H  H6  1  0.15271656  0.51901928  0.81451140  1  0.4737  0  0.293668  0.23668  0  0.965358  0
H  H7  1  0.65271110  0.98098030  0.81451135  1  0.474074  0  0.293628  0.236719  0  0.965232  0
H  H8  1  0.60492135  0.54297280  0.02741014  1  0.08328  0  0.110154  0.095042  0  0.976668  0
H  H9  1  0.10492175  0.95702964  0.02741044  1  0.083319  0  0.110085  0.095005  0  0.976648  0
H  H10  1  0.39507785  0.45702563  0.97259093  1  0.083348  0  0.110148  0.095028  0  0.97669  0
H  H11  1  0.89507441  0.04297550  0.97258861  1  0.080459  0  0.110107  0.09505  0  0.976633  0
H  H12  1  0.78067889  0.55075099  0.00892586  1  0.137493  0  0.108299  0.108064  0  1.006698  0
H  H13  1  0.28068030  0.94925145  0.00892377  1  0.137472  0  0.108278  0.108026  0  1.006739  0
H  H14  1  0.21931727  0.44924840  0.99107486  1  0.137441  0  0.108276  0.108043  0  1.006727  0
H  H15  1  0.71931586  0.05075178  0.99107277  1  0.137392  0  0.108272  0.108003  0  1.006754  0
H  H16  1  0.64082032  0.33924806  0.92948495  1  0.083507  0  0.090326  0.105332  0  1.018407  0
H  H17  1  0.14081971  0.16075404  0.92948430  1  0.083511  0  0.090344  0.105373  0  1.018374  0
H  H18  1  0.35917787  0.66075134  0.07051684  1  0.0835  0  0.090359  0.105359  0  1.018373  0
H  H19  1  0.85917544  0.83925111  0.07051714  1  0.083527  0  0.090359  0.105349  0  1.018378  0
H  H20  1  0.80233279  0.32082971  0.00943669  1  0.058883  0  0.088736  0.099029  0  1.002327  0
H  H21  1  0.30233219  0.17917238  0.00943604  1  0.058874  0  0.088752  0.099071  0  1.002336  0
H  H22  1  0.19766741  0.67916969  0.99056283  1  0.058884  0  0.088774  0.099109  0  1.002291  0
H  H23  1  0.69766398  0.82083180  0.99056218  1  0.058865  0  0.08874  0.099068  0  1.002246  0
H  H24  1  0.67132579  0.19104183  0.12433432  1  0.08419  0  0.095177  0.101306  0  1.012305  0
H  H25  1  0.17132822  0.30896026  0.12433569  1  0.084162  0  0.095188  0.101309  0  1.012253  0
H  H26  1  0.32867442  0.80895948  0.87566687  1  0.084208  0  0.095173  0.101302  0  1.0123  0
H  H27  1  0.82867300  0.69104297  0.87566562  1  0.084219  0  0.095194  0.101333  0  1.012286  0
H  H28  1  0.52503064  0.28405721  0.08810312  1  0.022466  0  0.092816  0.098197  0  0.992534  0
H  H29  1  0.02502902  0.21594488  0.08810151  1  0.022408  0  0.09282  0.098211  0  0.992478  0
H  H30  1  0.47497058  0.71594218  0.91189986  1  0.022445  0  0.092793  0.098167  0  0.99253  0
H  H31  1  0.97496816  0.78406122  0.91189932  1  0.022483  0  0.092805  0.098213  0  0.992511  0
H  H32  1  0.58339593  0.40986210  0.24594044  1  0.113698  0  0.109981  0.096412  0  1.024338  0
H  H33  1  0.08339026  0.09013616  0.24593836  1  0.113674  0  0.109977  0.09644  0  1.024297  0
H  H34  1  0.41660630  0.59013922  0.75405849  1  0.113702  0  0.109965  0.096385  0  1.024316  0
H  H35  1  0.91660590  0.90986323  0.75405986  1  0.113696  0  0.109971  0.096439  0  1.024308  0
H  H36  1  0.60257719  0.63457780  0.20554963  1  0.111491  0  0.110937  0.140837  0  1.018398  0
H  H37  1  0.10257860  0.86542465  0.20555088  1  0.111534  0  0.110952  0.140861  0  1.018384  0
H  H38  1  0.39742302  0.36541776  0.79445156  1  0.111472  0  0.110917  0.140834  0  1.018386  0
H  H39  1  0.89741959  0.13458241  0.79444757  1  0.111471  0  0.110934  0.14085  0  1.018452  0
H  H40  1  0.76844210  0.69197907  0.19215386  1  0.133094  0  0.118135  0.148292  0  1.002157  0
H  H41  1  0.26844149  0.80802050  0.19215237  1  0.133092  0  0.118147  0.148315  0  1.002148  0
H  H42  1  0.23155811  0.30802032  0.80784733  1  0.133079  0  0.118154  0.148301  0  1.002176  0
H  H43  1  0.73155366  0.19197794  0.80784155  1  0.13311  0  0.11813  0.148251  0  1.0022  0
Pb  Pb44  1  0.99752351  0.82457814  0.52414652  1  1.438098  0  0.62173  1.166237  0  1.952823  0
Pb  Pb45  1  0.49751885  0.67542144  0.52414205  1  1.438107  0  0.621713  1.166253  0  1.952788  0
Pb  Pb46  1  0.00248479  0.17542222  0.47585395  1  1.438153  0  0.621728  1.166238  0  1.952838  0
Pb  Pb47  1  0.50248237  0.32457508  0.47585759  1  1.438155  0  0.621669  1.166156  0  1.952921  0
Pb  Pb48  1  0.12527964  0.52515138  0.35733749  1  1.398402  0  0.558961  1.13911  0  2.060782  0
Pb  Pb49  1  0.62527823  0.97485011  0.35733541  1  1.398349  0  0.558949  1.139118  0  2.06079  0
Pb  Pb50  1  0.87472158  0.47484706  0.64266465  1  1.398484  0  0.558962  1.139113  0  2.060742  0
Pb  Pb51  1  0.37471895  0.02514833  0.64266126  1  1.398417  0  0.558957  1.139129  0  2.060777  0
C  C52  1  0.70385876  0.49555919  0.04494795  1  0.16543  0  -0.060638  -0.056871  0  3.748746  0
C  C53  1  0.20385815  0.00444386  0.04494730  1  0.165483  0  -0.060505  -0.056697  0  3.748726  0
C  C54  1  0.29614044  0.50444020  0.95505395  1  0.165448  0  -0.060577  -0.056787  0  3.748689  0
C  C55  1  0.79613700  0.99556033  0.95505163  1  0.16841  0  -0.060521  -0.056684  0  3.748636  0
C  C56  1  0.69877282  0.35465976  0.01308195  1  -0.045701  0  -0.168115  -0.17824  0  3.921516  0
C  C57  1  0.19877424  0.14534234  0.01308153  1  -0.045742  0  -0.168172  -0.178387  0  3.921692  0
C  C58  1  0.30122637  0.64533964  0.98691912  1  -0.045577  0  -0.168208  -0.178388  0  3.921585  0
C  C59  1  0.80122293  0.85466281  0.98691931  1  -0.045724  0  -0.168137  -0.178277  0  3.921338  0
C  C60  1  0.63559173  0.28956461  0.10798936  1  -0.030034  0  -0.157228  -0.177214  0  3.857438  0
C  C61  1  0.13559213  0.21043653  0.10798882  1  -0.029931  0  -0.15725  -0.177255  0  3.857277  0
C  C62  1  0.36440949  0.71043575  0.89201446  1  -0.03018  0  -0.157165  -0.177115  0  3.857295  0
C  C63  1  0.86440605  0.78956766  0.89201297  1  -0.030006  0  -0.157272  -0.177314  0  3.857396  0
C  C64  1  0.67392996  0.37599181  0.21259260  1  0.199293  0  0.007537  -0.040706  0  3.691939  0
C  C65  1  0.17392936  0.12400645  0.21259528  1  0.199215  0  0.007582  -0.040634  0  3.691827  0
C  C66  1  0.32607024  0.62400663  0.78740859  1  0.199481  0  0.007527  -0.040683  0  3.691898  0
C  C67  1  0.82606883  0.87599486  0.78740651  1  0.199216  0  0.007569  -0.040716  0  3.692076  0
C  C68  1  0.71120285  0.61548205  0.22693369  1  -0.242135  0  -0.074883  -0.370409  0  3.757493  0
C  C69  1  0.21120427  0.88452040  0.22693161  1  -0.242129  0  -0.074826  -0.370387  0  3.757482  0
C  C70  1  0.28879837  0.38451831  0.77306845  1  -0.242098  0  -0.074838  -0.370366  0  3.757532  0
C  C71  1  0.78879392  0.11547900  0.77306518  1  -0.242047  0  -0.074838  -0.370342  0  3.757582  0
C  C72  1  0.76537051  0.30741765  0.30608880  1  1.609109  0  0.217542  0.600627  0  4.18852  0
C  C73  1  0.26536180  0.19258636  0.30609304  1  1.609144  0  0.217492  0.600524  0  4.188608  0
C  C74  1  0.23463982  0.69258749  0.69391274  1  1.609215  0  0.217556  0.60066  0  4.188569  0
C  C75  1  0.73465055  0.80740346  0.69390707  1  1.60912  0  0.217512  0.600622  0  4.188615  0
N  N76  1  0.74179230  0.49298179  0.17137944  1  -1.010512  0  -0.339398  0.037219  0  3.541455  0
N  N77  1  0.24179371  0.00702030  0.17138069  1  -1.010527  0  -0.339469  0.037161  0  3.541531  0
N  N78  1  0.25820993  0.50701760  0.82862116  1  -1.010111  0  -0.339445  0.037215  0  3.541627  0
N  N79  1  0.75820548  0.99298005  0.82861872  1  -1.010481  0  -0.339433  0.037115  0  3.54162  0
Cl  Cl80  1  0.38478761  0.53926288  0.29305550  1  -0.686407  0  -0.250866  -0.555547  0  1.129065  0
Cl  Cl81  1  0.88478923  0.96073765  0.29305794  1  -0.686443  0  -0.250876  -0.555564  0  1.129083  0
Cl  Cl82  1  0.61521158  0.46072502  0.70694307  1  -0.686448  0  -0.250853  -0.555524  0  1.12903  0
Cl  Cl83  1  0.11521401  0.03927133  0.70694444  1  -0.686442  0  -0.250862  -0.555546  0  1.129069  0
Cl  Cl84  1  0.02962629  0.58050319  0.13948894  1  -0.68161  0  -0.284384  -0.538365  0  1.052745  0
Cl  Cl85  1  0.52962791  0.91950405  0.13948971  1  -0.681557  0  -0.284378  -0.538356  0  1.052782  0
Cl  Cl86  1  0.97037392  0.41949237  0.86051226  1  -0.68159  0  -0.284385  -0.538342  0  1.052709  0
Cl  Cl87  1  0.47036927  0.08048960  0.86051029  1  -0.681576  0  -0.28439  -0.538366  0  1.052762  0
O  O88  1  0.90392395  0.63898237  0.41461446  1  -1.436686  0  -0.343279  -0.781333  0  2.315442  0
O  O89  1  0.40392233  0.86101624  0.41461619  1  -1.436761  0  -0.343262  -0.781327  0  2.315437  0
O  O90  1  0.09608030  0.36101606  0.58538470  1  -1.436748  0  -0.343251  -0.781321  0  2.315518  0
O  O91  1  0.59607889  0.13897645  0.58537928  1  -1.436963  0  -0.343223  -0.781284  0  2.31536  0
O  O92  1  0.67283832  0.75132442  0.40427246  1  -1.442981  0  -0.341329  -0.747113  0  2.306841  0
O  O93  1  0.17283872  0.74867803  0.40427526  1  -1.443065  0  -0.341357  -0.74708  0  2.306871  0
O  O94  1  0.32716290  0.24867690  0.59572551  1  -1.442982  0  -0.341327  -0.747089  0  2.306824  0
O  O95  1  0.82715947  0.25132232  0.59572402  1  -1.443075  0  -0.341378  -0.747122  0  2.306868  0
O  O96  1  0.69168065  0.51269650  0.43952606  1  -1.471641  0  -0.351769  -0.825918  0  2.327644  0
O  O97  1  0.19167498  0.98730499  0.43952731  1  -1.471623  0  -0.351782  -0.825932  0  2.32756  0
O  O98  1  0.30832563  0.48730577  0.56047334  1  -1.471623  0  -0.351799  -0.825952  0  2.327552  0
O  O99  1  0.80833029  0.01269249  0.56047447  1  -1.471696  0  -0.351825  -0.826021  0  2.327608  0
O  O100  1  0.89164467  0.33127057  0.31982480  1  -1.178853  0  -0.292906  -0.57423  0  2.219945  0
O  O101  1  0.39164507  0.16873535  0.31982843  1  -1.178638  0  -0.292913  -0.574298  0  2.219801  0
O  O102  1  0.10835048  0.66872882  0.68017997  1  -1.178739  0  -0.292966  -0.574449  0  2.2196  0
O  O103  1  0.60835210  0.83126788  0.68017658  1  -1.178563  0  -0.292983  -0.574495  0  2.219278  0
O  O104  1  0.70727534  0.22563552  0.36085947  1  -1.205347  0  -0.293313  -0.607939  0  2.343923  0
O  O105  1  0.20727271  0.27436178  0.36086359  1  -1.205429  0  -0.29328  -0.60784  0  2.344197  0
O  O106  1  0.29272183  0.77436004  0.63914303  1  -1.205637  0  -0.293256  -0.607806  0  2.344412  0
O  O107  1  0.79272143  0.72563857  0.63914190  1  -1.205594  0  -0.293212  -0.607724  0  2.34478  0
