# generated using pymatgen
data_ZnH6C8(NCl)4
_symmetry_space_group_name_H-M   'P 1'
_cell_length_a   3.59979854
_cell_length_b   9.76030352
_cell_length_c   16.59274868
_cell_angle_alpha   90.00001116
_cell_angle_beta   94.28100005
_cell_angle_gamma   90.00005083
_symmetry_Int_Tables_number   1
_chemical_formula_structural   ZnH6C8(NCl)4
_chemical_formula_sum   'Zn2 H12 C16 N8 Cl8'
_cell_volume   581.36175053
_cell_formula_units_Z   2
loop_
 _symmetry_equiv_pos_site_id
 _symmetry_equiv_pos_as_xyz
  1  'x, y, z'
loop_
 _atom_site_type_symbol
 _atom_site_label
 _atom_site_symmetry_multiplicity
 _atom_site_fract_x
 _atom_site_fract_y
 _atom_site_fract_z
 _atom_site_occupancy
 _atom_site_hle17_bader_spin_density
 _atom_site_hle17_ddec_charge
 _atom_site_hle17_ddec_spin_density
 _atom_site_hle17_ddec_sum_bond_order
 _atom_site_hle17_magmom
 _atom_site_hse06_10hf_bader_charge
 _atom_site_hse06_10hf_bader_spin_density
 _atom_site_hse06_10hf_ddec_charge
 _atom_site_hse06_10hf_ddec_spin_density
 _atom_site_hse06_10hf_ddec_sum_bond_order
 _atom_site_hse06_10hf_magmom
 _atom_site_hse06_bader_spin_density
 _atom_site_hse06_ddec_charge
 _atom_site_hse06_ddec_spin_density
 _atom_site_hse06_ddec_sum_bond_order
 _atom_site_hse06_magmom
 _atom_site_pbe_bader_spin_density
 _atom_site_pbe_cm5_charge
 _atom_site_pbe_ddec_charge
 _atom_site_pbe_ddec_spin_density
 _atom_site_pbe_ddec_sum_bond_order
 _atom_site_pbe_magmom
Zn  Zn0  1  0.50000250  0.49999896  0.50000019  1  0  0.836194  0  2.017112  0  1.193352  0  0.684516  0  2.427428  0  0  0.726455  0  2.389642  0  0  0.510856  0.65628  0  2.451666  0
Zn  Zn1  1  0.00000000  0.00000102  0.00000000  1  0  0.836193  0  2.017106  0  1.193356  0  0.684514  0  2.427425  0  0  0.726451  0  2.38964  0  0  0.510852  0.656269  0  2.451682  0
H  H2  1  0.31652211  0.19215400  0.51046693  1  0  0.099819  0  0.98754  0  0.17499  0  0.099342  0  1.065937  0  0  0.103301  0  1.062468  0  0  0.097672  0.096383  0  1.068637  0
H  H3  1  0.18348096  0.69215592  0.98953197  1  0  0.099822  0  0.987552  0  0.17501  0  0.099339  0  1.06592  0  0  0.103298  0  1.062451  0  0  0.097671  0.096379  0  1.068613  0
H  H4  1  0.68348288  0.80784393  0.48953285  1  0  0.099798  0  0.987559  0  0.174997  0  0.099326  0  1.065945  0  0  0.103284  0  1.062476  0  0  0.097668  0.096368  0  1.068645  0
H  H5  1  0.81652124  0.30784507  0.01046656  1  0  0.099801  0  0.987544  0  0.174989  0  0.099317  0  1.06594  0  0  0.103276  0  1.062471  0  0  0.097659  0.096359  0  1.068636  0
H  H6  1  0.73052310  0.46721419  0.68684667  1  0  0.102074  0  0.976086  0  0.187821  0  0.098657  0  1.057828  0  0  0.102566  0  1.054083  0  0  0.108379  0.095648  0  1.060729  0
H  H7  1  0.76948152  0.96721609  0.81315266  1  0  0.102036  0  0.976092  0  0.187794  0  0.098621  0  1.057841  0  0  0.102529  0  1.054099  0  0  0.108358  0.09561  0  1.060739  0
H  H8  1  0.26948189  0.53278373  0.31315372  1  0  0.102055  0  0.976093  0  0.187795  0  0.098628  0  1.057846  0  0  0.102536  0  1.054103  0  0  0.108375  0.09562  0  1.060751  0
H  H9  1  0.23052068  0.03278491  0.18684648  1  0  0.102068  0  0.976077  0  0.187812  0  0.098642  0  1.057822  0  0  0.10255  0  1.054077  0  0  0.10838  0.095632  0  1.060723  0
H  H10  1  0.75646735  0.27585951  0.79067623  1  0  0.088567  0  0.960651  0  0.154229  0  0.088465  0  1.036266  0  0  0.0919  0  1.033828  0  0  0.103627  0.085869  0  1.038209  0
H  H11  1  0.74353403  0.77586136  0.70932423  1  0  0.088588  0  0.96064  0  0.154237  0  0.088464  0  1.036277  0  0  0.091899  0  1.033839  0  0  0.103621  0.085866  0  1.038216  0
H  H12  1  0.24353208  0.72413944  0.20932467  1  0  0.088576  0  0.960675  0  0.154244  0  0.08847  0  1.036292  0  0  0.091906  0  1.033854  0  0  0.103632  0.085872  0  1.038231  0
H  H13  1  0.25646818  0.22414066  0.29067612  1  0  0.088574  0  0.960661  0  0.154235  0  0.088467  0  1.036289  0  0  0.091902  0  1.03385  0  0  0.10363  0.085867  0  1.038232  0
C  C14  1  0.42411283  0.10835746  0.63226848  1  0  0.225424  0  3.82333  0  0.65674  0  0.222994  0  4.105367  0  0  0.229109  0  4.122922  0  0  0.137853  0.218185  0  4.094178  0
C  C15  1  0.07588447  0.60835829  0.86773153  1  0  0.225456  0  3.82328  0  0.656682  0  0.223005  0  4.105294  0  0  0.22912  0  4.12285  0  0  0.137837  0.218197  0  4.094107  0
C  C16  1  0.57588659  0.89164251  0.36773182  1  0  0.225378  0  3.823305  0  0.656727  0  0.222946  0  4.105345  0  0  0.229061  0  4.122901  0  0  0.137821  0.218133  0  4.094164  0
C  C17  1  0.92410938  0.39164271  0.13226808  1  0  0.22542  0  3.823279  0  0.656661  0  0.222984  0  4.105304  0  0  0.229098  0  4.122861  0  0  0.137832  0.218165  0  4.094128  0
C  C18  1  0.41384598  0.21079791  0.57316038  1  0  0.019115  0  3.671858  0  0.555413  0  -0.020566  0  3.930816  0  0  -0.01858  0  3.948497  0  0  0.037785  -0.021856  0  3.919422  0
C  C19  1  0.08615435  0.71079876  0.92683909  1  0  0.019083  0  3.671921  0  0.555456  0  -0.02053  0  3.930804  0  0  -0.018544  0  3.948483  0  0  0.037798  -0.021819  0  3.919402  0
C  C20  1  0.58615623  0.78920206  0.42684057  1  0  0.019187  0  3.671732  0  0.555372  0  -0.020491  0  3.930685  0  0  -0.018506  0  3.948366  0  0  0.037805  -0.021775  0  3.919289  0
C  C21  1  0.91384506  0.28920121  0.07316061  1  0  0.019104  0  3.671864  0  0.555548  0  -0.020542  0  3.930774  0  0  -0.018556  0  3.948455  0  0  0.037797  -0.021822  0  3.919369  0
C  C22  1  0.64218594  0.36322355  0.67090231  1  0  0.075803  0  3.632315  0  0.483718  0  0.042  0  3.88898  0  0  0.045724  0  3.90553  0  0  0.045629  0.039541  0  3.877733  0
C  C23  1  0.85781007  0.86322446  0.82909807  1  0  0.075871  0  3.63226  0  0.483739  0  0.042056  0  3.888926  0  0  0.045781  0  3.905478  0  0  0.045642  0.039599  0  3.87767  0
C  C24  1  0.35781069  0.63677539  0.32909854  1  0  0.075835  0  3.632283  0  0.483735  0  0.042071  0  3.888886  0  0  0.045796  0  3.905437  0  0  0.045646  0.039605  0  3.877647  0
C  C25  1  0.14218378  0.13677654  0.17090214  1  0  0.075799  0  3.632316  0  0.483725  0  0.042029  0  3.888937  0  0  0.045755  0  3.905487  0  0  0.045633  0.039569  0  3.87769  0
C  C26  1  0.65605130  0.25786824  0.72792186  1  0  0.093319  0  3.665371  0  0.497791  0  0.070798  0  3.927399  0  0  0.071977  0  3.944221  0  0  0.052562  0.069639  0  3.916717  0
C  C27  1  0.84394446  0.75786912  0.77207790  1  0  0.093295  0  3.665356  0  0.497758  0  0.07079  0  3.927401  0  0  0.071969  0  3.944222  0  0  0.052563  0.069634  0  3.91671  0
C  C28  1  0.34394255  0.74213174  0.27207835  1  0  0.09331  0  3.665286  0  0.49781  0  0.070783  0  3.927304  0  0  0.07196  0  3.944127  0  0  0.052546  0.069631  0  3.91661  0
C  C29  1  0.15605217  0.24213188  0.22792175  1  0  0.09332  0  3.665402  0  0.497806  0  0.070792  0  3.927423  0  0  0.07197  0  3.944247  0  0  0.052561  0.06964  0  3.916736  0
N  N30  1  0.54608425  0.12988961  0.70857529  1  0  -0.283035  0  3.069641  0  -1.203764  0  -0.252772  0  3.332177  0  0  -0.260608  0  3.34684  0  0  -0.295785  -0.247299  0  3.322831  0
N  N31  1  0.95391676  0.62989054  0.79142394  1  0  -0.283064  0  3.069589  0  -1.203764  0  -0.252797  0  3.332111  0  0  -0.260633  0  3.346773  0  0  -0.295791  -0.247331  0  3.322777  0
N  N32  1  0.45391517  0.87011138  0.29142561  1  0  -0.283014  0  3.069625  0  -1.203763  0  -0.252749  0  3.332156  0  0  -0.260586  0  3.34682  0  0  -0.295751  -0.247277  0  3.322812  0
N  N33  1  0.04608544  0.37011046  0.20857520  1  0  -0.28301  0  3.069625  0  -1.203762  0  -0.252749  0  3.332164  0  0  -0.260586  0  3.34683  0  0  -0.295761  -0.247282  0  3.322836  0
N  N34  1  0.52319341  0.33804398  0.59354509  1  0  -0.242698  0  3.297095  0  -1.252945  0  -0.16349  0  3.544308  0  0  -0.179688  0  3.56659  0  0  -0.299433  -0.152596  0  3.528225  0
N  N35  1  0.97680532  0.83804495  0.90645474  1  0  -0.242717  0  3.297095  0  -1.252953  0  -0.163542  0  3.54432  0  0  -0.179735  0  3.566592  0  0  -0.299445  -0.152647  0  3.528238  0
N  N36  1  0.47680322  0.66195395  0.40645457  1  0  -0.242744  0  3.297092  0  -1.25293  0  -0.163561  0  3.54434  0  0  -0.179757  0  3.566615  0  0  -0.299459  -0.152669  0  3.528266  0
N  N37  1  0.02319409  0.16195605  0.09354496  1  0  -0.242684  0  3.297123  0  -1.253044  0  -0.163506  0  3.544337  0  0  -0.179701  0  3.566615  0  0  -0.299445  -0.152613  0  3.52826  0
Cl  Cl38  1  0.96329834  0.37883169  0.42555977  1  0  -0.514835  0  1.105822  0  -0.65434  0  -0.458469  0  1.403242  0  0  -0.475339  0  1.38322  0  0  -0.272829  -0.447368  0  1.415923  0
Cl  Cl39  1  0.53671152  0.87883343  0.07443975  1  0  -0.514839  0  1.105819  0  -0.654426  0  -0.45848  0  1.403248  0  0  -0.475355  0  1.383238  0  0  -0.272833  -0.447381  0  1.415929  0
Cl  Cl40  1  0.03670665  0.62116726  0.57444002  1  0  -0.514847  0  1.105839  0  -0.65449  0  -0.458483  0  1.403249  0  0  -0.475353  0  1.383231  0  0  -0.272831  -0.447382  0  1.415926  0
Cl  Cl41  1  0.46329068  0.12116859  0.92555999  1  0  -0.514847  0  1.105842  0  -0.654398  0  -0.45848  0  1.403257  0  0  -0.47535  0  1.383237  0  0  -0.272833  -0.447379  0  1.415939  0
Cl  Cl42  1  0.27167244  0.94508346  0.60604455  1  0  -0.081647  0  1.455111  0  -0.196249  0  -0.069203  0  1.722623  0  0  -0.073574  0  1.717994  0  0  0.029119  -0.064271  0  1.724601  0
Cl  Cl43  1  0.22832289  0.44508471  0.89395487  1  0  -0.081624  0  1.455096  0  -0.196222  0  -0.069193  0  1.722626  0  0  -0.073564  0  1.717997  0  0  0.029137  -0.06426  0  1.724604  0
Cl  Cl44  1  0.72832698  0.05491549  0.39395575  1  0  -0.081634  0  1.455103  0  -0.196248  0  -0.069204  0  1.722648  0  0  -0.073576  0  1.718018  0  0  0.029123  -0.064267  0  1.724629  0
Cl  Cl45  1  0.77167653  0.55491629  0.10604483  1  0  -0.081642  0  1.455107  0  -0.196239  0  -0.069209  0  1.722633  0  0  -0.07358  0  1.718004  0  0  0.029125  -0.064269  0  1.72461  0
