# generated using pymatgen
data_ZnH26C26(NO2)2
_symmetry_space_group_name_H-M   'P 1'
_cell_length_a   14.11445345
_cell_length_b   15.22357839
_cell_length_c   17.09757106
_cell_angle_alpha   88.08577352
_cell_angle_beta   86.67666636
_cell_angle_gamma   85.48192378
_symmetry_Int_Tables_number   1
_chemical_formula_structural   ZnH26C26(NO2)2
_chemical_formula_sum   'Zn2 H52 C52 N4 O8'
_cell_volume   3654.68721265
_cell_formula_units_Z   2
loop_
 _symmetry_equiv_pos_site_id
 _symmetry_equiv_pos_as_xyz
  1  'x, y, z'
loop_
 _atom_site_type_symbol
 _atom_site_label
 _atom_site_symmetry_multiplicity
 _atom_site_fract_x
 _atom_site_fract_y
 _atom_site_fract_z
 _atom_site_occupancy
 _atom_site_pbe_bader_charge
 _atom_site_pbe_bader_spin_density
 _atom_site_pbe_cm5_charge
 _atom_site_pbe_ddec_charge
 _atom_site_pbe_ddec_spin_density
 _atom_site_pbe_ddec_sum_bond_order
 _atom_site_pbe_magmom
Zn  Zn0  1  0.60432825  0.49468151  0.50652914  1  1.303199  0  0.678445  0.858258  0  2.334363  0
Zn  Zn1  1  0.39557037  0.50896475  0.49789425  1  1.300105  0  0.677829  0.856106  0  2.334845  0
H  H2  1  0.39730264  0.42259061  0.27363373  1  0.050248  0  0.103243  0.105561  0  1.0121  0
H  H3  1  0.62909750  0.38916927  0.00150751  1  0.052537  0  0.097314  0.091604  0  1.014853  0
H  H4  1  0.70454402  0.39967204  0.11656104  1  0.027819  0  0.097327  0.094637  0  1.003695  0
H  H5  1  0.34192939  0.37663963  0.88536647  1  0.052465  0  0.097079  0.095216  0  1.003766  0
H  H6  1  0.63279091  0.44444926  0.88849673  1  0.039355  0  0.09801  0.095748  0  1.012361  0
H  H7  1  0.40034465  0.38240315  0.13452767  1  0.058174  0  0.098387  0.096402  0  1.00898  0
H  H8  1  0.63199033  0.93543100  0.41471098  1  0.048405  0  0.100071  0.100079  0  0.997473  0
H  H9  1  0.38270152  0.07817320  0.39560880  1  0.040633  0  0.100569  0.099798  0  0.998843  0
H  H10  1  0.63634875  0.77106942  0.42130871  1  0.073124  0  0.100754  0.102911  0  1.005969  0
H  H11  1  0.36971041  0.24123139  0.41252534  1  0.095819  0  0.102348  0.10744  0  0.999666  0
H  H12  1  0.35362221  0.78768705  0.52831690  1  0.10614  0  0.102192  0.110221  0  1.008714  0
H  H13  1  0.62924799  0.49007636  0.74837583  1  0.093493  0  0.104599  0.107539  0  1.007174  0
H  H14  1  0.60261415  0.21243290  0.56318432  1  0.065987  0  0.099449  0.103555  0  1.035298  0
H  H15  1  0.97426790  0.55976746  0.37603506  1  0.424885  0  0.302613  0.297836  0  0.969373  0
H  H16  1  0.07507639  0.58339018  0.32183325  1  0.445884  0  0.30683  0.298975  0  0.968191  0
H  H17  1  0.04016231  0.37058809  0.55746708  1  0.473469  0  0.305475  0.301596  0  0.966337  0
H  H18  1  0.94469749  0.30883266  0.57879153  1  0.451914  0  0.311122  0.305582  0  0.957697  0
H  H19  1  0.15447208  0.71006015  0.27931032  1  -0.005212  0  0.077274  0.093082  0  1.019995  0
H  H20  1  0.14337708  0.72317317  0.38269082  1  0.027382  0  0.079415  0.102256  0  1.020262  0
H  H21  1  0.21739853  0.78987162  0.32307682  1  0.022571  0  0.09004  0.120528  0  0.994872  0
H  H22  1  0.31902556  0.67278668  0.39058496  1  0.075279  0  0.093019  0.096567  0  1.004674  0
H  H23  1  0.32770496  0.65719172  0.28885623  1  0.028463  0  0.094255  0.088549  0  0.961639  0
H  H24  1  0.24807730  0.50731528  0.61596537  1  0.141521  0  0.118367  0.103231  0  1.020471  0
H  H25  1  0.31878091  0.51717246  0.35401018  1  0.119431  0  0.103866  0.119659  0  1.043193  0
H  H26  1  0.21230600  0.53928340  0.30532140  1  -0.015933  0  0.09276  0.090094  0  0.992518  0
H  H27  1  0.70285924  0.20159642  0.65552968  1  0.027379  0  0.085967  0.114863  0  1.029382  0
H  H28  1  0.82393303  0.20737559  0.67595942  1  0.008012  0  0.077447  0.094804  0  1.017867  0
H  H29  1  0.73226640  0.23954063  0.74721484  1  0.037823  0  0.089493  0.119012  0  0.996654  0
H  H30  1  0.80075567  0.37196330  0.68062165  1  0.011177  0  0.082283  0.063971  0  0.989405  0
H  H31  1  0.67911585  0.36983019  0.66455097  1  0.05123  0  0.093979  0.094827  0  1.003657  0
H  H32  1  0.70352369  0.33582862  0.53170986  1  0.126505  0  0.105037  0.126368  0  1.019018  0
H  H33  1  0.81940001  0.28667246  0.54153719  1  0.018438  0  0.095055  0.092168  0  0.991043  0
H  H34  1  0.22072491  0.11058202  0.60389237  1  0.007201  0  0.081533  0.105877  0  1.006863  0
H  H35  1  0.73064408  0.63114371  0.49077389  1  0.149676  0  0.117094  0.101554  0  1.030572  0
H  H36  1  0.18127345  0.01328463  0.65141020  1  0.028522  0  0.080022  0.101549  0  1.011176  0
H  H37  1  0.24876291  0.08439982  0.70233311  1  0.024874  0  0.084053  0.108818  0  1.005854  0
H  H38  1  0.35407357  0.95240067  0.65808787  1  -0.000307  0  0.086482  0.074418  0  0.976624  0
H  H39  1  0.39051630  0.04934598  0.60998734  1  0.06597  0  0.087875  0.077572  0  1.011971  0
H  H40  1  0.29822526  0.01691466  0.49438292  1  0.016131  0  0.088046  0.08248  0  1.013997  0
H  H41  1  0.26486270  0.91864318  0.54181310  1  0.003542  0  0.089361  0.084656  0  0.984582  0
H  H42  1  0.70837510  0.89349304  0.65807601  1  0.020884  0  0.083542  0.108433  0  1.004519  0
H  H43  1  0.72569763  0.99209487  0.70625401  1  0.028904  0  0.080637  0.102905  0  1.012041  0
H  H44  1  0.64213261  0.91942858  0.74685688  1  -0.000185  0  0.085385  0.111231  0  1.00347  0
H  H45  1  0.55705656  0.05012985  0.67949821  1  -0.002995  0  0.086762  0.074276  0  0.978053  0
H  H46  1  0.06989759  0.50422889  0.63315735  1  0.099995  0  0.109641  0.119032  0  0.987777  0
H  H47  1  0.54001138  0.95181177  0.63236901  1  0.01654  0  0.088557  0.077903  0  1.002028  0
H  H48  1  0.66888980  0.98216393  0.53199078  1  0.023667  0  0.088163  0.084273  0  1.016726  0
H  H49  1  0.69071069  0.07895662  0.57941014  1  0.026601  0  0.08734  0.079933  0  1.002602  0
H  H50  1  0.90569460  0.65394761  0.48662502  1  0.079297  0  0.110207  0.11933  0  0.988076  0
H  H51  1  0.34036811  0.42294073  0.74403380  1  0.074235  0  0.101831  0.104319  0  1.003495  0
H  H52  1  0.69998473  0.43668214  0.25805432  1  0.088988  0  0.103663  0.108888  0  0.997727  0
H  H53  1  0.41128043  0.38355405  0.00885644  1  0.041506  0  0.098144  0.094547  0  1.009173  0
C  C54  1  0.49746722  0.67113753  0.48525142  1  1.543419  0  0.217966  0.598163  0  4.16694  0
C  C55  1  0.55373986  0.18160786  0.52743084  1  -0.0385  0  -0.089673  -0.158191  0  3.96645  0
C  C56  1  0.41108216  0.91333456  0.50249590  1  0.012218  0  -0.007598  0.068388  0  3.931326  0
C  C57  1  0.56086025  0.09001833  0.52095550  1  -0.016729  0  -0.008449  0.06959  0  3.941061  0
C  C58  1  0.49233481  0.95485485  0.47194436  1  0.049088  0  -0.003513  0.029373  0  3.94729  0
C  C59  1  0.49558107  0.05210896  0.47469311  1  -0.056882  0  -0.00423  0.023077  0  3.956689  0
C  C60  1  0.09652409  0.54192178  0.43547896  1  0.382244  0  0.103232  0.16354  0  4.052438  0
C  C61  1  0.91015438  0.43469527  0.53572436  1  0.436063  0  0.104426  0.169357  0  4.056425  0
C  C62  1  0.19729888  0.54326088  0.43094551  1  0.584352  0  0.123939  0.177867  0  3.877417  0
C  C63  1  0.81014306  0.42762450  0.53692049  1  0.555687  0  0.123035  0.169995  0  3.900302  0
C  C64  1  0.20245000  0.51690612  0.56660681  1  0.400042  0  0.026229  0.05448  0  3.996765  0
C  C65  1  0.47715723  0.33330811  0.50202199  1  1.584878  0  0.211425  0.591974  0  4.167937  0
C  C66  1  0.78397579  0.57745521  0.50280170  1  0.460491  0  0.024263  0.053712  0  3.990862  0
C  C67  1  0.10436816  0.51459032  0.57517478  1  -0.049588  0  -0.094977  -0.193429  0  4.05613  0
C  C68  1  0.88060480  0.58889645  0.50018539  1  -0.113729  0  -0.096324  -0.194948  0  4.059487  0
C  C69  1  0.54358286  0.46804257  0.35543664  1  1.563178  0  0.211334  0.589499  0  4.178134  0
C  C70  1  0.48464300  0.48957436  0.65308600  1  1.56769  0  0.212792  0.592044  0  4.178592  0
C  C71  1  0.04974347  0.52568746  0.50941777  1  0.013812  0  -0.007521  0.004553  0  3.987367  0
C  C72  1  0.94573932  0.51725714  0.51567718  1  0.009241  0  -0.009144  -0.000452  0  3.991198  0
C  C73  1  0.54796442  0.43583969  0.27351702  1  -0.001757  0  -0.017007  -0.028322  0  3.962294  0
C  C74  1  0.48452203  0.45996627  0.73752609  1  -0.029833  0  -0.019985  -0.035555  0  3.960176  0
C  C75  1  0.46430984  0.41758410  0.23850581  1  0.017751  0  -0.085702  -0.092107  0  3.998539  0
C  C76  1  0.57146782  0.90266319  0.44127076  1  -0.095206  0  -0.0941  -0.137559  0  4.026612  0
C  C77  1  0.56715133  0.46396387  0.77888563  1  -0.006879  0  -0.086135  -0.091451  0  4.005594  0
C  C78  1  0.46653834  0.39497915  0.16050228  1  -0.058993  0  -0.092529  -0.133786  0  3.978121  0
C  C79  1  0.56874007  0.43764231  0.85720072  1  -0.017844  0  -0.093077  -0.134104  0  3.976068  0
C  C80  1  0.55258684  0.39178519  0.11393097  1  -0.007553  0  -0.012667  0.112863  0  4.05205  0
C  C81  1  0.48739347  0.40660011  0.89778565  1  -0.010799  0  -0.011699  0.113532  0  4.051799  0
C  C82  1  0.63696082  0.40407552  0.15126519  1  -0.025356  0  -0.09331  -0.140531  0  3.98688  0
C  C83  1  0.40548673  0.40096220  0.85521739  1  -0.071209  0  -0.095242  -0.144313  0  3.98987  0
C  C84  1  0.63492083  0.42539110  0.22983171  1  -0.069104  0  -0.08673  -0.092443  0  3.998263  0
C  C85  1  0.40404404  0.42705444  0.77646406  1  -0.049078  0  -0.087027  -0.089998  0  4.000373  0
C  C86  1  0.55735806  0.38660543  0.02898482  1  -0.077846  0  -0.091645  -0.130343  0  4.005425  0
C  C87  1  0.42958462  0.10762962  0.43413483  1  0.005164  0  -0.093749  -0.134447  0  4.027132  0
C  C88  1  0.48300457  0.38889576  0.98210221  1  -0.049909  0  -0.093749  -0.134327  0  4.000891  0
C  C89  1  0.25198916  0.55943530  0.35449582  1  -0.045909  0  -0.164025  -0.242638  0  3.944525  0
C  C90  1  0.27842094  0.65546116  0.34108727  1  -0.01627  0  -0.1646  -0.085411  0  3.927436  0
C  C91  1  0.19377293  0.72292911  0.33109876  1  -0.061605  0  -0.24764  -0.357531  0  4.000501  0
C  C92  1  0.76971160  0.34207520  0.56117760  1  -0.076203  0  -0.16153  -0.237905  0  3.927551  0
C  C93  1  0.74924490  0.33546184  0.65113000  1  0.003781  0  -0.164319  -0.084596  0  3.928846  0
C  C94  1  0.75217425  0.24095162  0.68410983  1  -0.085299  0  -0.244968  -0.35499  0  3.980044  0
C  C95  1  0.32211634  0.96396686  0.53573620  1  0.014598  0  -0.161901  -0.193521  0  3.975056  0
C  C96  1  0.33256452  0.00494366  0.61535439  1  -0.030573  0  -0.165825  -0.090621  0  3.956954  0
C  C97  1  0.24079492  0.05602281  0.64503441  1  -0.068171  0  -0.246027  -0.350183  0  3.99412  0
C  C98  1  0.57413760  0.81104382  0.44431594  1  -0.047776  0  -0.092232  -0.102456  0  4.015641  0
C  C99  1  0.63431551  0.03616164  0.56696763  1  -0.021172  0  -0.163792  -0.198468  0  3.979926  0
C  C100  1  0.59419238  0.99684741  0.64473393  1  0.029458  0  -0.165736  -0.090074  0  3.959685  0
C  C101  1  0.67173040  0.94780157  0.69165691  1  -0.05937  0  -0.245071  -0.351038  0  3.990392  0
C  C102  1  0.42236209  0.19846100  0.44267476  1  -0.078982  0  -0.090364  -0.101581  0  4.006975  0
C  C103  1  0.49565835  0.76947754  0.47720731  1  0.03289  0  -0.021878  -0.0305  0  4.000283  0
C  C104  1  0.48419267  0.23597120  0.49081840  1  -0.048897  0  -0.021273  -0.023635  0  4.000386  0
C  C105  1  0.41478241  0.82123612  0.50413165  1  -0.133058  0  -0.088931  -0.155008  0  3.962009  0
N  N106  1  0.24711105  0.52947191  0.49569266  1  -1.230422  0  -0.316519  -0.239934  0  3.509362  0
N  N107  1  0.75046738  0.49796614  0.51980846  1  -1.224369  0  -0.315167  -0.235921  0  3.511792  0
N  N108  1  0.04609300  0.55060371  0.36858103  1  -1.216523  0  -0.597111  -0.607686  0  3.363154  0
N  N109  1  0.97091296  0.36161251  0.55029780  1  -1.270503  0  -0.59543  -0.608901  0  3.370946  0
O  O110  1  0.57793404  0.62743482  0.47768400  1  -1.177698  0  -0.31304  -0.552901  0  2.34978  0
O  O111  1  0.39761419  0.37516103  0.48867251  1  -1.159672  0  -0.323567  -0.546054  0  2.297798  0
O  O112  1  0.41756918  0.63859491  0.50003836  1  -1.167241  0  -0.317175  -0.553894  0  2.363399  0
O  O113  1  0.55065460  0.36730188  0.52386157  1  -1.184401  0  -0.315672  -0.565649  0  2.338653  0
O  O114  1  0.62077077  0.46211102  0.39122753  1  -1.152722  0  -0.324278  -0.546482  0  2.289021  0
O  O115  1  0.40692113  0.49011784  0.61873963  1  -1.176693  0  -0.314986  -0.554057  0  2.334319  0
O  O116  1  0.46296047  0.49984854  0.38339961  1  -1.182957  0  -0.314489  -0.563522  0  2.358046  0
O  O117  1  0.56411338  0.51113837  0.62162052  1  -1.173529  0  -0.325564  -0.561578  0  2.338604  0
