# generated using pymatgen
data_ZnH18C19N4O7
_symmetry_space_group_name_H-M   'P 1'
_cell_length_a   8.80301908
_cell_length_b   9.87349608
_cell_length_c   11.33606736
_cell_angle_alpha   83.37804511
_cell_angle_beta   71.07313827
_cell_angle_gamma   81.96657680
_symmetry_Int_Tables_number   1
_chemical_formula_structural   ZnH18C19N4O7
_chemical_formula_sum   'Zn2 H36 C38 N8 O14'
_cell_volume   920.29459121
_cell_formula_units_Z   2
loop_
 _symmetry_equiv_pos_site_id
 _symmetry_equiv_pos_as_xyz
  1  'x, y, z'
loop_
 _atom_site_type_symbol
 _atom_site_label
 _atom_site_symmetry_multiplicity
 _atom_site_fract_x
 _atom_site_fract_y
 _atom_site_fract_z
 _atom_site_occupancy
 _atom_site_hle17_bader_spin_density
 _atom_site_hle17_ddec_charge
 _atom_site_hle17_ddec_spin_density
 _atom_site_hle17_ddec_sum_bond_order
 _atom_site_hle17_magmom
 _atom_site_hse06_10hf_bader_spin_density
 _atom_site_hse06_10hf_ddec_charge
 _atom_site_hse06_10hf_ddec_spin_density
 _atom_site_hse06_10hf_ddec_sum_bond_order
 _atom_site_hse06_10hf_magmom
 _atom_site_hse06_bader_spin_density
 _atom_site_hse06_ddec_charge
 _atom_site_hse06_ddec_spin_density
 _atom_site_hse06_ddec_sum_bond_order
 _atom_site_hse06_magmom
 _atom_site_pbe_bader_spin_density
 _atom_site_pbe_cm5_charge
 _atom_site_pbe_ddec_charge
 _atom_site_pbe_ddec_spin_density
 _atom_site_pbe_ddec_sum_bond_order
 _atom_site_pbe_magmom
Zn  Zn0  1  0.37412161  0.25514403  0.27595519  1  0  1.009729  0  1.845144  0  0  0.824233  0  2.289502  0  0  0.867977  0  2.242776  0  0  0.675565  0.79416  0  2.321593  0
Zn  Zn1  1  0.62587754  0.74485726  0.72404557  1  0  1.009694  0  1.845178  0  0  0.824192  0  2.289555  0  0  0.867926  0  2.242828  0  0  0.675535  0.794116  0  2.321644  0
H  H2  1  0.55982409  0.41657148  0.09545060  1  0  0.422666  0  0.880259  0  0  0.391044  0  0.944495  0  0  0.402645  0  0.927689  0  0  0.290078  0.382687  0  0.956597  0
H  H3  1  0.44017626  0.58342982  0.90454898  1  0  0.422656  0  0.880278  0  0  0.391027  0  0.944525  0  0  0.402631  0  0.927716  0  0  0.290077  0.38267  0  0.956627  0
H  H4  1  0.45259940  0.35863234  0.02642307  1  0  0.420204  0  0.886171  0  0  0.385679  0  0.956565  0  0  0.397112  0  0.940011  0  0  0.287189  0.377703  0  0.968078  0
H  H5  1  0.54740095  0.64136896  0.97357650  1  0  0.420252  0  0.88613  0  0  0.385737  0  0.956502  0  0  0.39717  0  0.939948  0  0  0.28722  0.377762  0  0.968013  0
H  H6  1  0.61692536  0.37359991  0.31546453  1  0  0.42601  0  0.876763  0  0  0.393389  0  0.94343  0  0  0.404765  0  0.926968  0  0  0.28624  0.384961  0  0.955596  0
H  H7  1  0.38307632  0.62640036  0.68453481  1  0  0.426016  0  0.87676  0  0  0.393393  0  0.943433  0  0  0.40477  0  0.926969  0  0  0.286225  0.384964  0  0.9556  0
H  H8  1  0.63189721  0.21569959  0.38097865  1  0  0.432773  0  0.86825  0  0  0.400424  0  0.934273  0  0  0.411168  0  0.918683  0  0  0.289433  0.392781  0  0.945394  0
H  H9  1  0.36810208  0.78430068  0.61902129  1  0  0.43282  0  0.868187  0  0  0.400487  0  0.934179  0  0  0.41123  0  0.918591  0  0  0.289441  0.392845  0  0.945299  0
H  H10  1  0.89338261  0.85435958  0.38547929  1  0  0.295501  0  0.932835  0  0  0.272739  0  1.006401  0  0  0.281718  0  0.999038  0  0  0.299022  0.266296  0  1.011705  0
H  H11  1  0.10661547  0.14564069  0.61452273  1  0  0.295504  0  0.932812  0  0  0.272733  0  1.006386  0  0  0.281714  0  0.999023  0  0  0.299032  0.26629  0  1.011692  0
H  H12  1  0.59964903  0.08531624  0.04482720  1  0  0.097049  0  0.948067  0  0  0.103317  0  1.014662  0  0  0.106449  0  1.012057  0  0  0.120155  0.100598  0  1.017333  0
H  H13  1  0.40035118  0.91468609  0.95517407  1  0  0.097046  0  0.948116  0  0  0.10331  0  1.014712  0  0  0.106442  0  1.012104  0  0  0.120144  0.10059  0  1.017381  0
H  H14  1  0.68469913  0.83624731  0.00843991  1  0  0.107338  0  0.973511  0  0  0.115262  0  1.037015  0  0  0.117428  0  1.03832  0  0  0.109354  0.113539  0  1.036536  0
H  H15  1  0.31530002  0.16375399  0.99155997  1  0  0.107362  0  0.973524  0  0  0.1153  0  1.036999  0  0  0.11746  0  1.03831  0  0  0.109372  0.113578  0  1.036521  0
H  H16  1  0.46012465  0.74338158  0.40298450  1  0  0.121477  0  0.950993  0  0  0.12738  0  1.018181  0  0  0.131932  0  1.015159  0  0  0.114115  0.123702  0  1.020986  0
H  H17  1  0.53987570  0.25661972  0.59701507  1  0  0.121482  0  0.951015  0  0  0.127401  0  1.018185  0  0  0.131941  0  1.015179  0  0  0.114125  0.123723  0  1.020993  0
H  H18  1  0.14662629  0.04386673  0.28802340  1  0  0.073912  0  0.975072  0  0  0.07877  0  1.046747  0  0  0.080574  0  1.045996  0  0  0.110595  0.077457  0  1.04713  0
H  H19  1  0.85337313  0.95613252  0.71197839  1  0  0.07392  0  0.975043  0  0  0.078773  0  1.046722  0  0  0.080578  0  1.045972  0  0  0.110597  0.077461  0  1.047103  0
H  H20  1  0.77653828  0.98278850  0.25157632  1  0  0.083581  0  0.952601  0  0  0.098158  0  1.017073  0  0  0.097765  0  1.018619  0  0  0.112421  0.098384  0  1.015847  0
H  H21  1  0.22346113  0.01721074  0.74842370  1  0  0.083582  0  0.952597  0  0  0.098165  0  1.017071  0  0  0.097772  0  1.018617  0  0  0.112429  0.09839  0  1.015845  0
H  H22  1  0.93457551  0.91870725  0.12035687  1  0  0.071905  0  0.932796  0  0  0.088122  0  0.996833  0  0  0.087513  0  0.998054  0  0  0.108475  0.088405  0  0.996503  0
H  H23  1  0.06542404  0.08129097  0.87964321  1  0  0.071897  0  0.932774  0  0  0.08813  0  0.996805  0  0  0.087521  0  0.998025  0  0  0.108471  0.088413  0  0.996472  0
H  H24  1  0.81862664  0.19431169  0.07905371  1  0  0.117154  0  0.942407  0  0  0.12855  0  1.001986  0  0  0.13158  0  0.999253  0  0  0.113727  0.126486  0  1.003995  0
H  H25  1  0.18137518  0.80568756  0.92094659  1  0  0.117112  0  0.942413  0  0  0.128522  0  1.001981  0  0  0.131541  0  0.99926  0  0  0.113712  0.126457  0  1.003989  0
H  H26  1  0.92697005  0.41944970  0.04787565  1  0  0.106832  0  0.959214  0  0  0.117491  0  1.017727  0  0  0.120351  0  1.017236  0  0  0.108618  0.115399  0  1.01834  0
H  H27  1  0.07303310  0.58054852  0.95212265  1  0  0.106778  0  0.959235  0  0  0.117483  0  1.017702  0  0  0.120343  0  1.017212  0  0  0.108613  0.11539  0  1.018317  0
H  H28  1  0.15417519  0.44271051  0.12778072  1  0  0.069672  0  0.974617  0  0  0.07969  0  1.039706  0  0  0.081965  0  1.0372  0  0  0.112625  0.077834  0  1.042006  0
H  H29  1  0.84582676  0.55728771  0.87221877  1  0  0.06966  0  0.97463  0  0  0.079677  0  1.039719  0  0  0.081952  0  1.037213  0  0  0.112617  0.07782  0  1.042021  0
H  H30  1  0.27426779  0.36345269  0.53611151  1  0  0.091402  0  0.937338  0  0  0.096718  0  1.005764  0  0  0.100432  0  1.00133  0  0  0.119078  0.093895  0  1.009214  0
H  H31  1  0.72573149  0.63654758  0.46388931  1  0  0.091397  0  0.937287  0  0  0.096707  0  1.005719  0  0  0.10042  0  1.001284  0  0  0.119068  0.093884  0  1.009169  0
H  H32  1  0.13298667  0.57434733  0.64074931  1  0  0.110561  0  0.962089  0  0  0.119305  0  1.021763  0  0  0.122328  0  1.021974  0  0  0.107738  0.117173  0  1.021685  0
H  H33  1  0.86701274  0.42565192  0.35925159  1  0  0.110575  0  0.9621  0  0  0.119306  0  1.021786  0  0  0.122329  0  1.021998  0  0  0.107738  0.11718  0  1.021694  0
H  H34  1  0.04097385  0.77519797  0.51391438  1  0  0.109584  0  0.937733  0  0  0.118079  0  1.001673  0  0  0.121136  0  0.999449  0  0  0.111979  0.115998  0  1.002899  0
H  H35  1  0.95902437  0.22480127  0.48608594  1  0  0.109594  0  0.937732  0  0  0.118085  0  1.001664  0  0  0.121141  0  0.999442  0  0  0.111974  0.116006  0  1.00289  0
H  H36  1  0.27806719  0.54996968  0.18832691  1  0  0.083119  0  0.95962  0  0  0.089562  0  1.028096  0  0  0.093278  0  1.023668  0  0  0.119345  0.086645  0  1.031735  0
H  H37  1  0.72193223  0.45002956  0.81167399  1  0  0.083106  0  0.959613  0  0  0.089556  0  1.028087  0  0  0.093271  0  1.023661  0  0  0.119339  0.086639  0  1.031727  0
C  C38  1  0.57771664  0.76937095  0.20326690  1  0  0.004174  0  3.691006  0  0  0.020958  0  3.930022  0  0  0.019674  0  3.947243  0  0  0.008164  0.022007  0  3.918269  0
C  C39  1  0.42228251  0.23063035  0.79673298  1  0  0.004193  0  3.691112  0  0  0.020955  0  3.930141  0  0  0.019672  0  3.947358  0  0  0.008163  0.022006  0  3.91839  0
C  C40  1  0.32357028  0.00699006  0.45302328  1  0  0.611548  0  3.927028  0  0  0.558301  0  4.227046  0  0  0.591016  0  4.219701  0  0  0.206029  0.536344  0  4.231446  0
C  C41  1  0.67643021  0.99301021  0.54697813  1  0  0.611602  0  3.927  0  0  0.55835  0  4.227017  0  0  0.591064  0  4.219673  0  0  0.206032  0.536393  0  4.231416  0
C  C42  1  0.43571384  0.95436088  0.33118446  1  0  0.088437  0  3.741377  0  0  0.09166  0  3.985976  0  0  0.092267  0  4.004828  0  0  0.107685  0.090409  0  3.973869  0
C  C43  1  0.56428651  0.04564042  0.66881600  1  0  0.088427  0  3.741346  0  0  0.09165  0  3.985961  0  0  0.092255  0  4.004812  0  0  0.107689  0.090401  0  3.973854  0
C  C44  1  0.56613513  0.00547751  0.12062968  1  0  0.127303  0  3.669298  0  0  0.09615  0  3.927652  0  0  0.101864  0  3.9435  0  0  0.053672  0.092281  0  3.91796  0
C  C45  1  0.43386402  0.99452378  0.87937108  1  0  0.127263  0  3.669325  0  0  0.096122  0  3.927675  0  0  0.101836  0  3.94352  0  0  0.053639  0.092254  0  3.917981  0
C  C46  1  0.61599246  0.86694030  0.10167111  1  0  -0.108777  0  3.680281  0  0  -0.131623  0  3.931436  0  0  -0.134624  0  3.949974  0  0  -0.071093  -0.130016  0  3.920316  0
C  C47  1  0.38400535  0.13306202  0.89832812  1  0  -0.108785  0  3.680368  0  0  -0.131627  0  3.931502  0  0  -0.134623  0  3.950042  0  0  -0.071063  -0.130023  0  3.920385  0
C  C48  1  0.49009332  0.81549616  0.32092320  1  0  -0.109157  0  3.669743  0  0  -0.142456  0  3.920296  0  0  -0.145127  0  3.93864  0  0  -0.068101  -0.140429  0  3.908376  0
C  C49  1  0.50990703  0.18450513  0.67907726  1  0  -0.109166  0  3.669763  0  0  -0.142475  0  3.920318  0  0  -0.145137  0  3.93867  0  0  -0.068118  -0.14045  0  3.908402  0
C  C50  1  0.62134161  0.61645664  0.19065603  1  0  0.64885  0  3.912016  0  0  0.59459  0  4.215521  0  0  0.627674  0  4.207606  0  0  0.210883  0.572167  0  4.219638  0
C  C51  1  0.37865888  0.38354363  0.80934361  1  0  0.648848  0  3.911996  0  0  0.594598  0  4.215484  0  0  0.62768  0  4.207572  0  0  0.210848  0.572175  0  4.219602  0
C  C52  1  0.09756162  0.12406297  0.23199611  1  0  0.075259  0  3.688471  0  0  0.036587  0  3.942317  0  0  0.0429  0  3.959314  0  0  0.037866  0.032719  0  3.93035  0
C  C53  1  0.90243900  0.87593628  0.76800449  1  0  0.07526  0  3.688503  0  0  0.036591  0  3.942343  0  0  0.042906  0  3.959336  0  0  0.037856  0.032726  0  3.930372  0
C  C54  1  0.97577435  0.09991771  0.18612601  1  0  0.038723  0  3.707743  0  0  0.064426  0  3.944946  0  0  0.060211  0  3.967313  0  0  0.001684  0.066649  0  3.930486  0
C  C55  1  0.02422640  0.90008051  0.81387377  1  0  0.038629  0  3.70779  0  0  0.064335  0  3.94499  0  0  0.060119  0  3.967355  0  0  0.0017  0.066557  0  3.93053  0
C  C56  1  0.90769978  0.96392135  0.21019967  1  0  0.018489  0  3.713794  0  0  -0.049771  0  3.971284  0  0  -0.043254  0  3.982249  0  0  -0.055963  -0.054389  0  3.964041  0
C  C57  1  0.09229964  0.03607789  0.78980123  1  0  0.018569  0  3.713712  0  0  -0.049725  0  3.971226  0  0  -0.043205  0  3.98219  0  0  -0.055961  -0.054346  0  3.963989  0
C  C58  1  0.91417529  0.20743521  0.11707251  1  0  -0.038929  0  3.669005  0  0  -0.065314  0  3.913313  0  0  -0.061494  0  3.929232  0  0  -0.060208  -0.067221  0  3.902462  0
C  C59  1  0.08582400  0.79256506  0.88292744  1  0  -0.038812  0  3.668957  0  0  -0.065197  0  3.913262  0  0  -0.061371  0  3.92919  0  0  -0.06018  -0.067107  0  3.90241  0
C  C60  1  0.97642104  0.33286672  0.09763881  1  0  -0.109421  0  3.734164  0  0  -0.122891  0  3.989999  0  0  -0.128811  0  4.009787  0  0  -0.083494  -0.11931  0  3.976842  0
C  C61  1  0.02358091  0.66713150  0.90235979  1  0  -0.109393  0  3.734073  0  0  -0.122912  0  3.989925  0  0  -0.128832  0  4.009711  0  0  -0.0835  -0.11933  0  3.976769  0
C  C62  1  0.10035889  0.34699127  0.14490924  1  0  0.110933  0  3.73697  0  0  0.075074  0  3.998749  0  0  0.081504  0  4.016801  0  0  0.037026  0.070984  0  3.98652  0
C  C63  1  0.89964307  0.65300695  0.85509025  1  0  0.110872  0  3.736934  0  0  0.075016  0  3.998727  0  0  0.081447  0  4.016781  0  0  0.036987  0.070927  0  3.986496  0
C  C64  1  0.23675280  0.45332940  0.48294395  1  0  0.153758  0  3.647305  0  0  0.118075  0  3.901019  0  0  0.12748  0  3.915153  0  0  0.057118  0.112011  0  3.891836  0
C  C65  1  0.76324542  0.54666984  0.51705725  1  0  0.153778  0  3.647327  0  0  0.118101  0  3.901021  0  0  0.127509  0  3.915154  0  0  0.05714  0.112036  0  3.891838  0
C  C66  1  0.15635795  0.57159135  0.54077144  1  0  -0.10594  0  3.697211  0  0  -0.11687  0  3.950537  0  0  -0.124537  0  3.971099  0  0  -0.079333  -0.112039  0  3.93678  0
C  C67  1  0.84363907  0.42840789  0.45923006  1  0  -0.105979  0  3.697214  0  0  -0.116908  0  3.950529  0  0  -0.124576  0  3.971091  0  0  -0.079382  -0.112075  0  3.936778  0
C  C68  1  0.10736662  0.68316844  0.46954266  1  0  -0.012452  0  3.67521  0  0  -0.044967  0  3.93081  0  0  -0.039079  0  3.94745  0  0  -0.059385  -0.048223  0  3.9188  0
C  C69  1  0.89263174  0.31682977  0.53045773  1  0  -0.012469  0  3.675168  0  0  -0.044961  0  3.93074  0  0  -0.039072  0  3.947381  0  0  -0.059356  -0.048218  0  3.918729  0
C  C70  1  0.14913757  0.67515872  0.34027421  1  0  -0.105804  0  3.77266  0  0  -0.078408  0  4.008286  0  0  -0.090508  0  4.033742  0  0  -0.010182  -0.070879  0  3.991543  0
C  C71  1  0.85086185  0.32484052  0.65972669  1  0  -0.105766  0  3.772651  0  0  -0.078382  0  4.008266  0  0  -0.090483  0  4.033723  0  0  -0.010166  -0.070853  0  3.991525  0
C  C72  1  0.10694057  0.78472509  0.24987040  1  0  0.528337  0  3.891982  0  0  0.482216  0  4.176348  0  0  0.511264  0  4.177574  0  0  0.232036  0.462347  0  4.17552  0
C  C73  1  0.89305658  0.21527312  0.75013029  1  0  0.528314  0  3.892164  0  0  0.482211  0  4.176482  0  0  0.511262  0  4.177705  0  0  0.232038  0.462341  0  4.175654  0
C  C74  1  0.23647996  0.55511774  0.28937065  1  0  0.111408  0  3.695895  0  0  0.069336  0  3.945278  0  0  0.076861  0  3.96317  0  0  0.05203  0.06427  0  3.933376  0
C  C75  1  0.76351946  0.44488150  0.71063025  1  0  0.111441  0  3.69585  0  0  0.069352  0  3.945244  0  0  0.076879  0  3.963136  0  0  0.052027  0.064288  0  3.933339  0
N  N76  1  0.47401222  0.04776370  0.23252230  1  0  -0.324862  0  3.272588  0  0  -0.253237  0  3.530085  0  0  -0.268251  0  3.5471  0  0  -0.31563  -0.242735  0  3.518795  0
N  N77  1  0.52598813  0.95223760  0.76747904  1  0  -0.32485  0  3.272625  0  0  -0.253249  0  3.530149  0  0  -0.26826  0  3.547161  0  0  -0.315625  -0.242746  0  3.518857  0
N  N78  1  0.16117479  0.24430771  0.21130155  1  0  -0.344483  0  3.276748  0  0  -0.269556  0  3.55063  0  0  -0.287542  0  3.569065  0  0  -0.324809  -0.257424  0  3.537242  0
N  N79  1  0.83882597  0.75569051  0.78869823  1  0  -0.344413  0  3.276777  0  0  -0.269472  0  3.550622  0  0  -0.287457  0  3.569059  0  0  -0.324769  -0.257339  0  3.537227  0
N  N80  1  0.27396922  0.44441669  0.35886496  1  0  -0.323048  0  3.289957  0  0  -0.240686  0  3.556646  0  0  -0.259491  0  3.573669  0  0  -0.322659  -0.228215  0  3.544757  0
N  N81  1  0.72603126  0.55558359  0.64113557  1  0  -0.323066  0  3.289953  0  0  -0.240699  0  3.556644  0  0  -0.259498  0  3.573654  0  0  -0.322645  -0.228226  0  3.544753  0
N  N82  1  0.96659472  0.86521644  0.29404851  1  0  -0.428312  0  3.339154  0  0  -0.366418  0  3.586746  0  0  -0.38891  0  3.594708  0  0  -0.421211  -0.350806  0  3.581128  0
N  N83  1  0.03340336  0.13478383  0.70595174  1  0  -0.428345  0  3.339137  0  0  -0.36643  0  3.586732  0  0  -0.388923  0  3.594683  0  0  -0.421219  -0.350815  0  3.581114  0
O  O84  1  0.49913260  0.33764511  0.09686273  1  0  -0.826731  0  1.926685  0  0  -0.761551  0  2.143336  0  0  -0.782661  0  2.107182  0  0  -0.582026  -0.746261  0  2.168827  0
O  O85  1  0.50086655  0.66235619  0.90313803  1  0  -0.826738  0  1.926656  0  0  -0.761555  0  2.1433  0  0  -0.782665  0  2.107141  0  0  -0.582047  -0.746273  0  2.168799  0
O  O86  1  0.26854263  0.13454951  0.45098297  1  0  -0.635188  0  2.033273  0  0  -0.569597  0  2.289001  0  0  -0.596033  0  2.277201  0  0  -0.313304  -0.55145  0  2.29654  0
O  O87  1  0.73145772  0.86545179  0.54901749  1  0  -0.635172  0  2.033273  0  0  -0.569567  0  2.28898  0  0  -0.595998  0  2.277175  0  0  -0.313265  -0.551421  0  2.296523  0
O  O88  1  0.28622435  0.92338234  0.54733461  1  0  -0.601344  0  1.99405  0  0  -0.547497  0  2.221289  0  0  -0.571352  0  2.214893  0  0  -0.307348  -0.531038  0  2.22504  0
O  O89  1  0.71377480  0.07661895  0.45266703  1  0  -0.601391  0  1.994035  0  0  -0.547531  0  2.221275  0  0  -0.571381  0  2.214867  0  0  -0.307368  -0.531072  0  2.225026  0
O  O90  1  0.62624728  0.57189389  0.08754742  1  0  -0.663069  0  2.021818  0  0  -0.597204  0  2.246314  0  0  -0.624618  0  2.236495  0  0  -0.315665  -0.57797  0  2.252719  0
O  O91  1  0.37375427  0.42810741  0.91245098  1  0  -0.663038  0  2.021786  0  0  -0.597169  0  2.246278  0  0  -0.624585  0  2.23646  0  0  -0.315627  -0.577934  0  2.252683  0
O  O92  1  0.64483961  0.54474506  0.28360332  1  0  -0.613246  0  1.960922  0  0  -0.561783  0  2.185802  0  0  -0.586228  0  2.178444  0  0  -0.309122  -0.543302  0  2.190178  0
O  O93  1  0.35516088  0.45525522  0.71639633  1  0  -0.613266  0  1.96094  0  0  -0.561801  0  2.185818  0  0  -0.586245  0  2.178464  0  0  -0.309114  -0.543317  0  2.190194  0
O  O94  1  0.58071789  0.28028225  0.32773021  1  0  -0.857818  0  1.92262  0  0  -0.794997  0  2.133322  0  0  -0.816766  0  2.100143  0  0  -0.590938  -0.778813  0  2.157582  0
O  O95  1  0.41928246  0.71971905  0.67226936  1  0  -0.857868  0  1.922581  0  0  -0.795059  0  2.133279  0  0  -0.816826  0  2.100099  0  0  -0.590928  -0.778874  0  2.157542  0
O  O96  1  0.19554949  0.79561299  0.13905529  1  0  -0.559123  0  1.897219  0  0  -0.520497  0  2.118819  0  0  -0.541586  0  2.114434  0  0  -0.309484  -0.505808  0  2.122176  0
O  O97  1  0.80444659  0.20438420  0.86094401  1  0  -0.559114  0  1.897377  0  0  -0.520512  0  2.118951  0  0  -0.541606  0  2.114567  0  0  -0.309505  -0.505825  0  2.122309  0
