# generated using pymatgen
data_CuH12C9(N3O2)2
_symmetry_space_group_name_H-M   'P 1'
_cell_length_a   8.91620741
_cell_length_b   8.91609334
_cell_length_c   9.45652009
_cell_angle_alpha   69.05007181
_cell_angle_beta   69.05006555
_cell_angle_gamma   80.66067714
_symmetry_Int_Tables_number   1
_chemical_formula_structural   CuH12C9(N3O2)2
_chemical_formula_sum   'Cu2 H24 C18 N12 O8'
_cell_volume   655.15152253
_cell_formula_units_Z   2
loop_
 _symmetry_equiv_pos_site_id
 _symmetry_equiv_pos_as_xyz
  1  'x, y, z'
loop_
 _atom_site_type_symbol
 _atom_site_label
 _atom_site_symmetry_multiplicity
 _atom_site_fract_x
 _atom_site_fract_y
 _atom_site_fract_z
 _atom_site_occupancy
 _atom_site_hle17_ddec_charge
 _atom_site_hle17_ddec_spin_density
 _atom_site_hle17_ddec_sum_bond_order
 _atom_site_hle17_magmom
 _atom_site_hse06_10hf_ddec_charge
 _atom_site_hse06_10hf_ddec_spin_density
 _atom_site_hse06_10hf_ddec_sum_bond_order
 _atom_site_hse06_10hf_magmom
 _atom_site_hse06_ddec_charge
 _atom_site_hse06_ddec_spin_density
 _atom_site_hse06_ddec_sum_bond_order
 _atom_site_hse06_magmom
 _atom_site_pbe_cm5_charge
 _atom_site_pbe_ddec_charge
 _atom_site_pbe_ddec_spin_density
 _atom_site_pbe_ddec_sum_bond_order
 _atom_site_pbe_magmom
Cu  Cu0  1  0.99999680  0.49999903  0.00000306  1  0.841008  -0.675875  1.782428  -0.503  0.806787  -0.767557  2.17602  -0.617  0.903878  -0.83001  2.100211  -0.699  0.730147  0.745403  -0.725769  2.230925  -0.567
Cu  Cu1  1  0.50000031  0.00000055  0.49999936  1  0.841028  -0.675874  1.782475  -0.503  0.806874  -0.767555  2.175978  -0.617  0.903909  -0.83001  2.100228  -0.699  0.730168  0.745497  -0.725778  2.230934  -0.567
H  H2  1  0.89317842  0.69349250  0.25849024  1  0.135665  0.000225  0.963015  0.0  0.143761  7.8e-05  1.020874  0.0  0.148031  7e-05  1.015932  0.0  0.147769  0.140753  7.1e-05  1.024481  0.0
H  H3  1  0.30651112  0.10682525  0.24150512  1  0.135565  0.000229  0.963072  0.0  0.14369  7.8e-05  1.02093  0.0  0.147956  7e-05  1.015992  0.0  0.147734  0.140715  7.1e-05  1.024489  0.0
H  H4  1  0.10681503  0.30651287  0.74150927  1  0.135737  0.000221  0.962905  0.0  0.143759  7.9e-05  1.020857  0.0  0.148076  7e-05  1.015846  0.0  0.147768  0.140752  7.1e-05  1.024465  0.0
H  H5  1  0.69348850  0.89317657  0.75849351  1  0.135579  0.000225  0.963041  0.0  0.143705  7.8e-05  1.020898  0.0  0.14797  7e-05  1.015961  0.0  0.147755  0.140731  7.1e-05  1.024453  0.0
H  H6  1  0.31745143  0.72682287  0.85898879  1  0.113314  0.000264  0.961444  0.0  0.118592  5e-05  1.027384  0.0  0.122251  0.000115  1.023523  0.0  0.136168  0.115985  -6.3e-05  1.029863  0.0
H  H7  1  0.27317898  0.68254790  0.64100645  1  0.11328  0.000266  0.961403  0.0  0.11851  5e-05  1.027387  0.0  0.122172  0.000115  1.02353  0.0  0.136125  0.115899  -6.3e-05  1.029864  0.0
H  H8  1  0.68254466  0.27317772  0.14101037  1  0.113281  0.000264  0.961439  0.0  0.118565  5e-05  1.02737  0.0  0.122222  0.000115  1.02351  0.0  0.136146  0.115956  -6.3e-05  1.02985  0.0
H  H9  1  0.72682304  0.31745394  0.35899244  1  0.113302  0.000266  0.9614  0.0  0.118546  5e-05  1.027368  0.0  0.122209  0.000115  1.023511  0.0  0.136132  0.115933  -6.3e-05  1.029846  0.0
H  H10  1  0.93102699  0.92248824  0.32550694  1  0.117255  -5e-06  0.942964  0.0  0.124178  -3.3e-05  1.011031  0.0  0.125687  -2.6e-05  1.010198  0.0  0.138613  0.123357  -6.3e-05  1.011884  0.0
H  H11  1  0.07750168  0.06897621  0.17449885  1  0.117319  0.0  0.942982  0.0  0.124229  -3.3e-05  1.011041  0.0  0.125738  -2.7e-05  1.010209  0.0  0.138648  0.123407  -6.3e-05  1.011897  0.0
H  H12  1  0.06897159  0.07750994  0.67449748  1  0.117262  9e-06  0.942914  0.0  0.124158  -3.3e-05  1.011004  0.0  0.125667  -2.7e-05  1.010171  0.0  0.1386  0.123335  -6.3e-05  1.01186  0.0
H  H13  1  0.92249425  0.93102676  0.82550485  1  0.117299  1e-06  0.942936  0.0  0.124219  -3.3e-05  1.010983  0.0  0.125727  -2.7e-05  1.01015  0.0  0.138641  0.123396  -6.3e-05  1.01184  0.0
H  H14  1  0.60901644  0.83189479  0.18416309  1  0.145174  0.000217  0.950217  0.0  0.156441  1e-05  1.023655  0.0  0.158513  5.7e-05  1.02302  0.0  0.097504  0.154956  -4.3e-05  1.024143  0.0
H  H15  1  0.16811777  0.39097398  0.31584205  1  0.145179  0.000219  0.950259  0.0  0.156444  1e-05  1.02369  0.0  0.158512  5.7e-05  1.023067  0.0  0.097526  0.154959  -4.3e-05  1.024173  0.0
H  H16  1  0.39098950  0.16810110  0.81583224  1  0.145212  0.000218  0.950195  0.0  0.156504  1e-05  1.023611  0.0  0.158577  5.7e-05  1.022978  0.0  0.097525  0.155019  -4.3e-05  1.0241  0.0
H  H17  1  0.83188186  0.60902784  0.68415658  1  0.145189  0.000207  0.950246  0.0  0.156454  1e-05  1.023668  0.0  0.158522  5.7e-05  1.023044  0.0  0.097531  0.154968  -4.3e-05  1.02415  0.0
H  H18  1  0.49349500  0.79222184  0.08328116  1  0.13365  -0.000626  0.970498  -0.001  0.144079  -0.000522  1.042492  -0.001  0.146149  -0.000308  1.04199  0.0  0.090454  0.142765  -0.000716  1.042581  -0.001
H  H19  1  0.20777812  0.50650485  0.41672098  1  0.133579  -0.000629  0.970572  -0.001  0.144014  -0.000522  1.042563  -0.001  0.146085  -0.000308  1.04206  0.0  0.090431  0.142694  -0.000716  1.042652  -0.001
H  H20  1  0.50650972  0.20777402  0.91671776  1  0.133672  -0.000625  0.970476  -0.001  0.144115  -0.000522  1.04246  -0.001  0.146185  -0.000308  1.04196  0.0  0.090472  0.142799  -0.000716  1.042549  -0.001
H  H21  1  0.79222275  0.49349578  0.58327868  1  0.133572  -0.000632  0.970594  -0.001  0.144003  -0.000522  1.042584  -0.001  0.146074  -0.000308  1.042081  0.0  0.090429  0.142686  -0.000716  1.042669  -0.001
H  H22  1  0.50524612  0.65028756  0.27144351  1  0.134154  0.000426  0.943766  0.0  0.155361  -7e-06  0.997471  0.0  0.157747  9e-06  0.996787  0.0  0.093518  0.15363  -4.5e-05  0.998034  0.0
H  H23  1  0.34971798  0.49474431  0.22855957  1  0.134108  0.00043  0.943747  0.0  0.155325  -7e-06  0.997449  0.0  0.157711  9e-06  0.996764  0.0  0.0935  0.153593  -4.5e-05  0.998014  0.0
H  H24  1  0.49475837  0.34971312  0.72855283  1  0.134122  0.000429  0.943773  0.0  0.155329  -7e-06  0.997494  0.0  0.157714  1e-05  0.996811  0.0  0.093494  0.153599  -4.5e-05  0.998056  0.0
H  H25  1  0.65028176  0.50525511  0.77144088  1  0.134138  0.000423  0.943728  0.0  0.155334  -7e-06  0.997444  0.0  0.157719  9e-06  0.99676  0.0  0.093505  0.153603  -4.5e-05  0.998009  0.0
C  C26  1  0.05708737  0.94291590  0.24999903  1  0.048133  -0.00102  3.593481  -0.001  -0.03479  -0.000818  3.842598  -0.001  -0.02668  -0.000634  3.85038  -0.001  0.067509  -0.043608  -0.00103  3.83957  -0.001
C  C27  1  0.94290984  0.05708589  0.75000253  1  0.048111  -0.001045  3.593543  -0.001  -0.034783  -0.000818  3.842655  -0.001  -0.026682  -0.000634  3.850451  -0.001  0.067527  -0.043595  -0.00103  3.839627  -0.001
C  C28  1  0.00832152  0.72515789  0.16457256  1  0.18972  0.006309  3.577484  0.003  0.127634  0.00217  3.839095  0.001  0.145057  0.003227  3.849641  0.002  0.173593  0.114717  0.001457  3.833038  0.0
C  C29  1  0.27484510  0.99168228  0.33542503  1  0.19  0.006285  3.577311  0.003  0.127836  0.002171  3.838987  0.001  0.145265  0.00323  3.849527  0.002  0.173695  0.114911  0.001458  3.832913  0.0
C  C30  1  0.99167439  0.27484631  0.83542546  1  0.189713  0.006363  3.577437  0.003  0.127693  0.002169  3.839034  0.001  0.145094  0.003228  3.849538  0.002  0.173605  0.114774  0.001457  3.832979  0.0
C  C31  1  0.72515699  0.00831837  0.66457211  1  0.19  0.006314  3.577415  0.003  0.127838  0.002173  3.83909  0.001  0.145269  0.003227  3.849625  0.002  0.173686  0.114911  0.001458  3.833013  0.0
C  C32  1  0.22388378  0.74818893  0.96207234  1  0.199939  0.003224  3.663461  0.001  0.154921  0.000723  3.943848  0.0  0.16751  0.001485  3.956876  0.0  0.152218  0.147331  0.000119  3.935032  -0.001
C  C33  1  0.25181396  0.77611480  0.53791883  1  0.200021  0.003195  3.663431  0.001  0.155057  0.000721  3.943806  0.0  0.16764  0.001485  3.956836  0.0  0.152317  0.14747  0.000119  3.934976  -0.001
C  C34  1  0.77611207  0.25181647  0.03792530  1  0.200032  0.003257  3.663338  0.001  0.155011  0.000722  3.943742  0.0  0.1676  0.001487  3.956769  0.0  0.152231  0.147423  0.00012  3.934926  -0.001
C  C35  1  0.74818710  0.22388223  0.46207986  1  0.199945  0.003232  3.66342  0.001  0.154968  0.000724  3.943785  0.0  0.167545  0.001483  3.95682  0.0  0.152298  0.147385  0.000119  3.934956  -0.001
C  C36  1  0.72058380  0.66042267  0.06790239  1  0.727927  0.009035  3.834081  0.008  0.69761  0.003364  4.127179  0.004  0.733682  0.003741  4.121578  0.004  0.198564  0.67325  0.002756  4.130027  0.004
C  C37  1  0.33957923  0.27941688  0.43211388  1  0.728037  0.009065  3.834075  0.008  0.697669  0.003362  4.127228  0.004  0.733744  0.003742  4.121619  0.004  0.198544  0.67331  0.002756  4.130066  0.004
C  C38  1  0.27941969  0.33957315  0.93210223  1  0.727871  0.009042  3.834092  0.008  0.697549  0.003363  4.127186  0.004  0.733621  0.00374  4.121589  0.004  0.198542  0.67319  0.002756  4.130034  0.004
C  C39  1  0.66042399  0.72058497  0.56788460  1  0.727988  0.009027  3.833762  0.008  0.697566  0.003364  4.127009  0.004  0.73364  0.003741  4.121402  0.004  0.198462  0.673209  0.002756  4.129849  0.004
C  C40  1  0.57090422  0.73651427  0.15746211  1  -0.46029  -0.008901  3.664961  -0.01  -0.534571  -0.00555  3.898557  -0.006  -0.541935  -0.003688  3.901534  -0.004  -0.255104  -0.529039  -0.006983  3.895952  -0.007
C  C41  1  0.26349046  0.42909283  0.34254331  1  -0.460167  -0.008913  3.665039  -0.01  -0.534419  -0.005548  3.898607  -0.006  -0.541784  -0.003687  3.901583  -0.004  -0.255062  -0.528884  -0.006982  3.895998  -0.007
C  C42  1  0.42910038  0.26348400  0.84253499  1  -0.460322  -0.008913  3.664916  -0.01  -0.534638  -0.005551  3.898502  -0.006  -0.542001  -0.003689  3.901473  -0.004  -0.255121  -0.529103  -0.006984  3.895901  -0.007
C  C43  1  0.73650922  0.57090780  0.65745570  1  -0.460215  -0.008874  3.665037  -0.01  -0.534418  -0.005549  3.89861  -0.006  -0.541779  -0.003686  3.901585  -0.004  -0.25507  -0.528888  -0.006982  3.895996  -0.007
N  N44  1  0.09671947  0.84198554  0.14954549  1  0.02972  -0.001705  3.551416  -0.002  0.115236  -0.001272  3.783557  -0.002  0.102989  -0.000955  3.807474  -0.001  -0.132338  0.126224  -0.001492  3.767523  -0.002
N  N45  1  0.15801322  0.90328000  0.35045185  1  0.029671  -0.001714  3.551352  -0.002  0.11523  -0.001271  3.78348  -0.002  0.102984  -0.000957  3.807394  -0.001  -0.132343  0.12621  -0.001493  3.767465  -0.002
N  N46  1  0.90327667  0.15801384  0.85045618  1  0.02976  -0.00172  3.551384  -0.002  0.115283  -0.001271  3.783486  -0.002  0.103036  -0.000956  3.807412  -0.001  -0.132315  0.126274  -0.001493  3.767447  -0.002
N  N47  1  0.84199011  0.09671945  0.64954846  1  0.029649  -0.00171  3.551278  -0.002  0.115185  -0.001272  3.783436  -0.002  0.102939  -0.000956  3.807348  -0.001  -0.132407  0.12616  -0.001493  3.767427  -0.002
N  N48  1  0.08552204  0.66411885  0.04612817  1  -0.388725  -0.058613  3.291854  -0.076  -0.343347  -0.044303  3.610163  -0.06  -0.377385  -0.036581  3.626304  -0.054  -0.36463  -0.322005  -0.04855  3.601321  -0.063
N  N49  1  0.33588038  0.91448050  0.45386971  1  -0.388886  -0.058604  3.292029  -0.076  -0.343509  -0.044305  3.610344  -0.06  -0.377534  -0.036582  3.626478  -0.054  -0.36473  -0.322172  -0.048551  3.601524  -0.063
N  N50  1  0.91447637  0.33588295  0.95387192  1  -0.38875  -0.058631  3.291937  -0.076  -0.343386  -0.044302  3.610227  -0.06  -0.377425  -0.036582  3.62638  -0.054  -0.364617  -0.322043  -0.04855  3.601384  -0.063
N  N51  1  0.66411934  0.08551889  0.54613392  1  -0.388858  -0.058608  3.292152  -0.076  -0.343467  -0.044303  3.610446  -0.06  -0.377491  -0.03658  3.626582  -0.054  -0.364711  -0.32213  -0.048549  3.601625  -0.063
N  N52  1  0.23434525  0.85899702  0.02113517  1  -0.261804  -0.006036  2.824715  -0.007  -0.250238  -0.003353  3.089986  -0.004  -0.258443  -0.002469  3.103401  -0.003  -0.215086  -0.24658  -0.004262  3.0817  -0.005
N  N53  1  0.14100596  0.76565482  0.47886240  1  -0.261854  -0.006013  2.824739  -0.007  -0.250314  -0.003352  3.090001  -0.004  -0.258518  -0.002469  3.103417  -0.003  -0.215136  -0.246649  -0.004262  3.081704  -0.005
N  N54  1  0.76565076  0.14100476  0.97886679  1  -0.261885  -0.00605  2.82463  -0.007  -0.250335  -0.003353  3.089929  -0.004  -0.25854  -0.00247  3.103343  -0.003  -0.215105  -0.246678  -0.004262  3.081644  -0.005
N  N55  1  0.85899377  0.23434459  0.52113805  1  -0.261807  -0.006041  2.824712  -0.007  -0.250255  -0.003354  3.089975  -0.004  -0.258458  -0.002468  3.103393  -0.003  -0.215098  -0.246591  -0.004261  3.081682  -0.005
O  O56  1  0.78254361  0.53329716  0.15193758  1  -0.609843  -0.106037  1.987185  -0.145  -0.579536  -0.068352  2.255009  -0.102  -0.624911  -0.051575  2.24789  -0.083  -0.329606  -0.54917  -0.079009  2.259713  -0.111
O  O57  1  0.46671230  0.21746271  0.34807070  1  -0.609902  -0.106043  1.987087  -0.145  -0.579593  -0.068353  2.254929  -0.102  -0.624959  -0.051576  2.247798  -0.083  -0.329606  -0.549232  -0.079009  2.259649  -0.111
O  O58  1  0.21745868  0.46669865  0.84806639  1  -0.609755  -0.106048  1.987234  -0.145  -0.579408  -0.068353  2.255002  -0.102  -0.624789  -0.051575  2.247892  -0.083  -0.329536  -0.549039  -0.079012  2.259703  -0.111
O  O59  1  0.53328865  0.78253673  0.65192722  1  -0.609846  -0.106049  1.987019  -0.145  -0.579557  -0.068355  2.254908  -0.102  -0.624923  -0.051577  2.24778  -0.083  -0.329594  -0.549198  -0.07901  2.259631  -0.111
O  O60  1  0.78694981  0.72315689  0.91950963  1  -0.650484  0.000666  1.945644  -0.002  -0.61618  0.001185  2.182115  -0.001  -0.6436  0.002221  2.172495  0.0  -0.330498  -0.597141  0.000224  2.188421  -0.002
O  O61  1  0.27683696  0.21304498  0.58050352  1  -0.650528  0.000657  1.945656  -0.002  -0.616191  0.001186  2.182141  -0.001  -0.643618  0.002221  2.172517  0.0  -0.330472  -0.59715  0.000226  2.188447  -0.002
O  O62  1  0.21305406  0.27683175  0.08049197  1  -0.650498  0.000673  1.945666  -0.002  -0.616209  0.001185  2.182169  -0.001  -0.643629  0.002221  2.172544  0.0  -0.330512  -0.59717  0.000225  2.188477  -0.002
O  O63  1  0.72316508  0.78695688  0.41949218  1  -0.650459  0.000672  1.94535  -0.002  -0.616113  0.001186  2.181861  -0.001  -0.643531  0.002221  2.17224  0.0  -0.330397  -0.597072  0.000226  2.188164  -0.002
