# generated using pymatgen
data_AgH8C10SN4(OF)3
_symmetry_space_group_name_H-M   'P 1'
_cell_length_a   9.07859153
_cell_length_b   11.05526995
_cell_length_c   14.15990000
_cell_angle_alpha   90.00000000
_cell_angle_beta   104.71262736
_cell_angle_gamma   90.00000000
_symmetry_Int_Tables_number   1
_chemical_formula_structural   AgH8C10SN4(OF)3
_chemical_formula_sum   'Ag4 H32 C40 S4 N16 O12 F12'
_cell_volume   1374.57867594
_cell_formula_units_Z   4
loop_
 _symmetry_equiv_pos_site_id
 _symmetry_equiv_pos_as_xyz
  1  'x, y, z'
loop_
 _atom_site_type_symbol
 _atom_site_label
 _atom_site_symmetry_multiplicity
 _atom_site_fract_x
 _atom_site_fract_y
 _atom_site_fract_z
 _atom_site_occupancy
 _atom_site_hle17_bader_spin_density
 _atom_site_hle17_ddec_charge
 _atom_site_hle17_ddec_spin_density
 _atom_site_hle17_ddec_sum_bond_order
 _atom_site_hle17_magmom
 _atom_site_hse06_10hf_bader_spin_density
 _atom_site_hse06_10hf_ddec_charge
 _atom_site_hse06_10hf_ddec_spin_density
 _atom_site_hse06_10hf_ddec_sum_bond_order
 _atom_site_hse06_10hf_magmom
 _atom_site_hse06_bader_spin_density
 _atom_site_hse06_ddec_charge
 _atom_site_hse06_ddec_spin_density
 _atom_site_hse06_ddec_sum_bond_order
 _atom_site_hse06_magmom
 _atom_site_pbe_bader_charge
 _atom_site_pbe_bader_spin_density
 _atom_site_pbe_cm5_charge
 _atom_site_pbe_ddec_charge
 _atom_site_pbe_ddec_spin_density
 _atom_site_pbe_ddec_sum_bond_order
 _atom_site_pbe_magmom
Ag  Ag0  1  0.49428415  0.20001140  0.20729885  1  0  0.490376  0  1.49834  0  0  0.352114  0  1.939609  0  0  0.371084  0  1.900047  0  0.644161  0  0.488725  0.342005  0  1.965657  0
Ag  Ag1  1  0.00571580  0.70001185  0.29270114  1  0  0.490418  0  1.498302  0  0  0.352133  0  1.939569  0  0  0.371101  0  1.900006  0  0.644175  0  0.488731  0.342025  0  1.965617  0
Ag  Ag2  1  0.50571689  0.79998861  0.79270132  1  0  0.490397  0  1.498312  0  0  0.35212  0  1.939589  0  0  0.371087  0  1.900028  0  0.644211  0  0.488729  0.34201  0  1.965639  0
Ag  Ag3  1  0.99428296  0.29998815  0.70729865  1  0  0.49039  0  1.498315  0  0  0.352125  0  1.939583  0  0  0.371093  0  1.900022  0  0.644167  0  0.488732  0.342015  0  1.965631  0
H  H4  1  0.50631022  0.45133588  0.10945836  1  0  0.130006  0  0.921515  0  0  0.145803  0  0.981346  0  0  0.147304  0  0.980409  0  0.087551  0  0.112948  0.14465  0  0.982052  0
H  H5  1  0.99368963  0.95133543  0.39054232  1  0  0.129986  0  0.921542  0  0  0.145759  0  0.981415  0  0  0.147261  0  0.980477  0  0.087528  0  0.112924  0.144602  0  0.982126  0
H  H6  1  0.49368968  0.54866412  0.89054162  1  0  0.130011  0  0.921512  0  0  0.145804  0  0.98135  0  0  0.147304  0  0.980414  0  0.087549  0  0.112946  0.144651  0  0.982056  0
H  H7  1  0.00631027  0.04866457  0.60945767  1  0  0.129991  0  0.921547  0  0  0.145759  0  0.981407  0  0  0.147261  0  0.980468  0  0.087529  0  0.112926  0.144602  0  0.982118  0
H  H8  1  0.35604238  0.54617753  0.04154527  1  0  0.125531  0  0.948828  0  0  0.139276  0  1.009079  0  0  0.141162  0  1.00842  0  0.135943  0  0.106488  0.137882  0  1.009578  0
H  H9  1  0.14395643  0.04617707  0.45845453  1  0  0.12553  0  0.948822  0  0  0.139268  0  1.009087  0  0  0.141162  0  1.00842  0  0.13596  0  0.106501  0.137876  0  1.009584  0
H  H10  1  0.64395524  0.45382248  0.95845434  1  0  0.125548  0  0.948808  0  0  0.139285  0  1.009066  0  0  0.141172  0  1.008406  0  0.135946  0  0.106493  0.137892  0  1.009564  0
H  H11  1  0.85604461  0.95382293  0.54154493  1  0  0.125546  0  0.948793  0  0  0.139269  0  1.009078  0  0  0.141153  0  1.008421  0  0.135958  0  0.106494  0.137876  0  1.009576  0
H  H12  1  0.19691670  0.46584661  0.89165890  1  0  0.106812  0  0.948582  0  0  0.113773  0  1.014485  0  0  0.116993  0  1.012242  0  0.143555  0  0.117405  0.111343  0  1.016339  0
H  H13  1  0.30308325  0.96584616  0.60834109  1  0  0.106785  0  0.948629  0  0  0.113753  0  1.014525  0  0  0.116974  0  1.01228  0  0.143553  0  0.117393  0.111324  0  1.016379  0
H  H14  1  0.80308319  0.53415430  0.10834038  1  0  0.106822  0  0.948589  0  0  0.113768  0  1.014507  0  0  0.11699  0  1.012263  0  0.143565  0  0.117401  0.111338  0  1.016362  0
H  H15  1  0.69691665  0.03415385  0.39165960  1  0  0.106816  0  0.94859  0  0  0.113761  0  1.014507  0  0  0.116983  0  1.012262  0  0.14356  0  0.117396  0.11133  0  1.016364  0
H  H16  1  0.14988747  0.60227023  0.11318339  1  0  0.095604  0  0.94203  0  0  0.103329  0  1.008244  0  0  0.106313  0  1.006209  0  0.11034  0  0.116952  0.101123  0  1.010087  0
H  H17  1  0.35011248  0.10226978  0.38681660  1  0  0.0956  0  0.941995  0  0  0.103327  0  1.008215  0  0  0.10631  0  1.006181  0  0.110351  0  0.116954  0.101121  0  1.010057  0
H  H18  1  0.85011129  0.39772977  0.88681640  1  0  0.095589  0  0.942036  0  0  0.103303  0  1.008256  0  0  0.106284  0  1.006222  0  0.110329  0  0.116954  0.101097  0  1.010099  0
H  H19  1  0.64988856  0.89772932  0.61318357  1  0  0.095622  0  0.942006  0  0  0.103313  0  1.008248  0  0  0.106296  0  1.006213  0  0.110329  0  0.116955  0.101107  0  1.010091  0
H  H20  1  0.12076979  0.44081330  0.37411132  1  0  0.094049  0  0.937949  0  0  0.103393  0  0.998926  0  0  0.105937  0  0.997366  0  0.123884  0  0.120643  0.101468  0  1.000474  0
H  H21  1  0.37923016  0.94081375  0.12588867  1  0  0.094049  0  0.937942  0  0  0.103391  0  0.998923  0  0  0.105936  0  0.997363  0  0.123881  0  0.120643  0.101467  0  1.00047  0
H  H22  1  0.87923011  0.55918580  0.62588866  1  0  0.094073  0  0.937918  0  0  0.103403  0  0.998904  0  0  0.105948  0  0.997346  0  0.123895  0  0.12065  0.101479  0  1.000453  0
H  H23  1  0.62077088  0.05918625  0.87411150  1  0  0.094055  0  0.937946  0  0  0.103394  0  0.998927  0  0  0.10594  0  0.997366  0  0.12389  0  0.120653  0.10147  0  1.000475  0
H  H24  1  0.20950992  0.09786916  0.83108193  1  0  0.10807  0  0.926361  0  0  0.115639  0  0.988244  0  0  0.118701  0  0.985906  0  0.156453  0  0.121958  0.113231  0  0.990532  0
H  H25  1  0.29049003  0.59786871  0.66891806  1  0  0.108078  0  0.926353  0  0  0.115642  0  0.988239  0  0  0.118703  0  0.985902  0  0.156458  0  0.121965  0.113235  0  0.990526  0
H  H26  1  0.79048998  0.90213084  0.16891805  1  0  0.108075  0  0.926358  0  0  0.115642  0  0.988244  0  0  0.118706  0  0.985905  0  0.156456  0  0.121958  0.113235  0  0.990532  0
H  H27  1  0.70951100  0.40213220  0.33108211  1  0  0.108064  0  0.926375  0  0  0.115642  0  0.988256  0  0  0.118707  0  0.985914  0  0.156405  0  0.12196  0.113229  0  0.990542  0
H  H28  1  0.37819837  0.06249689  0.99797965  1  0  0.087977  0  0.951579  0  0  0.095751  0  1.018415  0  0  0.098155  0  1.016696  0  0.125041  0  0.117178  0.094028  0  1.019736  0
H  H29  1  0.12180158  0.56249735  0.50202035  1  0  0.087965  0  0.951562  0  0  0.095753  0  1.018392  0  0  0.098157  0  1.016675  0  0.125055  0  0.117183  0.094031  0  1.019714  0
H  H30  1  0.62180153  0.93750311  0.00201963  1  0  0.087979  0  0.951584  0  0  0.095746  0  1.018423  0  0  0.098147  0  1.016707  0  0.12505  0  0.117174  0.094023  0  1.019745  0
H  H31  1  0.87819946  0.43750266  0.49797982  1  0  0.087936  0  0.951624  0  0  0.09573  0  1.018439  0  0  0.098132  0  1.016722  0  0.125032  0  0.11717  0.094006  0  1.019762  0
H  H32  1  0.34066473  0.30871340  0.36986707  1  0  0.088717  0  0.96186  0  0  0.094404  0  1.030823  0  0  0.097336  0  1.028353  0  0.110414  0  0.113882  0.092058  0  1.033286  0
H  H33  1  0.15933522  0.80871386  0.13013222  1  0  0.088692  0  0.961854  0  0  0.094376  0  1.030827  0  0  0.09731  0  1.028354  0  0.11041  0  0.113859  0.09203  0  1.03329  0
H  H34  1  0.65933403  0.69128660  0.63013203  1  0  0.088733  0  0.961821  0  0  0.094407  0  1.030801  0  0  0.097341  0  1.028329  0  0.110406  0  0.113881  0.092061  0  1.033265  0
H  H35  1  0.84066467  0.19128615  0.86986776  1  0  0.08864  0  0.961766  0  0  0.09432  0  1.030771  0  0  0.097254  0  1.028297  0  0.110401  0  0.113832  0.091973  0  1.033235  0
C  C36  1  0.33016924  0.35588728  0.01032502  1  0  0.234642  0  3.684682  0  0  0.238067  0  3.934454  0  0  0.241787  0  3.955946  0  0.467127  0  0.127325  0.23549  0  3.919452  0
C  C37  1  0.16983071  0.85588774  0.48967497  1  0  0.234698  0  3.684648  0  0  0.238102  0  3.9344  0  0  0.241818  0  3.955894  0  0.467125  0  0.127359  0.23552  0  3.919407  0
C  C38  1  0.66983066  0.64411272  0.98967497  1  0  0.234685  0  3.684688  0  0  0.238105  0  3.934459  0  0  0.241824  0  3.95595  0  0.46684  0  0.127353  0.235528  0  3.919459  0
C  C39  1  0.83017147  0.14411317  0.51032538  1  0  0.234646  0  3.684776  0  0  0.238057  0  3.934541  0  0  0.241773  0  3.956033  0  0.467247  0  0.127353  0.235474  0  3.919547  0
C  C40  1  0.38214101  0.45970022  0.08023027  1  0  -0.276138  0  3.688384  0  0  -0.324933  0  3.92252  0  0  -0.327577  0  3.933304  0  -0.042227  0  -0.153036  -0.322843  0  3.915084  0
C  C41  1  0.11785894  0.95969977  0.41976973  1  0  -0.276022  0  3.688454  0  0  -0.324852  0  3.922565  0  0  -0.327502  0  3.933345  0  -0.042216  0  -0.153024  -0.322758  0  3.915131  0
C  C42  1  0.61785889  0.54029979  0.91976972  1  0  -0.276175  0  3.68837  0  0  -0.324966  0  3.922513  0  0  -0.327611  0  3.933299  0  -0.042237  0  -0.15305  -0.322877  0  3.915078  0
C  C43  1  0.88214096  0.04030024  0.58023026  1  0  -0.276096  0  3.688419  0  0  -0.324849  0  3.922518  0  0  -0.32749  0  3.933305  0  -0.042225  0  -0.153025  -0.322755  0  3.915085  0
C  C44  1  0.23543203  0.37489180  0.91653582  1  0  0.023845  0  3.628423  0  0  -0.00779  0  3.875593  0  0  -0.007573  0  3.893907  0  0.521411  0  0.050816  -0.007912  0  3.863344  0
C  C45  1  0.26456792  0.87489225  0.58346417  1  0  0.023888  0  3.628462  0  0  -0.00777  0  3.87564  0  0  -0.007552  0  3.893951  0  0.521398  0  0.050813  -0.007889  0  3.863391  0
C  C46  1  0.76456787  0.62510821  0.08346345  1  0  0.023795  0  3.628495  0  0  -0.007828  0  3.875677  0  0  -0.00761  0  3.893986  0  0.521673  0  0.050784  -0.007948  0  3.863427  0
C  C47  1  0.73543311  0.12510775  0.41653671  1  0  0.023795  0  3.628527  0  0  -0.007823  0  3.875689  0  0  -0.007604  0  3.893998  0  0.521277  0  0.050777  -0.007941  0  3.863441  0
C  C48  1  0.19073512  0.53501724  0.17021080  1  0  0.030389  0  3.638832  0  0  -0.006874  0  3.898052  0  0  -0.00554  0  3.914207  0  0.519157  0  0.04704  -0.007919  0  3.887573  0
C  C49  1  0.30926483  0.03501678  0.32978848  1  0  0.030485  0  3.638857  0  0  -0.006832  0  3.898057  0  0  -0.005494  0  3.914209  0  0.519181  0  0.047033  -0.007874  0  3.887575  0
C  C50  1  0.80926706  0.46498096  0.82978955  1  0  0.030468  0  3.638695  0  0  -0.006743  0  3.897858  0  0  -0.005404  0  3.914011  0  0.51919  0  0.047081  -0.007785  0  3.887373  0
C  C51  1  0.69073279  0.96498141  0.67021043  1  0  0.030438  0  3.638723  0  0  -0.006755  0  3.897881  0  0  -0.005417  0  3.91403  0  0.519187  0  0.047084  -0.007796  0  3.887396  0
C  C52  1  0.17615009  0.44813379  0.31459186  1  0  0.078304  0  3.671586  0  0  0.046186  0  3.930762  0  0  0.049202  0  3.945632  0  0.489027  0  0.047257  0.043922  0  3.921358  0
C  C53  1  0.32384986  0.94813424  0.18540813  1  0  0.078287  0  3.671506  0  0  0.046175  0  3.93068  0  0  0.049189  0  3.945551  0  0.489036  0  0.04725  0.04391  0  3.921276  0
C  C54  1  0.82384867  0.55186531  0.68540865  1  0  0.078288  0  3.671738  0  0  0.046194  0  3.930903  0  0  0.049207  0  3.94578  0  0.489034  0  0.047254  0.043929  0  3.921499  0
C  C55  1  0.67615118  0.05186576  0.81459204  1  0  0.078248  0  3.671592  0  0  0.046148  0  3.930778  0  0  0.04916  0  3.945653  0  0.48901  0  0.047224  0.043884  0  3.921373  0
C  C56  1  0.96659907  0.19601331  0.11229723  1  0  0.592328  0  3.667531  0  0  0.527843  0  4.028283  0  0  0.555209  0  4.002014  0  1.624224  0  0.283536  0.507834  0  4.047967  0
C  C57  1  0.53340077  0.69601376  0.38770346  1  0  0.592407  0  3.667575  0  0  0.527958  0  4.028298  0  0  0.555317  0  4.002044  0  1.624129  0  0.28358  0.507948  0  4.04798  0
C  C58  1  0.03339969  0.80398489  0.88770328  1  0  0.592215  0  3.667767  0  0  0.52781  0  4.028382  0  0  0.555146  0  4.002178  0  1.62421  0  0.283559  0.507804  0  4.048063  0
C  C59  1  0.46659912  0.30398534  0.61229723  1  0  0.592192  0  3.667804  0  0  0.527809  0  4.028374  0  0  0.555121  0  4.002218  0  1.624185  0  0.283562  0.507806  0  4.048054  0
C  C60  1  0.31043099  0.45745513  0.16518342  1  0  0.246817  0  3.684771  0  0  0.249396  0  3.935101  0  0  0.254354  0  3.953986  0  0.522197  0  0.1287  0.245994  0  3.922223  0
C  C61  1  0.18956782  0.95745468  0.33481568  1  0  0.246575  0  3.685083  0  0  0.249305  0  3.93522  0  0  0.254264  0  3.954104  0  0.522217  0  0.128687  0.245904  0  3.92234  0
C  C62  1  0.68956890  0.54254668  0.83481656  1  0  0.246802  0  3.684813  0  0  0.24936  0  3.935155  0  0  0.254319  0  3.95404  0  0.52222  0  0.128705  0.245959  0  3.922276  0
C  C63  1  0.81043094  0.04254713  0.66518341  1  0  0.246774  0  3.684813  0  0  0.249331  0  3.935134  0  0  0.254289  0  3.954019  0  0.52224  0  0.128696  0.245931  0  3.922254  0
C  C64  1  0.24263400  0.17233591  0.88246818  1  0  0.081103  0  3.653799  0  0  0.051714  0  3.905191  0  0  0.053522  0  3.922736  0  0.511523  0  0.052506  0.050049  0  3.894403  0
C  C65  1  0.25736708  0.67233636  0.61753129  1  0  0.081102  0  3.653822  0  0  0.051725  0  3.905217  0  0  0.053529  0  3.922766  0  0.511539  0  0.052487  0.050058  0  3.894429  0
C  C66  1  0.75736589  0.82766410  0.11753180  1  0  0.081086  0  3.653804  0  0  0.051694  0  3.905196  0  0  0.053501  0  3.922741  0  0.511531  0  0.052501  0.050027  0  3.894409  0
C  C67  1  0.74263395  0.32766364  0.38246817  1  0  0.081139  0  3.653787  0  0  0.05173  0  3.905186  0  0  0.053537  0  3.922733  0  0.511587  0  0.052512  0.050073  0  3.894389  0
C  C68  1  0.33631780  0.15303109  0.97559078  1  0  0.088842  0  3.682517  0  0  0.059749  0  3.939152  0  0  0.062286  0  3.956837  0  0.478669  0  0.051551  0.058071  0  3.92723  0
C  C69  1  0.16368329  0.65303245  0.52440869  1  0  0.088922  0  3.682558  0  0  0.059759  0  3.939199  0  0  0.062293  0  3.956884  0  0.478688  0  0.051543  0.058081  0  3.927276  0
C  C70  1  0.66368210  0.84696892  0.02440849  1  0  0.088826  0  3.682534  0  0  0.059741  0  3.939163  0  0  0.062277  0  3.956848  0  0.478675  0  0.051545  0.058063  0  3.927242  0
C  C71  1  0.83631775  0.34696846  0.47559148  1  0  0.088841  0  3.682565  0  0  0.059734  0  3.939207  0  0  0.06227  0  3.956893  0  0.478687  0  0.051538  0.058056  0  3.927282  0
C  C72  1  0.29772618  0.37324190  0.31139466  1  0  0.095737  0  3.695072  0  0  0.062478  0  3.960945  0  0  0.065983  0  3.976383  0  0.545854  0  0.047849  0.059705  0  3.951407  0
C  C73  1  0.20227263  0.87324236  0.18860515  1  0  0.0958  0  3.694965  0  0  0.062538  0  3.960849  0  0  0.066042  0  3.976288  0  0.545906  0  0.047876  0.059764  0  3.951312  0
C  C74  1  0.70227258  0.62675720  0.68860514  1  0  0.095706  0  3.695084  0  0  0.062434  0  3.960966  0  0  0.065937  0  3.976407  0  0.545863  0  0.047838  0.059661  0  3.95143  0
C  C75  1  0.79772840  0.12675674  0.81139432  1  0  0.095933  0  3.694784  0  0  0.062647  0  3.960679  0  0  0.06615  0  3.976122  0  0.545904  0  0.047956  0.059873  0  3.951143  0
S  S76  1  0.75902631  0.22878591  0.08667554  1  0  1.11344  0  5.863631  0  0  1.010904  0  6.406754  0  0  1.055492  0  6.384918  0  3.272345  0  0.473466  0.98058  0  6.420632  0
S  S77  1  0.74097467  0.72878637  0.41332462  1  0  1.11349  0  5.863647  0  0  1.010921  0  6.406785  0  0  1.055505  0  6.384953  0  3.272412  0  0.47345  0.980594  0  6.420665  0
S  S78  1  0.24097359  0.77121500  0.91332515  1  0  1.113433  0  5.8637  0  0  1.010911  0  6.406792  0  0  1.055503  0  6.384965  0  3.272283  0  0.473451  0.980583  0  6.420671  0
S  S79  1  0.25902636  0.27121454  0.58667484  1  0  1.113454  0  5.863717  0  0  1.010926  0  6.40681  0  0  1.055528  0  6.38498  0  3.272358  0  0.473466  0.980601  0  6.420686  0
N  N80  1  0.12432865  0.53130770  0.24480643  1  0  -0.249065  0  3.255404  0  0  -0.187001  0  3.548153  0  0  -0.196297  0  3.560191  0  -1.19202  0  -0.318416  -0.180826  0  3.540263  0
N  N81  1  0.37567130  0.03130724  0.25519356  1  0  -0.249085  0  3.255411  0  0  -0.187025  0  3.548179  0  0  -0.196322  0  3.560216  0  -1.192028  0  -0.318421  -0.18085  0  3.540289  0
N  N82  1  0.87567011  0.46869321  0.75519266  1  0  -0.249123  0  3.255537  0  0  -0.187087  0  3.54828  0  0  -0.196385  0  3.560321  0  -1.192032  0  -0.318466  -0.18091  0  3.54039  0
N  N83  1  0.62432973  0.96869276  0.74480731  1  0  -0.249136  0  3.255554  0  0  -0.187095  0  3.548296  0  0  -0.196391  0  3.560334  0  -1.19204  0  -0.318468  -0.180918  0  3.540406  0
N  N84  1  0.37888053  0.24368650  0.03975345  1  0  -0.299939  0  3.209915  0  0  -0.241882  0  3.487674  0  0  -0.253447  0  3.50131  0  -1.175976  0  -0.310535  -0.234411  0  3.478031  0
N  N85  1  0.12111941  0.74368514  0.46024654  1  0  -0.300123  0  3.20996  0  0  -0.241953  0  3.487637  0  0  -0.253508  0  3.501263  0  -1.175991  0  -0.310572  -0.23448  0  3.477996  0
N  N86  1  0.62111936  0.75631441  0.96024583  1  0  -0.29994  0  3.209887  0  0  -0.241873  0  3.487638  0  0  -0.253431  0  3.501267  0  -1.175994  0  -0.310536  -0.234403  0  3.477996  0
N  N87  1  0.87888162  0.25631486  0.53975363  1  0  -0.299923  0  3.209924  0  0  -0.241862  0  3.487692  0  0  -0.253421  0  3.501322  0  -1.176019  0  -0.310538  -0.234391  0  3.478051  0
N  N88  1  0.19112688  0.28357517  0.85322292  1  0  -0.230736  0  3.234186  0  0  -0.166502  0  3.51369  0  0  -0.176219  0  3.527733  0  -1.177397  0  -0.308325  -0.160174  0  3.504466  0
N  N89  1  0.30887421  0.78357562  0.64677726  1  0  -0.230772  0  3.234201  0  0  -0.16652  0  3.51368  0  0  -0.176236  0  3.527721  0  -1.17743  0  -0.308309  -0.160192  0  3.504457  0
N  N90  1  0.80887188  0.71642484  0.14677688  1  0  -0.230722  0  3.234199  0  0  -0.166483  0  3.513694  0  0  -0.1762  0  3.527736  0  -1.177384  0  -0.308313  -0.160157  0  3.504472  0
N  N91  1  0.69112797  0.21642439  0.35322310  1  0  -0.23074  0  3.2342  0  0  -0.166494  0  3.513684  0  0  -0.176212  0  3.527727  0  -1.177387  0  -0.308316  -0.160168  0  3.504458  0
N  N92  1  0.36502777  0.37788856  0.23748152  1  0  -0.31024  0  3.199599  0  0  -0.258312  0  3.487074  0  0  -0.268696  0  3.498359  0  -1.177175  0  -0.317316  -0.250995  0  3.479513  0
N  N93  1  0.13497104  0.87788901  0.26251758  1  0  -0.31015  0  3.199663  0  0  -0.258269  0  3.487087  0  0  -0.268653  0  3.498371  0  -1.177258  0  -0.317281  -0.250951  0  3.479526  0
N  N94  1  0.63497326  0.62210964  0.76251865  1  0  -0.310192  0  3.199695  0  0  -0.258251  0  3.487152  0  0  -0.268637  0  3.498441  0  -1.1772  0  -0.317298  -0.250933  0  3.47959  0
N  N95  1  0.86502772  0.12211009  0.73748151  1  0  -0.310252  0  3.199624  0  0  -0.258307  0  3.487089  0  0  -0.268693  0  3.498378  0  -1.177233  0  -0.317327  -0.25099  0  3.479528  0
O  O96  1  0.71601716  0.25276995  0.98180995  1  0  -0.613192  0  1.998067  0  0  -0.577786  0  2.249254  0  0  -0.597497  0  2.238559  0  -1.322432  0  -0.339176  -0.563997  0  2.255861  0
O  O97  1  0.78398611  0.75277040  0.51818987  1  0  -0.613183  0  1.998035  0  0  -0.577763  0  2.249231  0  0  -0.597469  0  2.238536  0  -1.322469  0  -0.339153  -0.56397  0  2.255838  0
O  O98  1  0.28398274  0.74723096  0.01818932  1  0  -0.613076  0  1.998049  0  0  -0.577748  0  2.24929  0  0  -0.597458  0  2.238595  0  -1.322461  0  -0.339144  -0.563955  0  2.255898  0
O  O99  1  0.21601835  0.24723051  0.48181085  1  0  -0.613078  0  1.998066  0  0  -0.577748  0  2.249312  0  0  -0.597457  0  2.238615  0  -1.32246  0  -0.339131  -0.563957  0  2.255919  0
O  O100  1  0.75258507  0.33388692  0.14793504  1  0  -0.60862  0  1.980281  0  0  -0.578075  0  2.237504  0  0  -0.596055  0  2.223603  0  -1.322743  0  -0.339183  -0.5657  0  2.24665  0
O  O101  1  0.74741477  0.83388647  0.35206564  1  0  -0.608689  0  1.980354  0  0  -0.578113  0  2.237546  0  0  -0.596094  0  2.223655  0  -1.322787  0  -0.339189  -0.565734  0  2.246692  0
O  O102  1  0.24741482  0.66611218  0.85206494  1  0  -0.608658  0  1.980271  0  0  -0.578106  0  2.237482  0  0  -0.596066  0  2.223546  0  -1.322684  0  -0.339202  -0.565726  0  2.246628  0
O  O103  1  0.25258512  0.16611263  0.64793505  1  0  -0.608662  0  1.980299  0  0  -0.578111  0  2.237497  0  0  -0.59609  0  2.223595  0  -1.322733  0  -0.339197  -0.565733  0  2.246643  0
O  O104  1  0.69873765  0.11611838  0.11629527  1  0  -0.617339  0  2.017837  0  0  -0.578408  0  2.28597  0  0  -0.597542  0  2.271299  0  -1.317745  0  -0.342088  -0.565376  0  2.295544  0
O  O105  1  0.80126220  0.61611793  0.38370471  1  0  -0.617355  0  2.017833  0  0  -0.578427  0  2.285978  0  0  -0.597561  0  2.271308  0  -1.317747  0  -0.342096  -0.565393  0  2.29555  0
O  O106  1  0.30126111  0.88388163  0.88370382  1  0  -0.617366  0  2.017892  0  0  -0.578422  0  2.286003  0  0  -0.597558  0  2.271332  0  -1.317776  0  -0.342084  -0.565391  0  2.295578  0
O  O107  1  0.19873770  0.38388208  0.61629598  1  0  -0.617363  0  2.017863  0  0  -0.578416  0  2.285981  0  0  -0.597553  0  2.271307  0  -1.317758  0  -0.342117  -0.565386  0  2.295555  0
F  F108  1  0.04152070  0.28939230  0.08162447  1  0  -0.246216  0  1.210942  0  0  -0.204833  0  1.378293  0  0  -0.215708  0  1.366283  0  -0.622726  0  -0.103101  -0.197013  0  1.386638  0
F  F109  1  0.45847811  0.78939185  0.41837605  1  0  -0.246212  0  1.210954  0  0  -0.20486  0  1.378326  0  0  -0.215737  0  1.366321  0  -0.622698  0  -0.103098  -0.197041  0  1.38667  0
F  F110  1  0.95847806  0.71060499  0.91837533  1  0  -0.246164  0  1.211009  0  0  -0.204824  0  1.37834  0  0  -0.215701  0  1.366346  0  -0.622697  0  -0.103111  -0.197007  0  1.386684  0
F  F111  1  0.54152065  0.21060635  0.58162446  1  0  -0.246136  0  1.211024  0  0  -0.204789  0  1.378337  0  0  -0.215655  0  1.366355  0  -0.622708  0  -0.103086  -0.196973  0  1.386681  0
F  F112  1  0.99407683  0.09465169  0.06510448  1  0  -0.23393  0  1.20554  0  0  -0.194652  0  1.371907  0  0  -0.204908  0  1.358814  0  -0.621078  0  -0.10065  -0.187214  0  1.380943  0
F  F113  1  0.50592416  0.59465124  0.43489639  1  0  -0.233987  0  1.205534  0  0  -0.194707  0  1.3719  0  0  -0.204965  0  1.358812  0  -0.621015  0  -0.100683  -0.187271  0  1.380935  0
F  F114  1  0.00592193  0.90534650  0.93489673  1  0  -0.23395  0  1.205533  0  0  -0.194671  0  1.371859  0  0  -0.20492  0  1.35878  0  -0.621056  0  -0.100669  -0.187233  0  1.380894  0
F  F115  1  0.49407802  0.40534786  0.56510397  1  0  -0.233955  0  1.205512  0  0  -0.194694  0  1.37184  0  0  -0.204938  0  1.358772  0  -0.621059  0  -0.100696  -0.18726  0  1.380875  0
F  F116  1  0.02896621  0.18006345  0.20929720  1  0  -0.227187  0  1.201513  0  0  -0.182755  0  1.360043  0  0  -0.193752  0  1.347933  0  -0.617384  0  -0.094389  -0.175042  0  1.368979  0
F  F117  1  0.47103374  0.68006480  0.29070350  1  0  -0.22721  0  1.201555  0  0  -0.182784  0  1.360092  0  0  -0.193769  0  1.347976  0  -0.61735  0  -0.094398  -0.175072  0  1.369028  0
F  F118  1  0.97103369  0.81993656  0.79070420  1  0  -0.227141  0  1.201609  0  0  -0.18274  0  1.360135  0  0  -0.193723  0  1.348031  0  -0.61736  0  -0.094391  -0.175027  0  1.369071  0
F  F119  1  0.52896616  0.31993520  0.70929648  1  0  -0.227156  0  1.201623  0  0  -0.18276  0  1.360133  0  0  -0.193734  0  1.348037  0  -0.617365  0  -0.094398  -0.175052  0  1.369066  0
