# generated using pymatgen
data_CoH22C37Br2N2(ClO2)2
_symmetry_space_group_name_H-M   'P 1'
_cell_length_a   8.96943896
_cell_length_b   15.62081712
_cell_length_c   16.72554832
_cell_angle_alpha   113.94952427
_cell_angle_beta   91.52283460
_cell_angle_gamma   91.12491555
_symmetry_Int_Tables_number   1
_chemical_formula_structural   CoH22C37Br2N2(ClO2)2
_chemical_formula_sum   'Co2 H44 C74 Br4 N4 Cl4 O8'
_cell_volume   2139.71233877
_cell_formula_units_Z   2
loop_
 _symmetry_equiv_pos_site_id
 _symmetry_equiv_pos_as_xyz
  1  'x, y, z'
loop_
 _atom_site_type_symbol
 _atom_site_label
 _atom_site_symmetry_multiplicity
 _atom_site_fract_x
 _atom_site_fract_y
 _atom_site_fract_z
 _atom_site_occupancy
 _atom_site_pbe_bader_charge
 _atom_site_pbe_bader_spin_density
 _atom_site_pbe_cm5_charge
 _atom_site_pbe_ddec_charge
 _atom_site_pbe_ddec_spin_density
 _atom_site_pbe_ddec_sum_bond_order
 _atom_site_pbe_magmom
Co  Co0  1  0.55218280  0.23147143  0.47948255  1  1.06321  2.48383  0.531983  0.643422  2.741346  2.922498  2.418
Co  Co1  1  0.44781632  0.76852917  0.52051840  1  1.063214  2.483822  0.531988  0.643457  2.741347  2.922484  2.418
H  H2  1  0.77539396  0.27821463  0.62406640  1  0.122488  0.00288  0.122986  0.097142  0.001245  0.998518  0.002
H  H3  1  0.22460940  0.72178102  0.37592983  1  0.122566  0.00288  0.122979  0.097133  0.001245  0.998606  0.002
H  H4  1  0.88525353  0.57299391  0.71293966  1  0.144626  -5.6e-05  0.114173  0.116169  -0.000158  1.009256  0.0
H  H5  1  0.11473315  0.42700467  0.28706451  1  0.144482  -5.6e-05  0.114155  0.116166  -0.000158  1.009307  0.0
H  H6  1  0.72357066  0.57279483  0.58580688  1  0.129326  0.001986  0.100271  0.121207  0.000919  1.032105  0.001
H  H7  1  0.27642619  0.42720508  0.41419378  1  0.129184  0.001986  0.10026  0.121192  0.000919  1.032073  0.001
H  H8  1  0.59724753  0.42099428  0.48435844  1  0.131265  0.002956  0.112914  0.088912  0.00104  1.017007  0.001
H  H9  1  0.40275364  0.57900281  0.51564066  1  0.131198  0.002956  0.112897  0.088883  0.00104  1.017031  0.001
H  H10  1  0.89129258  0.39270958  0.91126425  1  0.106991  9e-06  0.101672  0.112623  4e-06  1.033249  0.0
H  H11  1  0.10870500  0.60728335  0.08873506  1  0.107199  9e-06  0.101684  0.112748  4e-06  1.033109  0.0
H  H12  1  0.03950802  0.35924003  0.02233750  1  0.078621  2e-06  0.104168  0.10984  1e-06  1.015192  0.0
H  H13  1  0.96049066  0.64075140  0.97765650  1  0.078561  3e-06  0.104199  0.109871  1e-06  1.015104  0.0
H  H14  1  0.35524235  0.21264334  0.82786591  1  0.087306  4.7e-05  0.098064  0.101813  3.5e-05  1.030228  0.0
H  H15  1  0.64476038  0.78736142  0.17213364  1  0.087322  4.7e-05  0.098063  0.101778  3.5e-05  1.030196  0.0
H  H16  1  0.21100346  0.25095277  0.71775982  1  0.072431  0.000558  0.10415  0.124954  0.00027  1.007061  0.0
H  H17  1  0.78900156  0.74905267  0.28223882  1  0.072541  0.000559  0.104177  0.125008  0.00027  1.007092  0.0
H  H18  1  0.24373624  0.46505734  0.10361969  1  0.110315  -0.0  0.099678  0.117041  -4e-06  1.039268  0.0
H  H19  1  0.75625946  0.53494262  0.89638396  1  0.110336  -0.0  0.099659  0.117016  -4e-06  1.03939  0.0
H  H20  1  0.70856992  0.55560172  0.13501251  1  0.086706  2e-06  0.0965  0.10949  -5e-06  1.045592  0.0
H  H21  1  0.29142919  0.44439815  0.86498638  1  0.086702  2e-06  0.096524  0.109503  -5e-06  1.045554  0.0
H  H22  1  0.78360486  0.39178980  0.05506919  1  0.058851  2e-06  0.10383  0.113053  1e-06  1.003465  0.0
H  H23  1  0.21639316  0.60821004  0.94492788  1  0.058884  2e-06  0.103825  0.113056  1e-06  1.00353  0.0
H  H24  1  0.80097443  0.20752076  0.96576246  1  0.090066  -0.0  0.10007  0.103366  -1e-06  1.022021  0.0
H  H25  1  0.19902725  0.79248391  0.03423225  1  0.090179  -0.0  0.100084  0.103378  -1e-06  1.022009  0.0
H  H26  1  0.76010235  0.03452591  0.88996786  1  0.106849  5e-06  0.100711  0.122931  2e-06  1.026484  0.0
H  H27  1  0.23990592  0.96547739  0.11002826  1  0.106877  5e-06  0.100695  0.122936  2e-06  1.026427  0.0
H  H28  1  0.28281128  0.06533781  0.91388927  1  0.083074  -1e-05  0.100665  0.118729  -1e-05  1.023077  0.0
H  H29  1  0.71719329  0.93466072  0.08611221  1  0.083033  -1e-05  0.100644  0.118697  -1e-05  1.023108  0.0
H  H30  1  0.05157452  0.15562527  0.96437022  1  0.117843  -0.0  0.102029  0.107964  -0.0  1.024211  0.0
H  H31  1  0.94842992  0.84437042  0.03562844  1  0.117864  -0.0  0.102009  0.10795  -0.0  1.024144  0.0
H  H32  1  0.90483969  0.10594647  0.06240000  1  0.100001  3.9e-05  0.109675  0.126949  1.8e-05  0.997853  0.0
H  H33  1  0.09516268  0.89405126  0.93759637  1  0.100055  3.9e-05  0.10968  0.127002  1.9e-05  0.997805  0.0
H  H34  1  0.20687610  0.26614779  0.27827235  1  0.124477  0.001535  0.095287  0.128316  0.000853  1.027887  0.0
H  H35  1  0.79311608  0.73384713  0.72172221  1  0.124382  0.001535  0.095259  0.128298  0.000853  1.027905  0.0
H  H36  1  0.35026256  0.32075074  0.18095330  1  0.085295  0.000181  0.101655  0.107514  0.000103  1.001468  0.0
H  H37  1  0.64973344  0.67925407  0.81904913  1  0.085075  0.000181  0.101672  0.107487  0.000103  1.001481  0.0
H  H38  1  0.77274441  0.20491696  0.34379080  1  0.118105  0.002868  0.124558  0.096863  0.001239  0.994481  0.002
H  H39  1  0.22725706  0.79508649  0.65621362  1  0.118169  0.002868  0.124515  0.096818  0.001239  0.994577  0.002
H  H40  1  0.59575622  0.03755894  0.45974255  1  0.131953  0.003074  0.112766  0.089199  0.001158  1.021214  0.001
H  H41  1  0.40424861  0.96244600  0.54026727  1  0.132216  0.003073  0.112725  0.089127  0.001158  1.021322  0.001
H  H42  1  0.73106805  0.89898049  0.36188775  1  0.11525  0.00266  0.100631  0.12417  0.001382  1.034746  0.001
H  H43  1  0.26893226  0.10102228  0.63811701  1  0.115188  0.002659  0.100619  0.124148  0.001382  1.034719  0.001
H  H44  1  0.89695266  0.91632465  0.24769646  1  0.124191  -9e-06  0.114424  0.116372  -0.000108  1.001583  0.0
H  H45  1  0.10304442  0.08367945  0.75230514  1  0.12435  -9e-06  0.114436  0.116421  -0.000108  1.001512  0.0
C  C46  1  0.76896856  0.34433358  0.61701531  1  0.468912  -0.001923  0.058527  0.078998  -0.001922  3.904509  -0.001
C  C47  1  0.23102701  0.65566354  0.38298550  1  0.469069  -0.001924  0.058522  0.079028  -0.001922  3.90468  -0.001
C  C48  1  0.84462826  0.42524276  0.67608100  1  0.031915  0.004989  -0.009737  -0.086398  0.002483  4.004361  0.004
C  C49  1  0.15536613  0.57475295  0.32391807  1  0.031392  0.00499  -0.009675  -0.086501  0.002484  4.004621  0.004
C  C50  1  0.82918581  0.50921323  0.66584180  1  -0.045069  -0.006989  -0.05013  -0.024897  -0.006615  3.888543  -0.004
C  C51  1  0.17081196  0.49078320  0.33415879  1  -0.044699  -0.006989  -0.0501  -0.024839  -0.006615  3.888699  -0.004
C  C52  1  0.74063173  0.50894021  0.59603019  1  -0.006318  0.005103  -0.077424  -0.113824  0.002579  3.940413  0.004
C  C53  1  0.25936069  0.49106116  0.40397451  1  -0.00649  0.005102  -0.077439  -0.113807  0.002578  3.940283  0.004
C  C54  1  0.66911309  0.42555773  0.53970623  1  0.442153  -0.002806  0.054418  0.10287  -0.002746  3.892661  -0.001
C  C55  1  0.33088939  0.57444285  0.46029358  1  0.442084  -0.002805  0.054457  0.102919  -0.002746  3.892525  -0.001
C  C56  1  0.93707449  0.42522193  0.75122353  1  1.500146  0.000748  0.242331  0.522476  0.000384  4.115082  0.0
C  C57  1  0.06292542  0.57477311  0.24877780  1  1.500438  0.000748  0.242367  0.522614  0.000384  4.115036  0.0
C  C58  1  0.04347695  0.32227406  0.80854854  1  0.3188  4.6e-05  0.074036  0.251202  1.8e-05  4.033344  0.0
C  C59  1  0.95652631  0.67772096  0.19145164  1  0.318407  4.6e-05  0.074047  0.251169  1.8e-05  4.033295  0.0
C  C60  1  0.99354700  0.35388600  0.89373901  1  -0.010769  1.3e-05  -0.098045  -0.182934  6e-06  3.999105  0.0
C  C61  1  0.00645055  0.64610621  0.10625943  1  -0.010546  1.3e-05  -0.098068  -0.183098  6e-06  3.999079  0.0
C  C62  1  0.07663378  0.33395251  0.95528192  1  0.006193  1.6e-05  -0.087422  -0.11342  7e-06  3.973158  0.0
C  C63  1  0.92336645  0.66604735  0.04471639  1  0.005898  1.6e-05  -0.087426  -0.113413  7e-06  3.972982  0.0
C  C64  1  0.20717716  0.28242038  0.93251621  1  -0.06235  -1e-06  -0.003185  0.066682  -6e-06  3.913485  0.0
C  C65  1  0.79282296  0.71757813  0.06748459  1  -0.061922  -1e-06  -0.003172  0.066736  -6e-06  3.913517  0.0
C  C66  1  0.25344889  0.25161184  0.84646913  1  -0.027982  1.8e-05  -0.092606  -0.123096  1.5e-05  4.016558  0.0
C  C67  1  0.74655371  0.74839084  0.15353085  1  -0.028007  1.8e-05  -0.092627  -0.123063  1.5e-05  4.016468  0.0
C  C68  1  0.17260665  0.27191336  0.78419079  1  0.019527  0.000311  -0.098031  -0.186541  0.000181  3.996809  0.0
C  C69  1  0.82739598  0.72809003  0.21581005  1  0.019504  0.000311  -0.098051  -0.186634  0.000181  3.99684  0.0
C  C70  1  0.30298827  0.26851428  0.00329780  1  0.031372  2.7e-05  0.012376  0.009666  1e-05  3.829866  0.0
C  C71  1  0.69701078  0.73148492  0.99670204  1  0.031049  2.7e-05  0.01237  0.009674  1e-05  3.82978  0.0
C  C72  1  0.40390780  0.35674529  0.04682730  1  -0.03049  2.4e-05  -0.002373  0.042524  5e-06  3.907746  0.0
C  C73  1  0.59609684  0.64325539  0.95317797  1  -0.030608  2.4e-05  -0.002488  0.042457  5e-06  3.907805  0.0
C  C74  1  0.36068933  0.44828203  0.09215903  1  -0.007638  6.7e-05  -0.102328  -0.194039  2.3e-05  3.997253  0.0
C  C75  1  0.63930873  0.55171849  0.90783709  1  -0.007489  6.7e-05  -0.102188  -0.193921  2.3e-05  3.99734  0.0
C  C76  1  0.47279474  0.51857462  0.12325457  1  -0.153483  9.6e-05  -0.018538  0.111231  4.4e-05  3.974687  0.0
C  C77  1  0.52720766  0.48142532  0.87674859  1  -0.153591  9.6e-05  -0.01861  0.111206  4.4e-05  3.974693  0.0
C  C78  1  0.62394048  0.49927826  0.10992388  1  -0.044118  4e-06  -0.099459  -0.135717  -7e-06  3.993483  0.0
C  C79  1  0.37605980  0.50072230  0.89007409  1  -0.044082  4e-06  -0.09944  -0.135687  -7e-06  3.993397  0.0
C  C80  1  0.66557840  0.40678313  0.06420727  1  0.043719  -1.1e-05  -0.087349  -0.102883  -1.1e-05  3.962514  0.0
C  C81  1  0.33442192  0.59321811  0.93579035  1  0.043635  -1.1e-05  -0.087378  -0.103007  -1.1e-05  3.962459  0.0
C  C82  1  0.55537787  0.33521723  0.03216157  1  -0.014144  2.3e-05  -0.013627  0.013705  8e-06  4.027652  0.0
C  C83  1  0.44462592  0.66478535  0.96783301  1  -0.014039  2.3e-05  -0.013587  0.013794  8e-06  4.027474  0.0
C  C84  1  0.56508842  0.23388055  0.98297720  1  0.047705  1.6e-05  -0.016163  0.008415  5e-06  4.033464  0.0
C  C85  1  0.43491297  0.76612075  0.01702345  1  0.047586  1.6e-05  -0.016193  0.008302  5e-06  4.033598  0.0
C  C86  1  0.68795864  0.17696577  0.95451906  1  -0.022267  -3.7e-05  -0.0893  -0.102272  -3.6e-05  3.977198  0.0
C  C87  1  0.31204524  0.82303818  0.04547424  1  -0.022247  -3.7e-05  -0.089279  -0.102234  -3.6e-05  3.977227  0.0
C  C88  1  0.66528283  0.07983431  0.91188739  1  -0.035695  9e-06  -0.101779  -0.150027  1e-06  3.996926  0.0
C  C89  1  0.33472310  0.92016764  0.08811119  1  -0.035592  9e-06  -0.101822  -0.150078  1e-06  3.99702  0.0
C  C90  1  0.51973918  0.04138611  0.89845901  1  -0.107849  5.9e-05  -0.020144  0.110844  2.6e-05  3.990063  0.0
C  C91  1  0.48026992  0.95861308  0.10154041  1  -0.108286  5.9e-05  -0.020064  0.110935  2.6e-05  3.990103  0.0
C  C92  1  0.39496517  0.09699951  0.92457886  1  -0.06651  4.6e-05  -0.102419  -0.193954  9e-06  3.998443  0.0
C  C93  1  0.60503844  0.90300105  0.07541976  1  -0.066271  4.6e-05  -0.102429  -0.193986  9e-06  3.998645  0.0
C  C94  1  0.41953806  0.19336417  0.96624045  1  0.002251  3.1e-05  -0.002506  0.041287  1.2e-05  3.91632  0.0
C  C95  1  0.58046004  0.80663782  0.03375980  1  0.00231  3.1e-05  -0.002477  0.041357  1.2e-05  3.916321  0.0
C  C96  1  0.20900641  0.24382604  0.06628532  1  -0.053032  3.8e-05  -0.00648  0.061149  7e-06  3.930166  0.0
C  C97  1  0.79099026  0.75617035  0.93371345  1  -0.053456  3.8e-05  -0.006523  0.061024  7e-06  3.930114  0.0
C  C98  1  0.08464538  0.18212685  0.03360515  1  -0.054049  1.9e-05  -0.090043  -0.11791  1e-06  3.980862  0.0
C  C99  1  0.91534927  0.81787302  0.96639305  1  -0.053522  1.9e-05  -0.09002  -0.117844  1e-06  3.980688  0.0
C  C100  1  0.00217476  0.15300338  0.08798812  1  -0.0813  8.9e-05  -0.094122  -0.175617  4.5e-05  3.988015  0.0
C  C101  1  0.99783285  0.84698878  0.91200811  1  -0.081786  8.9e-05  -0.094175  -0.175758  4.5e-05  3.988117  0.0
C  C102  1  0.04718248  0.18576931  0.17590245  1  0.366562  0.000159  0.074434  0.25078  4.1e-05  4.034306  0.0
C  C103  1  0.95281772  0.81422985  0.82409500  1  0.366721  0.000159  0.074404  0.250694  4.1e-05  4.034527  0.0
C  C104  1  0.17150731  0.24526635  0.20995406  1  -0.007717  0.001757  -0.102462  -0.189628  0.000995  4.006527  0.001
C  C105  1  0.82848198  0.75473699  0.79004353  1  -0.007883  0.001757  -0.102395  -0.189597  0.000995  4.006427  0.001
C  C106  1  0.25193795  0.27448945  0.15476545  1  0.009217  0.0001  -0.09151  -0.113592  8.7e-05  3.997291  0.0
C  C107  1  0.74806532  0.72550482  0.84523146  1  0.009765  0.0001  -0.091523  -0.113451  8.7e-05  3.997227  0.0
C  C108  1  0.94241100  0.07204883  0.22115301  1  1.513167  0.000746  0.245787  0.525802  0.000387  4.108744  0.0
C  C109  1  0.05758503  0.92795669  0.77885028  1  1.513359  0.000746  0.245748  0.525719  0.000387  4.108849  0.0
C  C110  1  0.84796173  0.06213944  0.28869607  1  -0.037374  0.005169  -0.009886  -0.087175  0.002577  4.010247  0.004
C  C111  1  0.15203866  0.93786396  0.71130532  1  -0.037138  0.005169  -0.009854  -0.087052  0.002577  4.010154  0.004
C  C112  1  0.76796057  0.13634572  0.34624380  1  0.510446  -0.00098  0.058618  0.076059  -0.001098  3.913725  0.0
C  C113  1  0.23204546  0.86365910  0.65375942  1  0.509927  -0.00098  0.058703  0.076098  -0.001098  3.913792  0.0
C  C114  1  0.66876611  0.04201777  0.41039219  1  0.428444  -0.00208  0.058257  0.112327  -0.002097  3.876164  -0.001
C  C115  1  0.33123979  0.95798572  0.58961412  1  0.428195  -0.002079  0.058342  0.112463  -0.002096  3.876152  -0.001
C  C116  1  0.74539959  0.96511154  0.35528736  1  0.028644  0.006125  -0.077205  -0.11126  0.003161  3.933351  0.005
C  C117  1  0.25460618  0.03488913  0.64471733  1  0.028484  0.006125  -0.077236  -0.111182  0.003161  3.93312  0.005
C  C118  1  0.83601634  0.97475756  0.29309013  1  -0.00069  -0.005832  -0.050562  -0.026645  -0.005594  3.899294  -0.004
C  C119  1  0.16397622  0.02524513  0.70691027  1  -0.000558  -0.005832  -0.050585  -0.026833  -0.005594  3.899169  -0.004
Br  Br120  1  0.41607546  0.64469073  0.18706356  1  -0.076354  0.000598  0.049899  -0.046818  0.000202  1.545621  0.0
Br  Br121  1  0.58392482  0.35531132  0.81294034  1  -0.076301  0.000597  0.049921  -0.046792  0.000202  1.545655  0.0
Br  Br122  1  0.49060546  0.90867616  0.84351923  1  -0.065977  0.0003  0.033177  -0.050263  -3e-05  1.479095  0.0
Br  Br123  1  0.50940482  0.09132443  0.15648133  1  -0.065996  0.0003  0.033171  -0.050265  -3e-05  1.479026  0.0
N  N124  1  0.68182512  0.34449167  0.55027120  1  -1.238933  0.071398  -0.337396  -0.222419  0.037565  3.639576  0.051
N  N125  1  0.31817402  0.65550891  0.44972795  1  -1.23887  0.071397  -0.337441  -0.222471  0.037564  3.63956  0.051
N  N126  1  0.67943241  0.12657065  0.40602806  1  -1.230384  0.071993  -0.336795  -0.224263  0.037914  3.642345  0.05
N  N127  1  0.32057457  0.87343139  0.59397536  1  -1.230307  0.071992  -0.336837  -0.224314  0.037914  3.642193  0.05
Cl  Cl128  1  0.44684189  0.18738935  0.57462621  1  -0.624488  0.173609  -0.326245  -0.507776  0.090868  1.194025  0.113
Cl  Cl129  1  0.55314842  0.81261337  0.42537535  1  -0.624472  0.173614  -0.326247  -0.507794  0.090871  1.194045  0.113
Cl  Cl130  1  0.41769361  0.27268376  0.38986941  1  -0.621934  0.171952  -0.316352  -0.504281  0.090076  1.23109  0.112
Cl  Cl131  1  0.58230536  0.72731329  0.61012725  1  -0.621947  0.171958  -0.316346  -0.504283  0.090078  1.231102  0.112
O  O132  1  0.98530477  0.49570124  0.81240396  1  -1.133821  0.001122  -0.262644  -0.443283  0.000586  2.140508  0.001
O  O133  1  0.01468204  0.50429867  0.18759651  1  -1.133631  0.001123  -0.262651  -0.443377  0.000586  2.140325  0.001
O  O134  1  0.96143027  0.33580339  0.74213591  1  -1.076877  5e-05  -0.142617  -0.256906  -5.2e-05  2.565467  0.0
O  O135  1  0.03857292  0.66419173  0.25787029  1  -1.076677  5e-05  -0.142682  -0.256858  -5.2e-05  2.565407  0.0
O  O136  1  0.96350748  0.16374871  0.23545474  1  -1.083296  9.1e-05  -0.13973  -0.251083  -4.4e-05  2.549533  0.0
O  O137  1  0.03648835  0.83625182  0.76454194  1  -1.083372  9.1e-05  -0.139718  -0.251056  -4.4e-05  2.549679  0.0
O  O138  1  0.99446272  0.00606248  0.16110616  1  -1.137515  0.001138  -0.258103  -0.445151  0.000596  2.16052  0.001
O  O139  1  0.00552392  0.99393391  0.83889182  1  -1.137605  0.001137  -0.258053  -0.445047  0.000595  2.16079  0.001
