# generated using pymatgen
data_Zn4H6C12N6O7
_symmetry_space_group_name_H-M   'P 1'
_cell_length_a   14.34099402
_cell_length_b   14.34097367
_cell_length_c   14.34098467
_cell_angle_alpha   59.99974659
_cell_angle_beta   59.99975432
_cell_angle_gamma   59.99975584
_symmetry_Int_Tables_number   1
_chemical_formula_structural   Zn4H6C12N6O7
_chemical_formula_sum   'Zn8 H12 C24 N12 O14'
_cell_volume   2085.54433918
_cell_formula_units_Z   2
loop_
 _symmetry_equiv_pos_site_id
 _symmetry_equiv_pos_as_xyz
  1  'x, y, z'
loop_
 _atom_site_type_symbol
 _atom_site_label
 _atom_site_symmetry_multiplicity
 _atom_site_fract_x
 _atom_site_fract_y
 _atom_site_fract_z
 _atom_site_occupancy
 _atom_site_pbe_bader_charge
 _atom_site_pbe_bader_spin_density
 _atom_site_pbe_cm5_charge
 _atom_site_pbe_ddec_charge
 _atom_site_pbe_ddec_spin_density
 _atom_site_pbe_ddec_sum_bond_order
 _atom_site_pbe_magmom
Zn  Zn0  1  0.80568789  0.80568787  0.80568770  1  1.200213  0  0.698184  0.652902  0  2.532303  0
Zn  Zn1  1  0.58292962  0.80569166  0.80569190  1  1.192345  0  0.69818  0.652855  0  2.532362  0
Zn  Zn2  1  0.80569188  0.58292915  0.80569196  1  1.192342  0  0.698153  0.65284  0  2.532397  0
Zn  Zn3  1  0.80569206  0.80569191  0.58292999  1  1.192351  0  0.698165  0.652847  0  2.532361  0
Zn  Zn4  1  0.41769885  0.19409928  0.19409969  1  1.294025  0  0.663236  0.958555  0  2.386363  0
Zn  Zn5  1  0.19410265  0.19410332  0.19410294  1  1.298806  0  0.663183  0.95844  0  2.386438  0
Zn  Zn6  1  0.19409973  0.19409913  0.41769818  1  1.293987  0  0.663269  0.958624  0  2.386389  0
Zn  Zn7  1  0.19409912  0.41769926  0.19409963  1  1.293991  0  0.663227  0.95853  0  2.386374  0
H  H8  1  0.68145374  0.97057596  0.96812649  1  0.105589  0  0.12678  0.115619  0  0.980914  0
H  H9  1  0.37984611  0.96812421  0.97057498  1  0.110595  0  0.126781  0.115613  0  0.980989  0
H  H10  1  0.96812538  0.37984371  0.68145467  1  0.110333  0  0.126773  0.115609  0  0.98093  0
H  H11  1  0.97057579  0.68145487  0.37984427  1  0.126044  0  0.126779  0.115624  0  0.980929  0
H  H12  1  0.97057499  0.96812782  0.68145327  1  0.105719  0  0.126752  0.115574  0  0.980933  0
H  H13  1  0.96812590  0.97057363  0.37984555  1  0.110687  0  0.126777  0.115604  0  0.981023  0
H  H14  1  0.37984517  0.68145389  0.96812677  1  0.110335  0  0.126775  0.115591  0  0.980994  0
H  H15  1  0.68145396  0.37984521  0.97057401  1  0.126042  0  0.126771  0.115608  0  0.980994  0
H  H16  1  0.96812624  0.68145460  0.97057511  1  0.105588  0  0.126778  0.115622  0  0.980911  0
H  H17  1  0.97057332  0.37984568  0.96812578  1  0.110687  0  0.126786  0.11562  0  0.981014  0
H  H18  1  0.68145466  0.96812481  0.37984553  1  0.110332  0  0.126779  0.115597  0  0.981019  0
H  H19  1  0.37984581  0.97057407  0.68145370  1  0.126047  0  0.126766  0.115591  0  0.98103  0
C  C20  1  0.50071666  0.99928255  0.99928482  1  0.076966  0  -0.046146  -0.152629  0  4.062593  0
C  C21  1  0.99928209  0.50071715  0.50071769  1  0.049587  0  -0.046172  -0.152775  0  4.062601  0
C  C22  1  0.99928260  0.99928434  0.50071689  1  0.076856  0  -0.046164  -0.15271  0  4.062664  0
C  C23  1  0.50071636  0.50071698  0.99928292  1  0.049575  0  -0.046127  -0.152617  0  4.062567  0
C  C24  1  0.99928314  0.50071711  0.99928334  1  0.07686  0  -0.046126  -0.152625  0  4.062651  0
C  C25  1  0.50071723  0.99928143  0.50071698  1  0.004343  0  -0.04614  -0.152645  0  4.062527  0
C  C26  1  0.62040713  0.95741595  0.95622444  1  0.408456  0  0.024826  -0.00098  0  3.976522  0
C  C27  1  0.46595069  0.95622410  0.95741722  1  0.439558  0  0.024839  -0.00096  0  3.976424  0
C  C28  1  0.95622281  0.46595297  0.62040755  1  0.418922  0  0.024836  -0.000916  0  3.976471  0
C  C29  1  0.95741541  0.62040772  0.46595333  1  0.446514  0  0.024829  -0.000951  0  3.976534  0
C  C30  1  0.95741586  0.95622516  0.62040637  1  0.408322  0  0.024847  -0.000923  0  3.976521  0
C  C31  1  0.95622454  0.95741713  0.46595015  1  0.439449  0  0.02483  -0.000928  0  3.976471  0
C  C32  1  0.46595184  0.62040835  0.95622426  1  0.418779  0  0.024822  -0.00093  0  3.9765  0
C  C33  1  0.62040841  0.46595193  0.95741532  1  0.446287  0  0.024795  -0.001002  0  3.976527  0
C  C34  1  0.95622372  0.62040732  0.95741619  1  0.408463  0  0.024804  -0.000995  0  3.976543  0
C  C35  1  0.95741646  0.46595025  0.95622488  1  0.439454  0  0.02483  -0.000973  0  3.976546  0
C  C36  1  0.62040862  0.95622337  0.46595171  1  0.418776  0  0.024816  -0.000953  0  3.976529  0
C  C37  1  0.46595195  0.95741476  0.62040839  1  0.446287  0  0.024832  -0.000934  0  3.976561  0
C  C38  1  0.42847862  0.07151928  0.07152122  1  1.522768  0  0.221281  0.622681  0  4.214122  0
C  C39  1  0.07151891  0.42847996  0.42847947  1  1.535286  0  0.221337  0.622869  0  4.213884  0
C  C40  1  0.07152018  0.07152064  0.42847844  1  1.522877  0  0.221259  0.622657  0  4.214079  0
C  C41  1  0.42847966  0.42847952  0.07151903  1  1.535325  0  0.221317  0.622764  0  4.214019  0
C  C42  1  0.07151983  0.42847928  0.07152032  1  1.523037  0  0.221281  0.622703  0  4.214151  0
C  C43  1  0.42848060  0.07151868  0.42847876  1  1.58055  0  0.22134  0.622822  0  4.214005  0
N  N44  1  0.65411328  0.89438353  0.89362869  1  -0.780531  0  -0.271838  -0.178631  0  3.565309  0
N  N45  1  0.55787749  0.89362816  0.89438342  1  -0.822794  0  -0.271887  -0.178674  0  3.565287  0
N  N46  1  0.89362837  0.55787576  0.65411332  1  -0.782586  0  -0.271864  -0.178672  0  3.565228  0
N  N47  1  0.89438330  0.65411272  0.55787642  1  -0.832165  0  -0.271854  -0.178647  0  3.565243  0
N  N48  1  0.89438371  0.89362936  0.65411234  1  -0.780573  0  -0.271849  -0.178614  0  3.5653  0
N  N49  1  0.89362873  0.89438330  0.55787691  1  -0.822726  0  -0.271864  -0.17869  0  3.565314  0
N  N50  1  0.55787644  0.65411372  0.89362832  1  -0.782439  0  -0.271828  -0.178631  0  3.565284  0
N  N51  1  0.65411325  0.55787767  0.89438242  1  -0.83195  0  -0.271832  -0.178655  0  3.565325  0
N  N52  1  0.89362899  0.65411310  0.89438320  1  -0.780594  0  -0.271831  -0.178638  0  3.565322  0
N  N53  1  0.89438276  0.55787721  0.89362796  1  -0.822733  0  -0.271879  -0.178664  0  3.565369  0
N  N54  1  0.65411340  0.89362757  0.55787673  1  -0.782425  0  -0.271853  -0.178659  0  3.565285  0
N  N55  1  0.55787701  0.89438202  0.65411366  1  -0.83196  0  -0.271837  -0.178657  0  3.565298  0
O  O56  1  0.74999990  0.74999968  0.74999962  1  -1.210554  0  -0.593242  -0.798363  0  2.416861  0
O  O57  1  0.25000085  0.25000171  0.25000002  1  -1.158678  0  -0.571991  -1.025166  0  2.532493  0
O  O58  1  0.47989198  0.09996913  0.09975077  1  -1.161582  0  -0.324014  -0.556176  0  2.314325  0
O  O59  1  0.32038640  0.09975006  0.09997183  1  -1.164812  0  -0.324028  -0.556198  0  2.314332  0
O  O60  1  0.09974880  0.32038668  0.47989128  1  -1.167406  0  -0.324041  -0.556278  0  2.314325  0
O  O61  1  0.09996927  0.47989262  0.32038699  1  -1.168327  0  -0.323999  -0.5562  0  2.314242  0
O  O62  1  0.09997254  0.09974857  0.47989177  1  -1.161601  0  -0.324011  -0.556179  0  2.314345  0
O  O63  1  0.09974972  0.09997333  0.32038532  1  -1.164817  0  -0.32399  -0.556148  0  2.314342  0
O  O64  1  0.32038658  0.47989206  0.09974810  1  -1.167421  0  -0.324025  -0.556218  0  2.314311  0
O  O65  1  0.47989130  0.32038681  0.09997140  1  -1.168377  0  -0.324051  -0.556247  0  2.314343  0
O  O66  1  0.09974758  0.47989254  0.09997209  1  -1.161772  0  -0.324021  -0.556195  0  2.314374  0
O  O67  1  0.09997319  0.32038632  0.09974982  1  -1.164798  0  -0.324029  -0.556205  0  2.314346  0
O  O68  1  0.47989259  0.09974813  0.32038663  1  -1.16744  0  -0.324026  -0.556244  0  2.314336  0
O  O69  1  0.32038725  0.09997008  0.47989127  1  -1.168295  0  -0.324055  -0.556265  0  2.314302  0
