# generated using pymatgen
data_ZnH19C15N5O6
_symmetry_space_group_name_H-M   'P 1'
_cell_length_a   8.68953138
_cell_length_b   9.58602809
_cell_length_c   11.89975351
_cell_angle_alpha   110.85344109
_cell_angle_beta   90.00000559
_cell_angle_gamma   89.99993807
_symmetry_Int_Tables_number   1
_chemical_formula_structural   ZnH19C15N5O6
_chemical_formula_sum   'Zn2 H38 C30 N10 O12'
_cell_volume   926.29551420
_cell_formula_units_Z   2
loop_
 _symmetry_equiv_pos_site_id
 _symmetry_equiv_pos_as_xyz
  1  'x, y, z'
loop_
 _atom_site_type_symbol
 _atom_site_label
 _atom_site_symmetry_multiplicity
 _atom_site_fract_x
 _atom_site_fract_y
 _atom_site_fract_z
 _atom_site_occupancy
 _atom_site_hle17_bader_spin_density
 _atom_site_hle17_ddec_charge
 _atom_site_hle17_ddec_spin_density
 _atom_site_hle17_ddec_sum_bond_order
 _atom_site_hle17_magmom
 _atom_site_hse06_10hf_bader_spin_density
 _atom_site_hse06_10hf_ddec_charge
 _atom_site_hse06_10hf_ddec_spin_density
 _atom_site_hse06_10hf_ddec_sum_bond_order
 _atom_site_hse06_10hf_magmom
 _atom_site_hse06_bader_spin_density
 _atom_site_hse06_ddec_charge
 _atom_site_hse06_ddec_spin_density
 _atom_site_hse06_ddec_sum_bond_order
 _atom_site_hse06_magmom
 _atom_site_pbe_bader_spin_density
 _atom_site_pbe_cm5_charge
 _atom_site_pbe_ddec_charge
 _atom_site_pbe_ddec_spin_density
 _atom_site_pbe_ddec_sum_bond_order
 _atom_site_pbe_magmom
Zn  Zn0  1  0.62116801  0.21404503  0.08236984  1  0  0.953574  0  1.935828  0  0  0.764588  0  2.410888  0  0  0.803739  0  2.364939  0  0  0.712851  0.735975  0  2.443259  0
Zn  Zn1  1  0.12116838  0.78595412  0.91763021  1  0  0.953581  0  1.935814  0  0  0.764593  0  2.410876  0  0  0.803745  0  2.364925  0  0  0.712849  0.735981  0  2.443236  0
H  H2  1  0.64117123  0.57891904  0.91317675  1  0  0.30384  0  0.939131  0  0  0.284548  0  1.005448  0  0  0.293188  0  0.999247  0  0  0.298799  0.278453  0  1.009788  0
H  H3  1  0.14117077  0.42108009  0.08682246  1  0  0.303861  0  0.939067  0  0  0.284566  0  1.005392  0  0  0.293206  0  0.999188  0  0  0.298808  0.278471  0  1.009739  0
H  H4  1  0.61225946  0.45955647  0.27308633  1  0  0.318137  0  0.900912  0  0  0.301075  0  0.965607  0  0  0.30796  0  0.960312  0  0  0.295746  0.29604  0  0.969576  0
H  H5  1  0.11226124  0.54044381  0.72691405  1  0  0.318137  0  0.900904  0  0  0.30108  0  0.965593  0  0  0.307965  0  0.960297  0  0  0.295747  0.296044  0  0.969566  0
H  H6  1  0.47755146  0.34637897  0.28285313  1  0  0.298277  0  0.885864  0  0  0.290281  0  0.935977  0  0  0.296497  0  0.93156  0  0  0.299738  0.285658  0  0.93944  0
H  H7  1  0.97755295  0.65362091  0.71714632  1  0  0.298281  0  0.885864  0  0  0.290278  0  0.935987  0  0  0.296494  0  0.931571  0  0  0.29973  0.285651  0  0.93945  0
H  H8  1  0.81239920  0.37569546  0.55548711  1  0  0.305516  0  0.882995  0  0  0.284461  0  0.951301  0  0  0.2929  0  0.944647  0  0  0.318491  0.278473  0  0.956067  0
H  H9  1  0.31239970  0.62430571  0.44451101  1  0  0.305558  0  0.882974  0  0  0.28446  0  0.951319  0  0  0.292899  0  0.944667  0  0  0.318499  0.278471  0  0.95609  0
H  H10  1  0.61239152  0.91994785  0.16959726  1  0  0.099824  0  0.953769  0  0  0.115704  0  1.006938  0  0  0.11799  0  1.006208  0  0  0.113905  0.113825  0  1.008066  0
H  H11  1  0.11238927  0.08005467  0.83040459  1  0  0.099821  0  0.953733  0  0  0.115701  0  1.006906  0  0  0.117989  0  1.006174  0  0  0.113904  0.113846  0  1.008009  0
H  H12  1  0.97705013  0.52936358  0.94125957  1  0  0.073092  0  0.945886  0  0  0.078317  0  1.015405  0  0  0.081356  0  1.012361  0  0  0.112995  0.076202  0  1.017783  0
H  H13  1  0.47704961  0.47063631  0.05874156  1  0  0.073097  0  0.945848  0  0  0.078314  0  1.015382  0  0  0.081353  0  1.01234  0  0  0.112984  0.076194  0  1.01776  0
H  H14  1  0.93268208  0.07441218  0.97514364  1  0  0.074963  0  0.982316  0  0  0.081202  0  1.053881  0  0  0.083727  0  1.0506  0  0  0.120258  0.079388  0  1.055879  0
H  H15  1  0.43268216  0.92558775  0.02485582  1  0  0.074979  0  0.982402  0  0  0.081217  0  1.053963  0  0  0.083743  0  1.050681  0  0  0.120273  0.079407  0  1.055954  0
H  H16  1  0.54669328  0.38536634  0.70071597  1  0  0.097916  0  0.923741  0  0  0.112194  0  0.985968  0  0  0.114243  0  0.984337  0  0  0.118744  0.110682  0  0.987254  0
H  H17  1  0.04669032  0.61463289  0.29928242  1  0  0.097911  0  0.923751  0  0  0.112189  0  0.985971  0  0  0.114236  0  0.984338  0  0  0.118745  0.110678  0  0.987255  0
H  H18  1  0.59400873  0.56770526  0.70884141  1  0  0.104188  0  0.898682  0  0  0.120067  0  0.954543  0  0  0.122265  0  0.952555  0  0  0.119958  0.118483  0  0.955981  0
H  H19  1  0.09400713  0.43229392  0.29115781  1  0  0.104169  0  0.898716  0  0  0.120051  0  0.95456  0  0  0.122244  0  0.952573  0  0  0.119946  0.118466  0  0.956  0
H  H20  1  0.74133419  0.65712998  0.14324646  1  0  0.100521  0  0.924547  0  0  0.11794  0  0.981825  0  0  0.119097  0  0.981679  0  0  0.104254  0.116987  0  0.981991  0
H  H21  1  0.24133508  0.34286905  0.85675441  1  0  0.100539  0  0.924548  0  0  0.11794  0  0.981847  0  0  0.119097  0  0.981703  0  0  0.104259  0.11699  0  0.982015  0
H  H22  1  0.94384107  0.67445008  0.14939464  1  0  0.097176  0  0.936561  0  0  0.109762  0  1.00494  0  0  0.111092  0  1.0046  0  0  0.100718  0.108884  0  1.004973  0
H  H23  1  0.44384198  0.32554872  0.85060618  1  0  0.097147  0  0.936585  0  0  0.109768  0  1.004926  0  0  0.111098  0  1.004585  0  0  0.100719  0.108895  0  1.004954  0
H  H24  1  0.79992327  0.35157745  0.34889268  1  0  0.105386  0  0.909017  0  0  0.121075  0  0.96644  0  0  0.123271  0  0.965182  0  0  0.121815  0.119469  0  0.967399  0
H  H25  1  0.29992377  0.64842263  0.65110681  1  0  0.105392  0  0.909037  0  0  0.121086  0  0.966456  0  0  0.123282  0  0.965198  0  0  0.121822  0.119477  0  0.967419  0
H  H26  1  0.68945711  0.18703842  0.32032287  1  0  0.087826  0  0.922525  0  0  0.10448  0  0.981238  0  0  0.106023  0  0.980766  0  0  0.113466  0.103342  0  0.981659  0
H  H27  1  0.18945857  0.81296289  0.67967781  1  0  0.087829  0  0.922541  0  0  0.104481  0  0.981258  0  0  0.106026  0  0.980783  0  0  0.113467  0.103345  0  0.981676  0
H  H28  1  0.82685552  0.63411479  0.42745102  1  0  0.360787  0  0.933089  0  0  0.33595  0  1.011108  0  0  0.34599  0  0.9994  0  0  0.286556  0.328792  0  1.019504  0
H  H29  1  0.32685749  0.36588526  0.57255015  1  0  0.360786  0  0.933084  0  0  0.335957  0  1.011095  0  0  0.345999  0  0.999385  0  0  0.286564  0.328804  0  1.019488  0
H  H30  1  0.59364607  0.78315517  0.34311247  1  0  0.079233  0  0.939552  0  0  0.091771  0  1.005986  0  0  0.093043  0  1.003794  0  0  0.104597  0.090722  0  1.007662  0
H  H31  1  0.09364708  0.21684402  0.65688759  1  0  0.079253  0  0.939531  0  0  0.091789  0  1.005965  0  0  0.093063  0  1.003774  0  0  0.104603  0.090742  0  1.007638  0
H  H32  1  0.78804201  0.84847839  0.36085088  1  0  0.052241  0  0.9298  0  0  0.064691  0  0.998131  0  0  0.064794  0  0.998525  0  0  0.094833  0.064423  0  0.998006  0
H  H33  1  0.28804310  0.15152059  0.63914913  1  0  0.052256  0  0.929838  0  0  0.064715  0  0.998154  0  0  0.06482  0  0.998549  0  0  0.094843  0.064447  0  0.998032  0
H  H34  1  0.47541870  0.91697976  0.76043565  1  0  0.092066  0  0.992568  0  0  0.095148  0  1.064133  0  0  0.096761  0  1.063765  0  0  0.112173  0.09417  0  1.064044  0
H  H35  1  0.97541966  0.08302459  0.23956675  1  0  0.092113  0  0.992509  0  0  0.095168  0  1.064111  0  0  0.096784  0  1.063738  0  0  0.112174  0.094181  0  1.064031  0
H  H36  1  0.83704974  0.06828147  0.57773987  1  0  0.127923  0  0.962197  0  0  0.135814  0  1.025129  0  0  0.139322  0  1.023529  0  0  0.10289  0.133354  0  1.026254  0
H  H37  1  0.33704872  0.93171745  0.42225929  1  0  0.127908  0  0.962234  0  0  0.13581  0  1.025154  0  0  0.139317  0  1.023552  0  0  0.102895  0.133351  0  1.026278  0
H  H38  1  0.69210173  0.13914189  0.79642004  1  0  0.125353  0  0.974424  0  0  0.132875  0  1.036964  0  0  0.136037  0  1.036004  0  0  0.101546  0.130631  0  1.037726  0
H  H39  1  0.19209847  0.86086054  0.20358012  1  0  0.125354  0  0.974389  0  0  0.132875  0  1.036933  0  0  0.136035  0  1.035975  0  0  0.101562  0.130632  0  1.03769  0
C  C40  1  0.71262362  0.92129864  0.11544462  1  0  -0.094238  0  3.758437  0  0  -0.133149  0  4.022737  0  0  -0.133997  0  4.044458  0  0  -0.02184  -0.132833  0  4.009185  0
C  C41  1  0.21262252  0.07870154  0.88455742  1  0  -0.094203  0  3.758414  0  0  -0.133116  0  4.022715  0  0  -0.133963  0  4.044437  0  0  -0.021823  -0.132816  0  4.009161  0
C  C42  1  0.86060772  0.53206820  0.97755859  1  0  0.046132  0  3.635994  0  0  0.025826  0  3.876732  0  0  0.026098  0  3.887975  0  0  0.010175  0.025698  0  3.869094  0
C  C43  1  0.36060720  0.46793070  0.02244141  1  0  0.04617  0  3.635937  0  0  0.025859  0  3.876682  0  0  0.02613  0  3.887923  0  0  0.010189  0.025758  0  3.869003  0
C  C44  1  0.84153191  0.39522873  0.01503501  1  0  0.645334  0  3.849103  0  0  0.594142  0  4.152698  0  0  0.626528  0  4.145646  0  0  0.214322  0.572482  0  4.156081  0
C  C45  1  0.34153135  0.60477130  0.98496616  1  0  0.645376  0  3.849113  0  0  0.594193  0  4.152683  0  0  0.626579  0  4.14563  0  0  0.21432  0.572515  0  4.156071  0
C  C46  1  0.82563668  0.81437463  0.07210747  1  0  0.179068  0  3.77518  0  0  0.177798  0  4.034424  0  0  0.181444  0  4.059339  0  0  0.069287  0.17494  0  4.018356  0
C  C47  1  0.32563661  0.18562542  0.92789286  1  0  0.179079  0  3.775201  0  0  0.177797  0  4.034449  0  0  0.181443  0  4.059366  0  0  0.06929  0.174936  0  4.018399  0
C  C48  1  0.60583225  0.37179973  0.46954171  1  0  0.565797  0  3.804848  0  0  0.522409  0  4.095343  0  0  0.55091  0  4.09567  0  0  0.246867  0.503292  0  4.094315  0
C  C49  1  0.10582930  0.62819945  0.53045835  1  0  0.56584  0  3.804819  0  0  0.522458  0  4.09529  0  0  0.550959  0  4.095618  0  0  0.246857  0.503342  0  4.094263  0
C  C50  1  0.77436835  0.45488285  0.77070053  1  0  0.551327  0  3.820329  0  0  0.50902  0  4.116708  0  0  0.537469  0  4.116438  0  0  0.238535  0.489783  0  4.116318  0
C  C51  1  0.27436776  0.54511614  0.22929865  1  0  0.551323  0  3.820344  0  0  0.509  0  4.116727  0  0  0.537446  0  4.116458  0  0  0.238535  0.489765  0  4.116338  0
C  C52  1  0.87527620  0.00128715  0.01349894  1  0  0.195189  0  3.777355  0  0  0.143036  0  4.041049  0  0  0.156941  0  4.054416  0  0  0.115337  0.134012  0  4.031246  0
C  C53  1  0.37527632  0.99871174  0.98650190  1  0  0.195154  0  3.777468  0  0  0.142992  0  4.041158  0  0  0.156897  0  4.054523  0  0  0.115311  0.133969  0  4.031348  0
C  C54  1  0.64105045  0.45443742  0.68701954  1  0  -0.07536  0  3.661911  0  0  -0.138215  0  3.924757  0  0  -0.136098  0  3.930466  0  0  -0.049129  -0.139509  0  3.920629  0
C  C55  1  0.14104873  0.54556172  0.31297967  1  0  -0.075366  0  3.661959  0  0  -0.138194  0  3.924749  0  0  -0.136063  0  3.930439  0  0  -0.049131  -0.13948  0  3.920616  0
C  C56  1  0.84270328  0.67099209  0.09291834  1  0  -0.19835  0  3.697797  0  0  -0.244847  0  3.944277  0  0  -0.245856  0  3.955873  0  0  -0.149857  -0.244073  0  3.936272  0
C  C57  1  0.34270419  0.32900683  0.90708250  1  0  -0.198355  0  3.69784  0  0  -0.244864  0  3.944324  0  0  -0.245872  0  3.955919  0  0  -0.149842  -0.244103  0  3.936317  0
C  C58  1  0.68230015  0.30916136  0.34650257  1  0  -0.061603  0  3.643652  0  0  -0.121754  0  3.904404  0  0  -0.121441  0  3.911296  0  0  -0.06398  -0.12201  0  3.899603  0
C  C59  1  0.18230175  0.69083884  0.65349695  1  0  -0.061591  0  3.643601  0  0  -0.121752  0  3.904351  0  0  -0.12144  0  3.911245  0  0  -0.063978  -0.122011  0  3.899559  0
C  C60  1  0.70007988  0.79007794  0.39484958  1  0  0.060101  0  3.742014  0  0  -0.005967  0  4.019029  0  0  0.001422  0  4.022263  0  0  -0.079356  -0.010927  0  4.01676  0
C  C61  1  0.20008205  0.20992337  0.60515194  1  0  0.060092  0  3.742053  0  0  -0.005973  0  4.019043  0  0  0.001409  0  4.022285  0  0  -0.079354  -0.010939  0  4.016777  0
C  C62  1  0.67541913  0.88042119  0.52391186  1  0  0.165452  0  3.719577  0  0  0.163223  0  3.985959  0  0  0.170029  0  4.003761  0  0  0.048256  0.15881  0  3.973837  0
C  C63  1  0.17541909  0.11957902  0.47608850  1  0  0.165345  0  3.719658  0  0  0.163148  0  3.986027  0  0  0.169953  0  4.003833  0  0  0.048246  0.158739  0  3.973901  0
C  C64  1  0.55866367  0.93790910  0.70043724  1  0  0.051376  0  3.667275  0  0  0.017933  0  3.934861  0  0  0.025933  0  3.948191  0  0  -0.02596  0.012569  0  3.926226  0
C  C65  1  0.05866368  0.06209347  0.29956378  1  0  0.051251  0  3.667357  0  0  0.017825  0  3.934988  0  0  0.025838  0  3.948286  0  0  -0.026004  0.012465  0  3.926362  0
C  C66  1  0.74384912  0.00754919  0.60046313  1  0  -0.220488  0  3.797682  0  0  -0.244881  0  4.049544  0  0  -0.250037  0  4.070861  0  0  -0.13122  -0.241418  0  4.034985  0
C  C67  1  0.24384803  0.99245095  0.39953721  1  0  -0.220455  0  3.7977  0  0  -0.244866  0  4.049561  0  0  -0.250017  0  4.070875  0  0  -0.131212  -0.241407  0  4.035008  0
C  C68  1  0.66805791  0.04515043  0.71452554  1  0  -0.170547  0  3.828574  0  0  -0.190147  0  4.089708  0  0  -0.195157  0  4.111258  0  0  -0.134552  -0.186507  0  4.074918  0
C  C69  1  0.16805569  0.95485091  0.28547430  1  0  -0.170494  0  3.8285  0  0  -0.190076  0  4.089614  0  0  -0.195094  0  4.111177  0  0  -0.134528  -0.186438  0  4.07482  0
N  N70  1  0.75007011  0.53419764  0.88716301  1  0  -0.446113  0  3.3481  0  0  -0.395596  0  3.596701  0  0  -0.417935  0  3.607105  0  0  -0.420872  -0.380325  0  3.589366  0
N  N71  1  0.25006960  0.46580249  0.11283817  1  0  -0.446134  0  3.348092  0  0  -0.395605  0  3.596689  0  0  -0.417945  0  3.607094  0  0  -0.42087  -0.380348  0  3.589366  0
N  N72  1  0.74533131  0.03942077  0.07842695  1  0  -0.419584  0  3.385304  0  0  -0.33237  0  3.686903  0  0  -0.352539  0  3.700336  0  0  -0.38914  -0.318381  0  3.677564  0
N  N73  1  0.24533147  0.96057937  0.92157340  1  0  -0.419604  0  3.385312  0  0  -0.332396  0  3.686921  0  0  -0.352564  0  3.700352  0  0  -0.389149  -0.3184  0  3.677577  0
N  N74  1  0.92805989  0.86648299  0.00686022  1  0  -0.457344  0  3.275837  0  0  -0.371266  0  3.56438  0  0  -0.392534  0  3.577166  0  0  -0.378533  -0.356983  0  3.555969  0
N  N75  1  0.42805989  0.13351583  0.99314060  1  0  -0.457359  0  3.275898  0  0  -0.371249  0  3.564409  0  0  -0.392517  0  3.577195  0  0  -0.378535  -0.356965  0  3.556004  0
N  N76  1  0.59059667  0.34832505  0.25790941  1  0  -0.610465  0  3.136753  0  0  -0.551368  0  3.407874  0  0  -0.568564  0  3.400748  0  0  -0.624668  -0.539073  0  3.412723  0
N  N77  1  0.09059718  0.65167525  0.74209097  1  0  -0.610479  0  3.136677  0  0  -0.55138  0  3.407822  0  0  -0.568577  0  3.400694  0  0  -0.62467  -0.539088  0  3.412673  0
N  N78  1  0.69658627  0.39537808  0.56470917  1  0  -0.3968  0  3.370529  0  0  -0.341245  0  3.621454  0  0  -0.362701  0  3.630347  0  0  -0.412246  -0.326445  0  3.614632  0
N  N79  1  0.19658679  0.60462322  0.43529066  1  0  -0.396824  0  3.370476  0  0  -0.341244  0  3.621407  0  0  -0.362704  0  3.630298  0  0  -0.412228  -0.326444  0  3.614589  0
O  O80  1  0.70659033  0.33529575  0.99468109  1  0  -0.643454  0  2.102684  0  0  -0.562369  0  2.379929  0  0  -0.589486  0  2.365274  0  0  -0.331755  -0.542966  0  2.38942  0
O  O81  1  0.20659187  0.66470331  0.00531810  1  0  -0.643489  0  2.102781  0  0  -0.562375  0  2.379979  0  0  -0.589492  0  2.365326  0  0  -0.331769  -0.542971  0  2.389476  0
O  O82  1  0.89594917  0.38599128  0.72951149  1  0  -0.57193  0  1.912276  0  0  -0.52663  0  2.132458  0  0  -0.546982  0  2.124926  0  0  -0.308448  -0.512484  0  2.137321  0
O  O83  1  0.39594966  0.61400870  0.27048966  1  0  -0.571924  0  1.912248  0  0  -0.526616  0  2.132421  0  0  -0.546968  0  2.124892  0  0  -0.308448  -0.512461  0  2.137281  0
O  O84  1  0.94918792  0.35547412  0.06673879  1  0  -0.604854  0  1.946954  0  0  -0.559697  0  2.173765  0  0  -0.583016  0  2.166145  0  0  -0.315041  -0.542944  0  2.177204  0
O  O85  1  0.44918731  0.64452580  0.93326151  1  0  -0.604887  0  1.946897  0  0  -0.559734  0  2.173695  0  0  -0.583052  0  2.166072  0  0  -0.315042  -0.542975  0  2.177132  0
O  O86  1  0.46333433  0.39492346  0.47627334  1  0  -0.584244  0  1.9534  0  0  -0.535079  0  2.171868  0  0  -0.557212  0  2.164181  0  0  -0.304009  -0.51976  0  2.176806  0
O  O87  1  0.96333471  0.60507979  0.52372791  1  0  -0.584304  0  1.953476  0  0  -0.535121  0  2.171926  0  0  -0.557253  0  2.16424  0  0  -0.30401  -0.519799  0  2.17686  0
O  O88  1  0.74323190  0.63776314  0.37165112  1  0  -0.55428  0  2.062445  0  0  -0.503083  0  2.29141  0  0  -0.519215  0  2.27901  0  0  -0.41475  -0.491738  0  2.299893  0
O  O89  1  0.24323273  0.36223589  0.62834975  1  0  -0.554268  0  2.06244  0  0  -0.503092  0  2.291423  0  0  -0.519224  0  2.279023  0  0  -0.414761  -0.491745  0  2.299897  0
O  O90  1  0.56021387  0.83652224  0.58453531  1  0  -0.207955  0  2.36948  0  0  -0.137686  0  2.592216  0  0  -0.15332  0  2.596324  0  0  -0.141763  -0.127192  0  2.589004  0
O  O91  1  0.06021376  0.16348032  0.41546487  1  0  -0.207872  0  2.369541  0  0  -0.13764  0  2.592277  0  0  -0.153279  0  2.59639  0  0  -0.141781  -0.127142  0  2.589059  0
