# generated using pymatgen
data_HoH21C25N4O7
_symmetry_space_group_name_H-M   'P 1'
_cell_length_a   8.70136106
_cell_length_b   16.22107216
_cell_length_c   20.35939563
_cell_angle_alpha   94.04996105
_cell_angle_beta   90.00008243
_cell_angle_gamma   90.00077158
_symmetry_Int_Tables_number   1
_chemical_formula_structural   HoH21C25N4O7
_chemical_formula_sum   'Ho4 H84 C100 N16 O28'
_cell_volume   2866.45924077
_cell_formula_units_Z   4
loop_
 _symmetry_equiv_pos_site_id
 _symmetry_equiv_pos_as_xyz
  1  'x, y, z'
loop_
 _atom_site_type_symbol
 _atom_site_label
 _atom_site_symmetry_multiplicity
 _atom_site_fract_x
 _atom_site_fract_y
 _atom_site_fract_z
 _atom_site_occupancy
 _atom_site_pbe_bader_charge
 _atom_site_pbe_bader_spin_density
 _atom_site_pbe_cm5_charge
 _atom_site_pbe_ddec_charge
 _atom_site_pbe_ddec_spin_density
 _atom_site_pbe_ddec_sum_bond_order
 _atom_site_pbe_magmom
Ho  Ho0  1  0.78130386  0.75681764  0.28587742  1  2.201908  0  1.547701  2.139797  0  2.146871  0
Ho  Ho1  1  0.28131396  0.74318583  0.21413161  1  2.201965  0  1.547726  2.139682  0  2.147081  0
Ho  Ho2  1  0.21869540  0.24318131  0.71412621  1  2.201929  0  1.547697  2.139748  0  2.146998  0
Ho  Ho3  1  0.71869334  0.25681063  0.78587334  1  2.202054  0  1.547709  2.139675  0  2.146769  0
H  H4  1  0.24392981  0.78398771  0.37793041  1  0.106708  0  0.109925  0.118978  0  1.034347  0
H  H5  1  0.74392844  0.71601306  0.12207353  1  0.106363  0  0.109985  0.119125  0  1.034249  0
H  H6  1  0.75605566  0.21601188  0.62207031  1  0.106671  0  0.109949  0.118983  0  1.034443  0
H  H7  1  0.25606507  0.28398467  0.87792806  1  0.10656  0  0.109966  0.119116  0  1.034293  0
H  H8  1  0.04699957  0.85504468  0.45155985  1  0.111932  0  0.108102  0.107462  0  1.029879  0
H  H9  1  0.54700075  0.64495341  0.04844186  1  0.111989  0  0.108082  0.107424  0  1.029928  0
H  H10  1  0.95298705  0.14495365  0.54844276  1  0.112091  0  0.108099  0.107449  0  1.029986  0
H  H11  1  0.45299506  0.35504743  0.95155599  1  0.112018  0  0.108077  0.107428  0  1.029967  0
H  H12  1  0.33164871  0.07194027  0.47124303  1  0.078305  0  0.10741  0.11292  0  0.994602  0
H  H13  1  0.83165577  0.42806194  0.02875889  1  0.07834  0  0.107403  0.112926  0  0.99462  0
H  H14  1  0.66833675  0.92805684  0.52875804  1  0.07837  0  0.107406  0.11293  0  0.994584  0
H  H15  1  0.16833890  0.57193643  0.97123931  1  0.078495  0  0.107369  0.112883  0  0.994567  0
H  H16  1  0.53131518  0.99983745  0.39782007  1  0.098934  0  0.107631  0.115664  0  0.987506  0
H  H17  1  0.03131879  0.50016855  0.10218505  1  0.098928  0  0.10763  0.115664  0  0.987459  0
H  H18  1  0.46866684  0.00016401  0.60217831  1  0.098842  0  0.107593  0.115559  0  0.98755  0
H  H19  1  0.96867587  0.49982919  0.89781507  1  0.098903  0  0.107597  0.115603  0  0.98749  0
H  H20  1  0.36902943  0.51571143  0.13737406  1  0.13179  0  0.114643  0.125839  0  1.001265  0
H  H21  1  0.86903335  0.98429032  0.36262018  1  0.131836  0  0.114676  0.125908  0  1.00119  0
H  H22  1  0.63097327  0.48428817  0.86262519  1  0.131747  0  0.114627  0.125822  0  1.001301  0
H  H23  1  0.13097510  0.01571112  0.63738065  1  0.131736  0  0.114658  0.125822  0  1.001325  0
H  H24  1  0.36055521  0.36107081  0.11237869  1  0.084685  0  0.107477  0.111267  0  0.991607  0
H  H25  1  0.86055746  0.13893047  0.38760992  1  0.084896  0  0.10749  0.111224  0  0.991528  0
H  H26  1  0.63945094  0.63892880  0.88761908  1  0.08468  0  0.107479  0.111244  0  0.991589  0
H  H27  1  0.13945559  0.86107100  0.61238699  1  0.08469  0  0.107509  0.111251  0  0.991619  0
H  H28  1  0.76035232  0.33421006  0.23345556  1  0.106885  0  0.102145  0.105422  0  1.029779  0
H  H29  1  0.26037561  0.16579287  0.26654685  1  0.106585  0  0.102147  0.10534  0  1.029701  0
H  H30  1  0.23964694  0.66579137  0.76654675  1  0.106909  0  0.10217  0.105415  0  1.029789  0
H  H31  1  0.73963284  0.83420121  0.73344617  1  0.106703  0  0.102131  0.105304  0  1.029656  0
H  H32  1  0.77269374  0.48849392  0.25538546  1  0.097272  0  0.102162  0.107485  0  1.024988  0
H  H33  1  0.27272229  0.01150782  0.24462229  1  0.09684  0  0.102183  0.107454  0  1.024889  0
H  H34  1  0.22730092  0.51150814  0.74461492  1  0.097149  0  0.10217  0.107478  0  1.02498  0
H  H35  1  0.72728961  0.98848620  0.75537859  1  0.096969  0  0.102194  0.107469  0  1.02502  0
H  H36  1  0.38850552  0.96339198  0.11827464  1  0.082681  0  0.102673  0.101942  0  1.026175  0
H  H37  1  0.88849484  0.53660677  0.38172680  1  0.082715  0  0.102705  0.101968  0  1.02613  0
H  H38  1  0.61150063  0.03660761  0.88172461  1  0.082751  0  0.10271  0.102001  0  1.026231  0
H  H39  1  0.11150441  0.46338974  0.61827324  1  0.082684  0  0.102703  0.101921  0  1.02625  0
H  H40  1  0.40426146  0.11916725  0.12224775  1  0.095767  0  0.103491  0.10394  0  1.016684  0
H  H41  1  0.90426168  0.38083241  0.37775356  1  0.095729  0  0.103507  0.103956  0  1.016752  0
H  H42  1  0.59574010  0.88083296  0.87775154  1  0.095766  0  0.103483  0.103912  0  1.016699  0
H  H43  1  0.09574447  0.61916350  0.62224301  1  0.095772  0  0.103486  0.103905  0  1.016793  0
H  H44  1  0.82309603  0.11062128  0.23354000  1  0.092057  0  0.101829  0.104535  0  1.039371  0
H  H45  1  0.32308470  0.38939206  0.26645374  1  0.092332  0  0.101839  0.104489  0  1.039446  0
H  H46  1  0.17690783  0.88938327  0.76645857  1  0.092209  0  0.101854  0.104526  0  1.039448  0
H  H47  1  0.67692146  0.61061192  0.73353890  1  0.092215  0  0.101773  0.104483  0  1.039473  0
H  H48  1  0.80573575  0.95557533  0.22942100  1  0.107423  0  0.110858  0.107644  0  1.047625  0
H  H49  1  0.30571120  0.54443831  0.27057491  1  0.10795  0  0.110849  0.107715  0  1.04773  0
H  H50  1  0.19426925  0.04442983  0.77057908  1  0.107491  0  0.110855  0.107604  0  1.047695  0
H  H51  1  0.69428231  0.45556748  0.72942373  1  0.107466  0  0.110848  0.107686  0  1.047785  0
H  H52  1  0.45633022  0.62758835  0.35915593  1  0.123272  0  0.11553  0.182594  0  0.989645  0
H  H53  1  0.95634088  0.87242325  0.14084780  1  0.123504  0  0.115554  0.182599  0  0.989523  0
H  H54  1  0.54366099  0.37241124  0.64084430  1  0.123312  0  0.11552  0.182564  0  0.989706  0
H  H55  1  0.04366528  0.12757448  0.85915477  1  0.123529  0  0.115498  0.182551  0  0.98965  0
H  H56  1  0.46235863  0.57459185  0.43309736  1  0.025401  0  0.094832  0.139319  0  1.011339  0
H  H57  1  0.96238299  0.92542041  0.06690592  1  0.025564  0  0.094824  0.139238  0  1.011435  0
H  H58  1  0.53763488  0.42541082  0.56690453  1  0.025413  0  0.094822  0.139356  0  1.011333  0
H  H59  1  0.03761971  0.07457607  0.93309609  1  0.025455  0  0.094833  0.139303  0  1.011315  0
H  H60  1  0.58746845  0.54488252  0.36619310  1  0.056822  0  0.105198  0.157394  0  0.992397  0
H  H61  1  0.08749277  0.95512759  0.13381231  1  0.056447  0  0.105194  0.157328  0  0.992238  0
H  H62  1  0.41252391  0.45511768  0.63380816  1  0.05672  0  0.105194  0.157392  0  0.992289  0
H  H63  1  0.91250649  0.04487260  0.86618992  1  0.056436  0  0.105161  0.157293  0  0.992164  0
H  H64  1  0.64020026  0.59538995  0.55839904  1  0.052573  0  0.103077  0.116566  0  0.982192  0
H  H65  1  0.14021867  0.90460430  0.94160375  1  0.052781  0  0.103052  0.116477  0  0.982101  0
H  H66  1  0.35980015  0.40460903  0.44160017  1  0.052604  0  0.103047  0.116528  0  0.982221  0
H  H67  1  0.85978403  0.09539157  0.05839724  1  0.052753  0  0.103047  0.116466  0  0.982076  0
H  H68  1  0.82408941  0.56142560  0.53008446  1  0.066451  0  0.104355  0.117988  0  1.007121  0
H  H69  1  0.32410188  0.93857247  0.96991964  1  0.066353  0  0.10438  0.117939  0  1.007174  0
H  H70  1  0.17591100  0.43857710  0.46991351  1  0.066419  0  0.104338  0.117983  0  1.007066  0
H  H71  1  0.67589738  0.06142774  0.03008014  1  0.066323  0  0.104387  0.117969  0  1.00715  0
H  H72  1  0.65786779  0.52829200  0.48491122  1  0.057394  0  0.106179  0.113473  0  1.016614  0
H  H73  1  0.15788175  0.97170692  0.01508864  1  0.057635  0  0.106202  0.113485  0  1.016426  0
H  H74  1  0.34213262  0.47170759  0.51508853  1  0.057335  0  0.106192  0.113489  0  1.016599  0
H  H75  1  0.84211521  0.02829083  0.98490952  1  0.05763  0  0.106163  0.113466  0  1.016531  0
H  H76  1  0.95254564  0.69615385  0.48919309  1  0.062712  0  0.105362  0.12134  0  0.976133  0
H  H77  1  0.45255423  0.80384656  0.01081487  1  0.062672  0  0.105379  0.121321  0  0.976158  0
H  H78  1  0.04744673  0.30384884  0.51080586  1  0.062635  0  0.105332  0.121274  0  0.97617  0
H  H79  1  0.54745192  0.19615548  0.98918944  1  0.062678  0  0.105328  0.121257  0  0.97613  0
H  H80  1  0.81876476  0.72639283  0.55287390  1  0.037464  0  0.102184  0.117235  0  1.020105  0
H  H81  1  0.31877531  0.77360952  0.94713242  1  0.037682  0  0.102251  0.117247  0  1.020064  0
H  H82  1  0.18122530  0.27360739  0.44712588  1  0.037449  0  0.102201  0.117227  0  1.020154  0
H  H83  1  0.68123888  0.22639439  0.05286955  1  0.037596  0  0.102182  0.117194  0  1.020012  0
H  H84  1  0.81049063  0.77226801  0.47532792  1  0.112032  0  0.120093  0.139345  0  1.00216  0
H  H85  1  0.31049392  0.72773137  0.02467794  1  0.112524  0  0.120094  0.13935  0  1.002116  0
H  H86  1  0.18949714  0.22773282  0.52467140  1  0.112073  0  0.120084  0.139319  0  1.002121  0
H  H87  1  0.68951224  0.27226884  0.97532233  1  0.112394  0  0.120047  0.139267  0  1.002115  0
C  C88  1  0.50810874  0.84753419  0.33486051  1  1.566368  0  0.212327  0.618331  0  4.179507  0
C  C89  1  0.00810605  0.65246978  0.16514546  1  1.566362  0  0.21249  0.618559  0  4.179411  0
C  C90  1  0.49188477  0.15246600  0.66514319  1  1.566318  0  0.212357  0.618376  0  4.179295  0
C  C91  1  0.99188286  0.34752980  0.83485575  1  1.566745  0  0.212427  0.61856  0  4.179134  0
C  C92  1  0.39679227  0.88870853  0.38221597  1  -0.015818  0  -0.008351  -0.019087  0  3.926  0
C  C93  1  0.89679286  0.61129581  0.11779072  1  -0.015792  0  -0.008406  -0.019168  0  3.926281  0
C  C94  1  0.60319434  0.11129291  0.61778437  1  -0.016805  0  -0.008337  -0.019062  0  3.926222  0
C  C95  1  0.10320525  0.38870253  0.88221189  1  -0.015993  0  -0.008341  -0.019176  0  3.926251  0
C  C96  1  0.26301270  0.84664102  0.39924043  1  -0.02749  0  -0.080437  -0.08263  0  3.951377  0
C  C97  1  0.76301543  0.65336048  0.10076602  1  -0.026863  0  -0.080493  -0.082862  0  3.951522  0
C  C98  1  0.73697391  0.15335918  0.60076131  1  -0.027393  0  -0.080537  -0.082803  0  3.951807  0
C  C99  1  0.23698038  0.34663662  0.89923602  1  -0.02698  0  -0.080546  -0.082905  0  3.951862  0
C  C100  1  0.15371772  0.88578644  0.43988130  1  -0.038673  0  -0.083838  -0.145264  0  3.955789  0
C  C101  1  0.65371818  0.61421304  0.06012301  1  -0.038856  0  -0.083806  -0.145065  0  3.955865  0
C  C102  1  0.84627349  0.11421314  0.56012041  1  -0.038678  0  -0.083829  -0.14516  0  3.955933  0
C  C103  1  0.34627878  0.38578470  0.93987613  1  -0.039052  0  -0.083811  -0.145135  0  3.956001  0
C  C104  1  0.17690828  0.96836057  0.46380221  1  0.320649  0  0.0873  0.161573  0  4.062048  0
C  C105  1  0.67690772  0.53164156  0.03620129  1  0.320625  0  0.087355  0.161469  0  4.062054  0
C  C106  1  0.82308409  0.03164087  0.53620010  1  0.320737  0  0.087416  0.16162  0  4.061927  0
C  C107  1  0.32308809  0.46835927  0.96379804  1  0.320631  0  0.087375  0.161569  0  4.062056  0
C  C108  1  0.31496429  0.00885123  0.45036341  1  0.016725  0  -0.079081  -0.140051  0  3.95718  0
C  C109  1  0.81496840  0.49115147  0.04964098  1  0.016881  0  -0.079159  -0.140159  0  3.9573  0
C  C110  1  0.68502348  0.99114836  0.54963732  1  0.016637  0  -0.079088  -0.140083  0  3.957137  0
C  C111  1  0.18502971  0.50884751  0.95035872  1  0.016763  0  -0.079165  -0.140187  0  3.957239  0
C  C112  1  0.42445682  0.96912805  0.40964941  1  -0.105228  0  -0.080946  -0.085389  0  3.96377  0
C  C113  1  0.92445989  0.53087712  0.09035588  1  -0.105476  0  -0.08086  -0.085238  0  3.963729  0
C  C114  1  0.57552865  0.03087340  0.59035044  1  -0.104679  0  -0.080902  -0.085265  0  3.963742  0
C  C115  1  0.07553477  0.46912061  0.90964474  1  -0.1055  0  -0.080737  -0.085003  0  3.963622  0
C  C116  1  0.57133464  0.60167667  0.21638458  1  1.611694  0  0.236548  0.649196  0  4.175182  0
C  C117  1  0.07134198  0.89832532  0.28361738  1  1.6117  0  0.236592  0.649288  0  4.174807  0
C  C118  1  0.42867726  0.39832416  0.78361622  1  1.611756  0  0.2366  0.649233  0  4.175122  0
C  C119  1  0.92865498  0.10167117  0.71638512  1  1.611588  0  0.23659  0.649359  0  4.174861  0
C  C120  1  0.56976704  0.51037122  0.19871585  1  -0.034514  0  -0.007852  -0.034629  0  3.916764  0
C  C121  1  0.06977099  0.98963199  0.30128668  1  -0.034373  0  -0.007799  -0.03448  0  3.916465  0
C  C122  1  0.43023682  0.48962900  0.80128393  1  -0.034401  0  -0.007913  -0.034784  0  3.916931  0
C  C123  1  0.93023746  0.01036637  0.69871348  1  -0.034394  0  -0.007891  -0.034647  0  3.916753  0
C  C124  1  0.45428229  0.47530109  0.15764648  1  0.003872  0  -0.073433  -0.072064  0  3.930903  0
C  C125  1  0.95428497  0.02470206  0.34235065  1  0.003911  0  -0.073358  -0.072145  0  3.930922  0
C  C126  1  0.54572271  0.52470098  0.84235292  1  0.003914  0  -0.073385  -0.072024  0  3.930845  0
C  C127  1  0.04572464  0.97529815  0.65764913  1  0.003913  0  -0.073338  -0.071977  0  3.931074  0
C  C128  1  0.44935094  0.39006044  0.14401388  1  -0.082044  0  -0.07709  -0.136067  0  3.934594  0
C  C129  1  0.94935465  0.10994146  0.35597973  1  -0.082036  0  -0.077185  -0.136005  0  3.934589  0
C  C130  1  0.55064947  0.60994164  0.85598454  1  -0.082077  0  -0.077128  -0.136053  0  3.934683  0
C  C131  1  0.05065955  0.89006063  0.64401721  1  -0.081886  0  -0.077215  -0.136086  0  3.934683  0
C  C132  1  0.55791038  0.33915539  0.17235509  1  0.349604  0  0.085574  0.161736  0  4.048893  0
C  C133  1  0.05791768  0.16084732  0.32764229  1  0.349482  0  0.085652  0.161809  0  4.048835  0
C  C134  1  0.44209118  0.66084421  0.82764367  1  0.349524  0  0.085614  0.161841  0  4.048958  0
C  C135  1  0.94209537  0.83915230  0.67235402  1  0.349435  0  0.085737  0.161814  0  4.048749  0
C  C136  1  0.67622802  0.37456593  0.21247008  1  -0.076542  0  -0.087337  -0.147744  0  3.955796  0
C  C137  1  0.17624348  0.12543639  0.28753028  1  -0.076372  0  -0.087281  -0.147527  0  3.95561  0
C  C138  1  0.32377354  0.62543366  0.78753064  1  -0.076525  0  -0.087364  -0.147757  0  3.95583  0
C  C139  1  0.82376727  0.87456014  0.71246486  1  -0.076127  0  -0.087306  -0.147505  0  3.955562  0
C  C140  1  0.68200636  0.45955956  0.22488678  1  -0.027336  0  -0.081995  -0.080234  0  3.972311  0
C  C141  1  0.18202195  0.04044216  0.27511748  1  -0.027098  0  -0.082182  -0.080458  0  3.972304  0
C  C142  1  0.31799864  0.54044002  0.77511394  1  -0.027291  0  -0.082009  -0.080177  0  3.972309  0
C  C143  1  0.81798765  0.95955497  0.72488162  1  -0.027424  0  -0.082136  -0.080424  0  3.972331  0
C  C144  1  0.58377722  0.85874210  0.17594711  1  1.593456  0  0.233986  0.64809  0  4.163261  0
C  C145  1  0.08376103  0.64126490  0.32405810  1  1.593185  0  0.233814  0.647858  0  4.163231  0
C  C146  1  0.41624158  0.14126302  0.82405886  1  1.593367  0  0.233878  0.647917  0  4.163197  0
C  C147  1  0.91622904  0.35873529  0.67594462  1  1.59326  0  0.233864  0.647929  0  4.163048  0
C  C148  1  0.59820024  0.95061892  0.17248597  1  -0.023792  0  -0.008664  -0.029799  0  3.913816  0
C  C149  1  0.09818062  0.54938700  0.32751133  1  -0.0237  0  -0.008639  -0.029693  0  3.913999  0
C  C150  1  0.40181051  0.04938315  0.82751343  1  -0.023806  0  -0.008658  -0.029723  0  3.91386  0
C  C151  1  0.90181060  0.45061506  0.67248856  1  -0.023483  0  -0.008618  -0.029596  0  3.913784  0
C  C152  1  0.48434961  0.99673094  0.14227174  1  -0.09479  0  -0.083483  -0.089243  0  3.984286  0
C  C153  1  0.98433916  0.50327099  0.35772798  1  -0.095359  0  -0.08347  -0.089228  0  3.984323  0
C  C154  1  0.51565884  0.00326926  0.85772853  1  -0.094978  0  -0.083491  -0.089323  0  3.984462  0
C  C155  1  0.01566125  0.49672675  0.64227067  1  -0.095267  0  -0.083456  -0.089178  0  3.984272  0
C  C156  1  0.49243115  0.08242058  0.14453891  1  -0.015837  0  -0.087829  -0.155871  0  3.968543  0
C  C157  1  0.99242302  0.41758159  0.35546015  1  -0.015868  0  -0.087848  -0.155884  0  3.96866  0
C  C158  1  0.50757041  0.91757901  0.85546035  1  -0.015823  0  -0.087826  -0.155834  0  3.968632  0
C  C159  1  0.00758083  0.58241678  0.64453755  1  -0.015989  0  -0.087838  -0.155834  0  3.968527  0
C  C160  1  0.61584920  0.12337422  0.17793495  1  0.371389  0  0.08623  0.163323  0  4.058378  0
C  C161  1  0.11584005  0.37663138  0.32206312  1  0.371055  0  0.08618  0.163412  0  4.058189  0
C  C162  1  0.38415466  0.87662538  0.82206331  1  0.371039  0  0.086243  0.163396  0  4.058363  0
C  C163  1  0.88415921  0.62336948  0.67793179  1  0.371406  0  0.086155  0.163281  0  4.05808  0
C  C164  1  0.73021699  0.07733295  0.20738821  1  -0.080849  0  -0.079672  -0.138756  0  3.941479  0
C  C165  1  0.23019969  0.42267723  0.29260627  1  -0.08073  0  -0.079766  -0.138983  0  3.941369  0
C  C166  1  0.26978802  0.92267036  0.79261028  1  -0.080686  0  -0.079719  -0.138876  0  3.941495  0
C  C167  1  0.76979842  0.57732796  0.70738939  1  -0.080839  0  -0.079636  -0.138802  0  3.94144  0
C  C168  1  0.72131144  0.99172960  0.20461790  1  -0.008117  0  -0.075852  -0.070587  0  3.950545  0
C  C169  1  0.22129067  0.50828281  0.29537691  1  -0.008206  0  -0.075748  -0.070465  0  3.950707  0
C  C170  1  0.27869701  0.00827495  0.79538116  1  -0.007979  0  -0.075841  -0.070483  0  3.950631  0
C  C171  1  0.77870169  0.49172175  0.70462019  1  -0.008099  0  -0.075811  -0.070663  0  3.950958  0
C  C172  1  0.65062678  0.66037698  0.41770082  1  1.37994  0  0.258963  0.550097  0  4.021607  0
C  C173  1  0.15064112  0.83963733  0.08230193  1  1.3795  0  0.258988  0.54992  0  4.021203  0
C  C174  1  0.34935984  0.33961764  0.58230304  1  1.380217  0  0.258871  0.550056  0  4.021976  0
C  C175  1  0.84936503  0.16037714  0.91769331  1  1.379901  0  0.258975  0.550091  0  4.022118  0
C  C176  1  0.53179282  0.59779122  0.39342470  1  -0.061559  0  -0.232916  -0.511248  0  3.888325  0
C  C177  1  0.03181341  0.90221788  0.10657915  1  -0.061123  0  -0.232874  -0.510975  0  3.888168  0
C  C178  1  0.46819955  0.40220961  0.60657512  1  -0.061192  0  -0.232937  -0.511299  0  3.888092  0
C  C179  1  0.96819389  0.09777922  0.89342388  1  -0.061354  0  -0.23287  -0.511088  0  3.887875  0
C  C180  1  0.70974314  0.58041177  0.51391781  1  0.263305  0  -0.130649  -0.26874  0  3.935869  0
C  C181  1  0.20975634  0.91958795  0.98608387  1  0.263082  0  -0.130645  -0.268599  0  3.935399  0
C  C182  1  0.29025612  0.41958783  0.48608095  1  0.263353  0  -0.130639  -0.268764  0  3.935893  0
C  C183  1  0.79024177  0.08041102  0.01391632  1  0.263065  0  -0.130652  -0.268604  0  3.935712  0
C  C184  1  0.83330133  0.71544453  0.49951808  1  0.270697  0  -0.132093  -0.266982  0  3.888908  0
C  C185  1  0.33330941  0.78455749  0.00048796  1  0.270169  0  -0.132154  -0.267013  0  3.888949  0
C  C186  1  0.16668988  0.28455692  0.50048080  1  0.270639  0  -0.132096  -0.266922  0  3.889043  0
C  C187  1  0.66670019  0.21544580  0.99951299  1  0.270256  0  -0.132008  -0.266763  0  3.888711  0
N  N188  1  0.06688948  0.01567745  0.50062251  1  -0.500552  0  -0.14655  -0.135441  0  3.293065  0
N  N189  1  0.56689159  0.48432017  0.99937926  1  -0.5004  0  -0.146601  -0.135397  0  3.292996  0
N  N190  1  0.93309828  0.98432026  0.49938154  1  -0.462092  0  -0.146618  -0.135387  0  3.293014  0
N  N191  1  0.43310422  0.51568006  0.00061806  1  -0.462133  0  -0.146588  -0.135417  0  3.2931  0
N  N192  1  0.53670340  0.25310635  0.15948100  1  -0.503256  0  -0.152754  -0.14714  0  3.292599  0
N  N193  1  0.03670486  0.24689684  0.34051443  1  -0.503669  0  -0.152796  -0.147297  0  3.292476  0
N  N194  1  0.46330275  0.74689757  0.84051901  1  -0.50323  0  -0.152778  -0.147245  0  3.292502  0
N  N195  1  0.96330704  0.75310094  0.65947979  1  -0.503415  0  -0.15273  -0.147155  0  3.292388  0
N  N196  1  0.63556100  0.20955802  0.18711027  1  -0.487434  0  -0.154513  -0.141791  0  3.308778  0
N  N197  1  0.13556460  0.29044713  0.31288484  1  -0.486917  0  -0.154454  -0.141739  0  3.30837  0
N  N198  1  0.36443940  0.79044281  0.81288906  1  -0.487422  0  -0.15446  -0.141706  0  3.308788  0
N  N199  1  0.86444040  0.70955251  0.68710803  1  -0.487166  0  -0.154504  -0.141729  0  3.30845  0
N  N200  1  0.72565526  0.65153118  0.47473026  1  -1.201316  0  -0.277775  -0.029655  0  3.642487  0
N  N201  1  0.22566502  0.84846944  0.02527563  1  -1.201931  0  -0.277706  -0.029352  0  3.642522  0
N  N202  1  0.27433710  0.34846967  0.52526760  1  -1.20134  0  -0.277759  -0.029664  0  3.6425  0
N  N203  1  0.77433883  0.15152889  0.97472845  1  -1.201294  0  -0.277792  -0.029733  0  3.642409  0
O  O204  1  0.64661727  0.87253130  0.33533492  1  -1.174769  0  -0.380157  -0.631768  0  2.234562  0
O  O205  1  0.14661740  0.62747989  0.16466714  1  -1.174744  0  -0.380304  -0.631878  0  2.234505  0
O  O206  1  0.35337050  0.12746703  0.66466818  1  -1.174584  0  -0.380219  -0.631781  0  2.234265  0
O  O207  1  0.85338186  0.37252467  0.83532995  1  -1.174976  0  -0.380237  -0.63185  0  2.234579  0
O  O208  1  0.68384390  0.63123304  0.25023053  1  -1.199448  0  -0.403497  -0.683047  0  2.34362  0
O  O209  1  0.18385268  0.86876539  0.24977864  1  -1.199559  0  -0.403519  -0.683032  0  2.343723  0
O  O210  1  0.31615651  0.36876345  0.74977197  1  -1.199437  0  -0.403553  -0.683067  0  2.343356  0
O  O211  1  0.81615692  0.13122988  0.75021986  1  -1.199445  0  -0.403505  -0.683001  0  2.343914  0
O  O212  1  0.45573359  0.82566721  0.16031853  1  -1.193537  0  -0.385722  -0.659594  0  2.29885  0
O  O213  1  0.95571931  0.67434061  0.33969430  1  -1.193561  0  -0.385725  -0.659636  0  2.298624  0
O  O214  1  0.54427257  0.17433358  0.83968766  1  -1.193772  0  -0.385623  -0.659477  0  2.299001  0
O  O215  1  0.04427535  0.32565769  0.66031273  1  -1.193441  0  -0.385724  -0.659609  0  2.298454  0
O  O216  1  0.70094465  0.82022183  0.19560270  1  -1.209358  0  -0.405337  -0.688358  0  2.374026  0
O  O217  1  0.20092475  0.67978664  0.30440267  1  -1.209223  0  -0.405229  -0.688202  0  2.374122  0
O  O218  1  0.29906266  0.17978515  0.80440191  1  -1.209078  0  -0.405362  -0.688363  0  2.373753  0
O  O219  1  0.79906416  0.32021543  0.69559575  1  -1.209344  0  -0.405236  -0.688264  0  2.374216  0
O  O220  1  0.45842290  0.64338966  0.19745833  1  -1.203817  0  -0.411247  -0.684855  0  2.372101  0
O  O221  1  0.95841996  0.85661394  0.30254197  1  -1.20356  0  -0.41132  -0.684983  0  2.371863  0
O  O222  1  0.54157865  0.35661365  0.80253967  1  -1.203876  0  -0.411184  -0.684814  0  2.372302  0
O  O223  1  0.04158850  0.14338564  0.69746023  1  -1.203551  0  -0.411333  -0.685023  0  2.371591  0
O  O224  1  0.46426189  0.78640592  0.29569613  1  -1.206639  0  -0.398462  -0.735226  0  2.383536  0
O  O225  1  0.96425616  0.71359395  0.20431279  1  -1.206846  0  -0.398427  -0.735253  0  2.383373  0
O  O226  1  0.53573392  0.21359119  0.70430592  1  -1.206705  0  -0.398431  -0.735259  0  2.383495  0
O  O227  1  0.03573621  0.28640068  0.79569009  1  -1.206834  0  -0.398511  -0.735368  0  2.383244  0
O  O228  1  0.67843118  0.72166720  0.38527310  1  -1.184698  0  -0.376252  -0.609247  0  2.378068  0
O  O229  1  0.17844296  0.77833610  0.11474078  1  -1.184298  0  -0.376434  -0.609457  0  2.377373  0
O  O230  1  0.32155888  0.27833982  0.61472464  1  -1.185193  0  -0.376156  -0.609077  0  2.378724  0
O  O231  1  0.82157814  0.22165662  0.88526886  1  -1.184843  0  -0.376247  -0.609189  0  2.378942  0
