# generated using pymatgen
data_ZnH11C8N5Cl2
_symmetry_space_group_name_H-M   'P 1'
_cell_length_a   6.87546451
_cell_length_b   13.02376565
_cell_length_c   13.84521823
_cell_angle_alpha   108.24530626
_cell_angle_beta   89.99997824
_cell_angle_gamma   90.00005578
_symmetry_Int_Tables_number   1
_chemical_formula_structural   ZnH11C8N5Cl2
_chemical_formula_sum   'Zn4 H44 C32 N20 Cl8'
_cell_volume   1177.43296789
_cell_formula_units_Z   4
loop_
 _symmetry_equiv_pos_site_id
 _symmetry_equiv_pos_as_xyz
  1  'x, y, z'
loop_
 _atom_site_type_symbol
 _atom_site_label
 _atom_site_symmetry_multiplicity
 _atom_site_fract_x
 _atom_site_fract_y
 _atom_site_fract_z
 _atom_site_occupancy
 _atom_site_hle17_bader_spin_density
 _atom_site_hle17_ddec_charge
 _atom_site_hle17_ddec_spin_density
 _atom_site_hle17_ddec_sum_bond_order
 _atom_site_hle17_magmom
 _atom_site_hse06_10hf_bader_spin_density
 _atom_site_hse06_10hf_ddec_charge
 _atom_site_hse06_10hf_ddec_spin_density
 _atom_site_hse06_10hf_ddec_sum_bond_order
 _atom_site_hse06_10hf_magmom
 _atom_site_hse06_bader_spin_density
 _atom_site_hse06_ddec_charge
 _atom_site_hse06_ddec_spin_density
 _atom_site_hse06_ddec_sum_bond_order
 _atom_site_hse06_magmom
 _atom_site_pbe_bader_spin_density
 _atom_site_pbe_cm5_charge
 _atom_site_pbe_ddec_charge
 _atom_site_pbe_ddec_spin_density
 _atom_site_pbe_ddec_sum_bond_order
 _atom_site_pbe_magmom
Zn  Zn0  1  0.12360179  0.18486142  0.55204140  1  0  0.852841  0  2.145804  0  0  0.683991  0  2.637114  0  0  0.722836  0  2.591806  0  0  0.554452  0.657188  0  2.66806  0
Zn  Zn1  1  0.62360143  0.31513974  0.94795788  1  0  0.852802  0  2.145814  0  0  0.683929  0  2.637149  0  0  0.722779  0  2.591836  0  0  0.554432  0.657124  0  2.668089  0
Zn  Zn2  1  0.87639664  0.81513904  0.44795846  1  0  0.852809  0  2.14582  0  0  0.683966  0  2.637138  0  0  0.722802  0  2.591823  0  0  0.554459  0.657157  0  2.66808  0
Zn  Zn3  1  0.37639700  0.68485991  0.05204173  1  0  0.852808  0  2.145843  0  0  0.683953  0  2.637163  0  0  0.722816  0  2.591858  0  0  0.554446  0.657154  0  2.668112  0
H  H4  1  0.42698409  0.99769996  0.90220610  1  0  0.070164  0  0.943694  0  0  0.088281  0  1.006463  0  0  0.089085  0  1.007189  0  0  0.088103  0.08765  0  1.00601  0
H  H5  1  0.92699069  0.50230837  0.59779566  1  0  0.070223  0  0.943681  0  0  0.088345  0  1.006428  0  0  0.089143  0  1.007164  0  0  0.088114  0.087714  0  1.005973  0
H  H6  1  0.57301579  0.00230048  0.09779520  1  0  0.070159  0  0.943661  0  0  0.088282  0  1.006426  0  0  0.089082  0  1.007162  0  0  0.088094  0.087651  0  1.005974  0
H  H7  1  0.07301210  0.49769209  0.40220348  1  0  0.070225  0  0.943674  0  0  0.088341  0  1.006417  0  0  0.089143  0  1.007142  0  0  0.088113  0.087711  0  1.005961  0
H  H8  1  0.58244616  0.00531286  0.80337386  1  0  0.067968  0  0.943775  0  0  0.084757  0  1.006703  0  0  0.084681  0  1.008692  0  0  0.082199  0.084694  0  1.00548  0
H  H9  1  0.08244844  0.49469229  0.69662954  1  0  0.067977  0  0.943707  0  0  0.084777  0  1.006626  0  0  0.084701  0  1.008617  0  0  0.082195  0.084695  0  1.005424  0
H  H10  1  0.41755517  0.99468759  0.19662672  1  0  0.067973  0  0.943781  0  0  0.084761  0  1.006713  0  0  0.084686  0  1.008702  0  0  0.082204  0.0847  0  1.005487  0
H  H11  1  0.91755435  0.50530654  0.30337055  1  0  0.067958  0  0.943696  0  0  0.084742  0  1.006615  0  0  0.084666  0  1.008604  0  0  0.082186  0.084657  0  1.005416  0
H  H12  1  0.88859747  0.07580975  0.05174196  1  0  0.328887  0  0.918238  0  0  0.302875  0  0.998415  0  0  0.311633  0  0.990561  0  0  0.299278  0.296709  0  1.003873  0
H  H13  1  0.38859796  0.42419190  0.44825724  1  0  0.328993  0  0.918184  0  0  0.302991  0  0.99833  0  0  0.311748  0  0.990478  0  0  0.299322  0.296825  0  1.003791  0
H  H14  1  0.11140096  0.92419071  0.94825790  1  0  0.328901  0  0.918237  0  0  0.302892  0  0.998404  0  0  0.31165  0  0.99055  0  0  0.299281  0.296725  0  1.003863  0
H  H15  1  0.61140192  0.57580856  0.55174190  1  0  0.328922  0  0.918234  0  0  0.302929  0  0.998374  0  0  0.311685  0  0.990523  0  0  0.299302  0.296762  0  1.003835  0
H  H16  1  0.77160039  0.19818310  0.05807481  1  0  0.31765  0  0.926839  0  0  0.300208  0  0.995669  0  0  0.307296  0  0.989645  0  0  0.289394  0.295102  0  1.000094  0
H  H17  1  0.27159921  0.30181849  0.44192440  1  0  0.317658  0  0.926861  0  0  0.300227  0  0.995678  0  0  0.307316  0  0.989656  0  0  0.289407  0.295131  0  1.000094  0
H  H18  1  0.22839804  0.80181655  0.94192481  1  0  0.317648  0  0.926853  0  0  0.3002  0  0.99569  0  0  0.307289  0  0.989665  0  0  0.289394  0.295094  0  1.000114  0
H  H19  1  0.72839921  0.69818198  0.55807474  1  0  0.317672  0  0.926828  0  0  0.300235  0  0.995654  0  0  0.307323  0  0.989629  0  0  0.289414  0.29513  0  1.000077  0
H  H20  1  0.41158871  0.84468882  0.68154877  1  0  0.087329  0  0.929484  0  0  0.103973  0  0.989194  0  0  0.104877  0  0.989006  0  0  0.107504  0.103212  0  0.989444  0
H  H21  1  0.91158379  0.65531380  0.81845559  1  0  0.087357  0  0.929442  0  0  0.103957  0  0.989219  0  0  0.104866  0  0.989032  0  0  0.107506  0.103196  0  0.989468  0
H  H22  1  0.58841117  0.15531162  0.31845253  1  0  0.087374  0  0.929425  0  0  0.103987  0  0.989157  0  0  0.104891  0  0.988971  0  0  0.107509  0.103226  0  0.989407  0
H  H23  1  0.08841755  0.34468503  0.18154450  1  0  0.087355  0  0.929499  0  0  0.103978  0  0.989238  0  0  0.104884  0  0.98905  0  0  0.107508  0.103217  0  0.989487  0
H  H24  1  0.24636201  0.84410105  0.77954442  1  0  0.070229  0  0.934301  0  0  0.091092  0  0.989962  0  0  0.091431  0  0.990116  0  0  0.11101  0.090726  0  0.990015  0
H  H25  1  0.74636008  0.65590231  0.72045876  1  0  0.070255  0  0.934204  0  0  0.091067  0  0.989943  0  0  0.091412  0  0.990101  0  0  0.111028  0.090701  0  0.989995  0
H  H26  1  0.75363787  0.15589940  0.22045616  1  0  0.070235  0  0.934343  0  0  0.091085  0  0.989994  0  0  0.091424  0  0.990148  0  0  0.111013  0.090719  0  0.990047  0
H  H27  1  0.25364125  0.34409653  0.27954061  1  0  0.070283  0  0.934178  0  0  0.091098  0  0.989904  0  0  0.091437  0  0.990062  0  0  0.111038  0.090734  0  0.989957  0
H  H28  1  0.72593107  0.90022599  0.91777720  1  0  0.100287  0  0.966143  0  0  0.11997  0  1.030678  0  0  0.121234  0  1.031137  0  0  0.080778  0.118958  0  1.030519  0
H  H29  1  0.22593706  0.59978541  0.58223131  1  0  0.1003  0  0.966189  0  0  0.119943  0  1.030758  0  0  0.121211  0  1.031212  0  0  0.080804  0.118932  0  1.030601  0
H  H30  1  0.27407027  0.09977365  0.08222313  1  0  0.100279  0  0.966161  0  0  0.119955  0  1.030699  0  0  0.121207  0  1.031172  0  0  0.080767  0.118943  0  1.03054  0
H  H31  1  0.77406718  0.40021665  0.41776976  1  0  0.100315  0  0.966186  0  0  0.119952  0  1.030761  0  0  0.121209  0  1.031228  0  0  0.080782  0.118941  0  1.030603  0
H  H32  1  0.72691571  0.82987377  0.78533370  1  0  0.084893  0  0.97771  0  0  0.102823  0  1.046695  0  0  0.104167  0  1.046628  0  0  0.073549  0.101789  0  1.046813  0
H  H33  1  0.22691737  0.67013356  0.71467575  1  0  0.084827  0  0.977779  0  0  0.102722  0  1.046797  0  0  0.10406  0  1.046735  0  0  0.073489  0.101691  0  1.046913  0
H  H34  1  0.27308417  0.17012588  0.21466591  1  0  0.084925  0  0.977668  0  0  0.102825  0  1.046685  0  0  0.104169  0  1.046617  0  0  0.07355  0.101791  0  1.046805  0
H  H35  1  0.77308541  0.32986606  0.28532603  1  0  0.084898  0  0.977754  0  0  0.10279  0  1.046774  0  0  0.104128  0  1.046712  0  0  0.073515  0.101758  0  1.046891  0
H  H36  1  0.55190784  0.79867398  0.86697970  1  0  0.084835  0  0.975154  0  0  0.104064  0  1.043445  0  0  0.10508  0  1.04377  0  0  0.074226  0.103252  0  1.043299  0
H  H37  1  0.05191253  0.70133650  0.63303074  1  0  0.084765  0  0.975164  0  0  0.104001  0  1.043463  0  0  0.10502  0  1.043784  0  0  0.074195  0.103189  0  1.043317  0
H  H38  1  0.44809204  0.20132647  0.13302088  1  0  0.0848  0  0.975123  0  0  0.104023  0  1.043433  0  0  0.105041  0  1.043753  0  0  0.074202  0.103211  0  1.043286  0
H  H39  1  0.94809026  0.29866393  0.36697128  1  0  0.084833  0  0.97515  0  0  0.104073  0  1.04343  0  0  0.105093  0  1.04375  0  0  0.074223  0.103259  0  1.043285  0
H  H40  1  0.83036275  0.24789476  0.75078868  1  0  0.092327  0  0.969286  0  0  0.098226  0  1.037217  0  0  0.100582  0  1.034819  0  0  0.112507  0.096457  0  1.038963  0
H  H41  1  0.33035872  0.25210651  0.74920987  1  0  0.092358  0  0.96928  0  0  0.098255  0  1.037208  0  0  0.100613  0  1.034807  0  0  0.112525  0.096485  0  1.038957  0
H  H42  1  0.16963568  0.75210488  0.24921093  1  0  0.092336  0  0.969292  0  0  0.09824  0  1.037217  0  0  0.100598  0  1.034815  0  0  0.112504  0.096472  0  1.038963  0
H  H43  1  0.66963535  0.74789477  0.25078951  1  0  0.092295  0  0.969379  0  0  0.098227  0  1.037275  0  0  0.100584  0  1.034876  0  0  0.112488  0.096457  0  1.039023  0
H  H44  1  0.35293101  0.97356885  0.58382658  1  0  0.108979  0  0.934634  0  0  0.114035  0  1.003062  0  0  0.117161  0  0.998647  0  0  0.135535  0.111637  0  1.006355  0
H  H45  1  0.85293160  0.52642975  0.91617152  1  0  0.10898  0  0.934601  0  0  0.114036  0  1.003029  0  0  0.117163  0  0.998611  0  0  0.13552  0.111639  0  1.006322  0
H  H46  1  0.64707033  0.02643240  0.41617424  1  0  0.108967  0  0.934629  0  0  0.114026  0  1.003061  0  0  0.117152  0  0.998645  0  0  0.135532  0.111628  0  1.006354  0
H  H47  1  0.14706974  0.47356748  0.08382664  1  0  0.108999  0  0.934595  0  0  0.114051  0  1.00303  0  0  0.117179  0  0.998611  0  0  0.135531  0.111654  0  1.006323  0
C  C48  1  0.49842215  0.94890575  0.83178787  1  0  -0.090606  0  3.698102  0  0  -0.127567  0  3.960578  0  0  -0.129233  0  3.975725  0  0  -0.175371  -0.126264  0  3.95003  0
C  C49  1  0.99842443  0.55110016  0.66821604  1  0  -0.090755  0  3.698121  0  0  -0.127712  0  3.960617  0  0  -0.129373  0  3.975762  0  0  -0.17537  -0.126393  0  3.95007  0
C  C50  1  0.50157918  0.05109469  0.16821343  1  0  -0.090609  0  3.698142  0  0  -0.127609  0  3.960638  0  0  -0.129274  0  3.975777  0  0  -0.175368  -0.126306  0  3.950091  0
C  C51  1  0.00157836  0.44889949  0.33178358  1  0  -0.090685  0  3.698106  0  0  -0.127585  0  3.960482  0  0  -0.129248  0  3.975623  0  0  -0.17535  -0.126264  0  3.949936  0
C  C52  1  0.08609574  0.04039724  0.78740435  1  0  0.330863  0  3.813798  0  0  0.289851  0  4.085106  0  0  0.308019  0  4.098293  0  0  0.240748  0.277998  0  4.076052  0
C  C53  1  0.58609291  0.45960470  0.71259518  1  0  0.330789  0  3.814076  0  0  0.289827  0  4.085333  0  0  0.307996  0  4.098516  0  0  0.240701  0.277975  0  4.076279  0
C  C54  1  0.91390560  0.95960400  0.21259720  1  0  0.330902  0  3.813818  0  0  0.289794  0  4.085226  0  0  0.307962  0  4.098411  0  0  0.240736  0.277941  0  4.076173  0
C  C55  1  0.41390551  0.54039495  0.28740371  1  0  0.330809  0  3.813996  0  0  0.289752  0  4.085349  0  0  0.307919  0  4.098534  0  0  0.240667  0.277899  0  4.076298  0
C  C56  1  0.34458671  0.89549913  0.75231070  1  0  0.015914  0  3.606585  0  0  -0.045769  0  3.859761  0  0  -0.041  0  3.870272  0  0  -0.051662  -0.048793  0  3.852488  0
C  C57  1  0.84458611  0.60450429  0.74769175  1  0  0.016056  0  3.606419  0  0  -0.045602  0  3.859629  0  0  -0.040849  0  3.870157  0  0  -0.051677  -0.048624  0  3.852348  0
C  C58  1  0.65541463  0.10450132  0.24768988  1  0  0.015847  0  3.606689  0  0  -0.045753  0  3.859755  0  0  -0.040984  0  3.870265  0  0  -0.051685  -0.048778  0  3.852481  0
C  C59  1  0.15541668  0.39549536  0.25230786  1  0  0.015934  0  3.606544  0  0  -0.045726  0  3.859675  0  0  -0.040961  0  3.870191  0  0  -0.051694  -0.048749  0  3.852395  0
C  C60  1  0.63269663  0.86468438  0.85151956  1  0  -0.287361  0  3.719987  0  0  -0.359704  0  3.964918  0  0  -0.362362  0  3.976396  0  0  -0.2578  -0.357554  0  3.956981  0
C  C61  1  0.13270264  0.63532292  0.64848845  1  0  -0.287212  0  3.720091  0  0  -0.359496  0  3.965029  0  0  -0.362155  0  3.976514  0  0  -0.25774  -0.357346  0  3.957081  0
C  C62  1  0.36730325  0.13531526  0.14848077  1  0  -0.287326  0  3.719953  0  0  -0.359628  0  3.964878  0  0  -0.362276  0  3.976359  0  0  -0.25776  -0.357478  0  3.956938  0
C  C63  1  0.86730015  0.36467752  0.35151285  1  0  -0.287362  0  3.720125  0  0  -0.359679  0  3.965061  0  0  -0.362331  0  3.976553  0  0  -0.25776  -0.357525  0  3.957113  0
C  C64  1  0.89447023  0.11859058  0.92167480  1  0  0.645298  0  3.771087  0  0  0.598904  0  4.043597  0  0  0.62528  0  4.051429  0  0  0.350491  0.581284  0  4.037888  0
C  C65  1  0.39446948  0.38141153  0.57832400  1  0  0.645085  0  3.771257  0  0  0.598801  0  4.043653  0  0  0.625177  0  4.05149  0  0  0.35047  0.581183  0  4.037942  0
C  C66  1  0.10552819  0.88140988  0.07832506  1  0  0.645291  0  3.771122  0  0  0.598857  0  4.04366  0  0  0.625235  0  4.05149  0  0  0.350474  0.581238  0  4.037949  0
C  C67  1  0.60553040  0.61858894  0.42167514  1  0  0.645326  0  3.771115  0  0  0.598905  0  4.043636  0  0  0.625282  0  4.051468  0  0  0.350512  0.581285  0  4.037929  0
C  C68  1  0.02780304  0.11411456  0.73691291  1  0  0.028804  0  3.858736  0  0  0.025852  0  4.115488  0  0  0.019298  0  4.139708  0  0  0.075704  0.029602  0  4.09958  0
C  C69  1  0.52780149  0.38588656  0.76308566  1  0  0.028873  0  3.8588  0  0  0.025909  0  4.115527  0  0  0.019355  0  4.139746  0  0  0.075712  0.02966  0  4.099616  0
C  C70  1  0.97219830  0.88588589  0.26308767  1  0  0.028754  0  3.85869  0  0  0.025831  0  4.115449  0  0  0.019276  0  4.139667  0  0  0.075673  0.029582  0  4.099542  0
C  C71  1  0.47219839  0.61411230  0.23691227  1  0  0.028838  0  3.858708  0  0  0.025837  0  4.115545  0  0  0.019282  0  4.139766  0  0  0.075694  0.029588  0  4.099639  0
C  C72  1  0.88914125  0.18961702  0.78493770  1  0  0.138381  0  3.673556  0  0  0.097505  0  3.921898  0  0  0.110937  0  3.935188  0  0  0.063065  0.088774  0  3.913022  0
C  C73  1  0.38913881  0.31038347  0.71506060  1  0  0.138298  0  3.673556  0  0  0.097426  0  3.921896  0  0  0.11086  0  3.935187  0  0  0.063036  0.088697  0  3.913015  0
C  C74  1  0.11085863  0.81038262  0.21506263  1  0  0.138364  0  3.673551  0  0  0.097491  0  3.921879  0  0  0.110923  0  3.935168  0  0  0.063069  0.08876  0  3.913004  0
C  C75  1  0.61085816  0.68961618  0.28493829  1  0  0.13839  0  3.673626  0  0  0.097505  0  3.921956  0  0  0.110936  0  3.935247  0  0  0.063093  0.088776  0  3.913078  0
C  C76  1  0.24902730  0.01097508  0.64365181  1  0  0.249105  0  3.582982  0  0  0.178811  0  3.857738  0  0  0.197664  0  3.865505  0  0  0.180233  0.166444  0  3.85228  0
C  C77  1  0.74902879  0.48902453  0.85634626  1  0  0.249107  0  3.582847  0  0  0.178794  0  3.857612  0  0  0.197646  0  3.865376  0  0  0.180207  0.166428  0  3.852153  0
C  C78  1  0.75097403  0.98902617  0.35634901  1  0  0.249144  0  3.582915  0  0  0.178837  0  3.857693  0  0  0.19769  0  3.865457  0  0  0.180243  0.166471  0  3.852234  0
C  C79  1  0.25097400  0.51097271  0.14365118  1  0  0.249082  0  3.583027  0  0  0.178778  0  3.857786  0  0  0.197632  0  3.865551  0  0  0.180227  0.166415  0  3.852328  0
N  N80  1  0.82228465  0.19159819  0.87682499  1  0  -0.465339  0  3.188587  0  0  -0.381617  0  3.463366  0  0  -0.407111  0  3.473912  0  0  -0.335804  -0.364627  0  3.455824  0
N  N81  1  0.32228227  0.30840308  0.62317357  1  0  -0.465264  0  3.1886  0  0  -0.38157  0  3.463334  0  0  -0.407067  0  3.473882  0  0  -0.335808  -0.364584  0  3.455801  0
N  N82  1  0.17771378  0.80840146  0.12317462  1  0  -0.465318  0  3.18851  0  0  -0.381605  0  3.463305  0  0  -0.4071  0  3.473852  0  0  -0.335803  -0.364618  0  3.45577  0
N  N83  1  0.67771470  0.69159739  0.37682557  1  0  -0.465318  0  3.18855  0  0  -0.38159  0  3.463323  0  0  -0.407079  0  3.473863  0  0  -0.335809  -0.3646  0  3.455787  0
N  N84  1  0.83041091  0.12642767  0.01554145  1  0  -0.67951  0  3.095088  0  0  -0.643064  0  3.332656  0  0  -0.665098  0  3.328333  0  0  -0.568866  -0.627655  0  3.335338  0
N  N85  1  0.33040693  0.37357476  0.48445800  1  0  -0.679632  0  3.095218  0  0  -0.643232  0  3.332752  0  0  -0.665248  0  3.32839  0  0  -0.568929  -0.627832  0  3.335419  0
N  N86  1  0.16959042  0.87357197  0.98445888  1  0  -0.679558  0  3.095156  0  0  -0.643091  0  3.332725  0  0  -0.665127  0  3.328398  0  0  -0.568878  -0.627681  0  3.335407  0
N  N87  1  0.66959005  0.62642652  0.51554139  1  0  -0.679602  0  3.095138  0  0  -0.64317  0  3.332707  0  0  -0.665202  0  3.328381  0  0  -0.568921  -0.627759  0  3.335393  0
N  N88  1  0.13317484  0.09356530  0.64700373  1  0  -0.396656  0  3.28175  0  0  -0.322632  0  3.577334  0  0  -0.342552  0  3.590534  0  0  -0.351685  -0.309157  0  3.568306  0
N  N89  1  0.63317472  0.40643345  0.85299410  1  0  -0.396579  0  3.281573  0  0  -0.322528  0  3.577124  0  0  -0.342451  0  3.590333  0  0  -0.351631  -0.309052  0  3.568094  0
N  N90  1  0.86682504  0.90643434  0.35299661  1  0  -0.396608  0  3.281642  0  0  -0.32259  0  3.577228  0  0  -0.342509  0  3.590427  0  0  -0.351676  -0.309113  0  3.568197  0
N  N91  1  0.36682516  0.59356460  0.14700358  1  0  -0.396568  0  3.281639  0  0  -0.322525  0  3.577241  0  0  -0.34245  0  3.590448  0  0  -0.351644  -0.309051  0  3.568215  0
N  N92  1  0.22528285  0.97575705  0.72632327  1  0  -0.142722  0  3.464558  0  0  -0.053718  0  3.694024  0  0  -0.072276  0  3.714707  0  0  -0.228744  -0.041468  0  3.679689  0
N  N93  1  0.72528209  0.52424391  0.77367629  1  0  -0.142919  0  3.464599  0  0  -0.053884  0  3.694017  0  0  -0.072438  0  3.714699  0  0  -0.22872  -0.041634  0  3.679683  0
N  N94  1  0.77471994  0.02424420  0.27367828  1  0  -0.142797  0  3.464655  0  0  -0.053782  0  3.694128  0  0  -0.072339  0  3.714808  0  0  -0.228756  -0.041534  0  3.679795  0
N  N95  1  0.27471924  0.47575494  0.22632235  1  0  -0.14287  0  3.464624  0  0  -0.053845  0  3.694085  0  0  -0.072402  0  3.714764  0  0  -0.228777  -0.041596  0  3.679753  0
N  N96  1  0.02213348  0.03850695  0.87726840  1  0  -0.488231  0  2.96966  0  0  -0.442672  0  3.235375  0  0  -0.461806  0  3.242658  0  0  -0.314811  -0.430044  0  3.230426  0
N  N97  1  0.52213218  0.46149415  0.62273089  1  0  -0.488031  0  2.969789  0  0  -0.442573  0  3.235501  0  0  -0.461708  0  3.242784  0  0  -0.314788  -0.429946  0  3.230553  0
N  N98  1  0.97786495  0.96149349  0.12273290  1  0  -0.488208  0  2.969719  0  0  -0.44256  0  3.235416  0  0  -0.461694  0  3.242699  0  0  -0.314764  -0.429933  0  3.230466  0
N  N99  1  0.47786770  0.53850470  0.37726704  1  0  -0.488205  0  2.969808  0  0  -0.442566  0  3.235472  0  0  -0.461702  0  3.242758  0  0  -0.314751  -0.429937  0  3.230526  0
Cl  Cl100  1  0.25505616  0.10403473  0.39928089  1  0  -0.559991  0  0.958848  0  0  -0.501135  0  1.233002  0  0  -0.516602  0  1.211731  0  0  -0.30586  -0.489994  0  1.247467  0
Cl  Cl101  1  0.75505331  0.39596603  0.10071879  1  0  -0.560001  0  0.958862  0  0  -0.501142  0  1.233023  0  0  -0.516605  0  1.211745  0  0  -0.305862  -0.490001  0  1.247488  0
Cl  Cl102  1  0.74494517  0.89596572  0.60071969  1  0  -0.559999  0  0.958851  0  0  -0.501147  0  1.233006  0  0  -0.516606  0  1.211725  0  0  -0.305861  -0.490005  0  1.247469  0
Cl  Cl103  1  0.24494657  0.60403442  0.89928107  1  0  -0.560012  0  0.958882  0  0  -0.501149  0  1.233035  0  0  -0.516619  0  1.211762  0  0  -0.305862  -0.490011  0  1.247501  0
Cl  Cl104  1  0.81698626  0.23911165  0.55075257  1  0  -0.564325  0  0.93591  0  0  -0.507312  0  1.212486  0  0  -0.523199  0  1.191968  0  0  -0.328162  -0.495897  0  1.226474  0
Cl  Cl105  1  0.31698501  0.26088879  0.94924718  1  0  -0.56432  0  0.935906  0  0  -0.507291  0  1.212472  0  0  -0.52318  0  1.191951  0  0  -0.328153  -0.495877  0  1.22646  0
Cl  Cl106  1  0.18301216  0.76088636  0.44924799  1  0  -0.564297  0  0.935854  0  0  -0.507304  0  1.212454  0  0  -0.523188  0  1.191933  0  0  -0.328163  -0.495887  0  1.226442  0
Cl  Cl107  1  0.68301342  0.73911167  0.05075268  1  0  -0.564313  0  0.935896  0  0  -0.507297  0  1.212474  0  0  -0.52319  0  1.191958  0  0  -0.328155  -0.495883  0  1.226464  0
