# generated using pymatgen
data_Cd2H28C47(N3O)6
_symmetry_space_group_name_H-M   'P 1'
_cell_length_a   10.23786338
_cell_length_b   15.46925923
_cell_length_c   16.00846474
_cell_angle_alpha   80.44163004
_cell_angle_beta   71.14768958
_cell_angle_gamma   73.65930548
_symmetry_Int_Tables_number   1
_chemical_formula_structural   Cd2H28C47(N3O)6
_chemical_formula_sum   'Cd4 H56 C94 N36 O12'
_cell_volume   2294.47597756
_cell_formula_units_Z   2
loop_
 _symmetry_equiv_pos_site_id
 _symmetry_equiv_pos_as_xyz
  1  'x, y, z'
loop_
 _atom_site_type_symbol
 _atom_site_label
 _atom_site_symmetry_multiplicity
 _atom_site_fract_x
 _atom_site_fract_y
 _atom_site_fract_z
 _atom_site_occupancy
 _atom_site_pbe_bader_charge
 _atom_site_pbe_bader_spin_density
 _atom_site_pbe_cm5_charge
 _atom_site_pbe_ddec_charge
 _atom_site_pbe_ddec_spin_density
 _atom_site_pbe_ddec_sum_bond_order
 _atom_site_pbe_magmom
Cd  Cd0  1  0.60395540  0.64059646  0.05729001  1  1.223752  0  0.784352  0.771981  0  2.199253  0
Cd  Cd1  1  0.39604495  0.35940379  0.94270857  1  1.223395  0  0.784338  0.77199  0  2.199259  0
Cd  Cd2  1  0.80664208  0.95116827  0.34957616  1  1.218707  0  0.79085  0.769231  0  2.244993  0
Cd  Cd3  1  0.19335168  0.04883208  0.65042795  1  1.218645  0  0.790887  0.769309  0  2.244895  0
H  H4  1  0.52346478  0.58627411  0.26831051  1  0.1068  0  0.112997  0.079912  0  1.031796  0
H  H5  1  0.47654356  0.41372964  0.73169861  1  0.106769  0  0.11301  0.08002  0  1.031822  0
H  H6  1  0.29265489  0.76816865  0.11636850  1  0.162815  0  0.121434  0.093839  0  1.014255  0
H  H7  1  0.70734320  0.23182893  0.88363280  1  0.162751  0  0.12147  0.093883  0  1.01432  0
H  H8  1  0.22242598  0.72625959  0.52956950  1  0.550231  0  0.296015  0.21312  0  1.08101  0
H  H9  1  0.77756838  0.27374210  0.47043367  1  0.550749  0  0.296024  0.213074  0  1.081071  0
H  H10  1  0.02621207  0.42642409  0.27804050  1  0.54327  0  0.301642  0.229394  0  1.073068  0
H  H11  1  0.97378199  0.57357350  0.72196026  1  0.543298  0  0.301631  0.229403  0  1.073136  0
H  H12  1  0.86833090  0.94101007  0.67490465  1  0.174401  0  0.114235  0.135436  0  1.020809  0
H  H13  1  0.13165553  0.05900053  0.32510472  1  0.174332  0  0.114237  0.135403  0  1.020797  0
H  H14  1  0.99986909  0.32465119  0.04657699  1  0.143586  0  0.112495  0.133635  0  1.02712  0
H  H15  1  0.00014179  0.67535517  0.95342625  1  0.143848  0  0.112428  0.133577  0  1.027239  0
H  H16  1  0.87267962  0.73924102  0.41237990  1  0.088462  0  0.108391  0.072254  0  1.038244  0
H  H17  1  0.12732249  0.26075908  0.58761026  1  0.088378  0  0.108366  0.072244  0  1.038167  0
H  H18  1  0.67042009  0.88523251  0.22883554  1  0.092741  0  0.127071  0.101853  0  0.968574  0
H  H19  1  0.32957132  0.11476835  0.77115764  1  0.09287  0  0.127091  0.10183  0  0.968597  0
H  H20  1  0.67700094  0.74685938  0.16810931  1  0.146141  0  0.107266  0.123878  0  1.057156  0
H  H21  1  0.32297829  0.25314026  0.83188935  1  0.146321  0  0.107305  0.123958  0  1.057183  0
H  H22  1  0.89706093  0.84110125  0.85854789  1  0.08988  0  0.109252  0.115759  0  1.002268  0
H  H23  1  0.10297206  0.15889282  0.14145282  1  0.089535  0  0.109309  0.115716  0  1.002238  0
H  H24  1  0.86847106  0.10447281  0.92638360  1  0.106285  0  0.107367  0.112607  0  1.02101  0
H  H25  1  0.13152795  0.89552479  0.07361879  1  0.106163  0  0.107398  0.112693  0  1.020986  0
H  H26  1  0.51702609  0.15181532  0.61986057  1  0.104149  0  0.104856  0.112107  0  1.036221  0
H  H27  1  0.48296671  0.84818962  0.38013421  1  0.104266  0  0.104878  0.1121  0  1.036231  0
H  H28  1  0.36098369  0.18949587  0.22552386  1  0.221536  0  0.120528  0.151643  0  1.03146  0
H  H29  1  0.63900803  0.81051116  0.77447452  1  0.22124  0  0.120563  0.151721  0  1.031315  0
H  H30  1  0.25935643  0.75308210  0.80141496  1  0.109606  0  0.119008  0.1337  0  0.981637  0
H  H31  1  0.74065357  0.24690135  0.19859278  1  0.109657  0  0.119004  0.133693  0  0.981649  0
H  H32  1  0.89572089  0.59245590  0.35639249  1  0.066901  0  0.102294  0.106  0  1.016432  0
H  H33  1  0.10425867  0.40754369  0.64360236  1  0.06668  0  0.102326  0.106086  0  1.016292  0
H  H34  1  0.57969009  0.53532728  0.66196839  1  0.091316  0  0.101004  0.104509  0  1.037773  0
H  H35  1  0.42031350  0.46467147  0.33802237  1  0.089811  0  0.100986  0.104488  0  1.037585  0
H  H36  1  0.16103762  0.78945877  0.67383148  1  0.160981  0  0.116088  0.09133  0  1.038289  0
H  H37  1  0.83895496  0.21053432  0.32618341  1  0.16129  0  0.116109  0.091299  0  1.038308  0
H  H38  1  0.65728843  0.07085567  0.72578905  1  0.123554  0  0.115172  0.114539  0  0.967643  0
H  H39  1  0.34269553  0.92915817  0.27421085  1  0.123533  0  0.115166  0.114585  0  0.967631  0
H  H40  1  0.05807169  0.43616648  0.41331193  1  0.064818  0  0.122898  0.08884  0  0.978619  0
H  H41  1  0.94193475  0.56383294  0.58667821  1  0.064706  0  0.122846  0.088751  0  0.978603  0
H  H42  1  0.81186312  0.38471671  0.83015202  1  0.08502  0  0.103711  0.11215  0  1.026413  0
H  H43  1  0.18815070  0.61528488  0.16984960  1  0.085017  0  0.103728  0.112103  0  1.026427  0
H  H44  1  0.46731899  0.58018194  0.53844933  1  0.042947  0  0.102679  0.062739  0  1.007225  0
H  H45  1  0.53266763  0.41981430  0.46154921  1  0.043605  0  0.102626  0.062721  0  1.007321  0
H  H46  1  0.35665399  0.64828759  0.40808141  1  0.065287  0  0.109301  0.116279  0  1.003964  0
H  H47  1  0.64335638  0.35172283  0.59192189  1  0.065331  0  0.109275  0.116185  0  1.00406  0
H  H48  1  0.10850335  0.83448973  0.24905947  1  0.15576  0  0.110773  0.129919  0  1.050616  0
H  H49  1  0.89149525  0.16551191  0.75094170  1  0.155871  0  0.110767  0.129893  0  1.050592  0
H  H50  1  0.16493478  0.31038192  0.18219855  1  0.202223  0  0.130765  0.114901  0  1.024431  0
H  H51  1  0.83506743  0.68962168  0.81779916  1  0.20233  0  0.130762  0.114906  0  1.024458  0
H  H52  1  0.25113173  0.31982754  0.46629835  1  0.126295  0  0.108059  0.114844  0  1.034494  0
H  H53  1  0.74886270  0.68017062  0.53369537  1  0.126119  0  0.108069  0.114779  0  1.034546  0
H  H54  1  0.56575372  0.95366858  0.08556210  1  0.132814  0  0.10758  0.110647  0  1.013698  0
H  H55  1  0.43425177  0.04632209  0.91443026  1  0.132627  0  0.107528  0.110613  0  1.01376  0
H  H56  1  0.63201303  0.23961560  0.08111183  1  0.629337  0  0.291114  0.308072  0  1.050867  0
H  H57  1  0.36797330  0.76037528  0.91889013  1  0.629325  0  0.291136  0.308107  0  1.050773  0
H  H58  1  0.98421775  0.28055709  0.90686487  1  0.091749  0  0.111728  0.111461  0  0.97232  0
H  H59  1  0.01580025  0.71944718  0.09313558  1  0.091737  0  0.111752  0.111475  0  0.972356  0
C  C60  1  0.00648071  0.98935794  0.80014311  1  1.54405  0  0.190684  0.556741  0  4.223214  0
C  C61  1  0.99353186  0.01064496  0.19985539  1  1.543901  0  0.190706  0.556889  0  4.22285  0
C  C62  1  0.43035688  0.64150365  0.26737479  1  0.51704  0  0.04524  0.093712  0  3.983343  0
C  C63  1  0.56964785  0.35850499  0.73264355  1  0.516581  0  0.045207  0.093508  0  3.983521  0
C  C64  1  0.30097920  0.74223209  0.18255576  1  0.419675  0  0.057573  0.112137  0  3.914675  0
C  C65  1  0.69902306  0.25776213  0.81744723  1  0.420417  0  0.057426  0.112004  0  3.91462  0
C  C66  1  0.62232001  0.54159737  0.89460056  1  0.957345  0  0.197128  0.214178  0  4.107979  0
C  C67  1  0.37768071  0.45839487  0.10540552  1  0.956816  0  0.197194  0.214167  0  4.10788  0
C  C68  1  0.81522431  0.57390587  0.21552800  1  0.939481  0  0.191419  0.230593  0  4.096588  0
C  C69  1  0.18476397  0.42609916  0.78447194  1  0.93948  0  0.191343  0.230631  0  4.09663  0
C  C70  1  0.83260174  0.94982985  0.54735230  1  0.53282  0  0.1269  0.173968  0  4.020797  0
C  C71  1  0.16738755  0.05017104  0.45264188  1  0.532671  0  0.12685  0.173913  0  4.02082  0
C  C72  1  0.42731735  0.63923051  0.74286617  1  -0.032929  0  0.01747  0.079086  0  3.989585  0
C  C73  1  0.57268580  0.36076229  0.25713251  1  -0.032684  0  0.0174  0.07929  0  3.989689  0
C  C74  1  0.80119188  0.97586268  0.63270524  1  0.015245  0  -0.07269  -0.142231  0  3.879177  0
C  C75  1  0.19880602  0.02413891  0.36729231  1  0.015273  0  -0.072573  -0.141938  0  3.879062  0
C  C76  1  0.49151590  0.61296763  0.81514185  1  0.924069  0  0.197212  0.236496  0  4.074431  0
C  C77  1  0.50849470  0.38702382  0.18485885  1  0.923459  0  0.197288  0.23637  0  4.074274  0
C  C78  1  0.11883820  0.78961518  0.42032114  1  0.944245  0  0.219964  0.250777  0  4.032237  0
C  C79  1  0.88115031  0.21039063  0.57968489  1  0.944192  0  0.219939  0.250714  0  4.03216  0
C  C80  1  0.83134523  0.44656404  0.04724253  1  0.540588  0  0.128898  0.181443  0  4.012552  0
C  C81  1  0.16866652  0.55345298  0.95275069  1  0.540328  0  0.128957  0.181514  0  4.012297  0
C  C82  1  0.83835062  0.48213780  0.12403360  1  0.968045  0  0.198862  0.217815  0  4.084602  0
C  C83  1  0.16165380  0.51786846  0.87596204  1  0.968371  0  0.198809  0.217799  0  4.084378  0
C  C84  1  0.95486398  0.87655688  0.51123118  1  0.955169  0  0.214004  0.223931  0  4.068182  0
C  C85  1  0.04513204  0.12344883  0.48877041  1  0.955354  0  0.213962  0.223856  0  4.068069  0
C  C86  1  0.42664654  0.17596253  0.38049686  1  0.91371  0  0.185714  0.211863  0  4.088446  0
C  C87  1  0.57334995  0.82403435  0.61950232  1  0.913434  0  0.185659  0.211765  0  4.088313  0
C  C88  1  0.21669560  0.74744017  0.34102498  1  0.004789  0  0.012351  0.060485  0  4.027618  0
C  C89  1  0.78329972  0.25256422  0.65897883  1  0.004673  0  0.012285  0.060487  0  4.028376  0
C  C90  1  0.31667920  0.24379174  0.35169071  1  -0.007862  0  0.030625  0.099915  0  3.959521  0
C  C91  1  0.68331989  0.75620648  0.64830780  1  -0.007457  0  0.030655  0.100028  0  3.959254  0
C  C92  1  0.64294401  0.06264341  0.51807303  1  0.47842  0  0.127622  0.184914  0  3.997879  0
C  C93  1  0.35704284  0.93736774  0.48192867  1  0.464623  0  0.12757  0.184959  0  3.9979  0
C  C94  1  0.92182582  0.36553180  0.01381854  1  -0.051741  0  -0.073849  -0.143584  0  3.874543  0
C  C95  1  0.07817486  0.63447063  0.98619089  1  -0.051467  0  -0.073808  -0.143625  0  3.874921  0
C  C96  1  0.73043774  0.88677169  0.97663895  1  0.065381  0  -0.016319  -0.031773  0  3.982654  0
C  C97  1  0.26958116  0.11322034  0.02335708  1  0.065149  0  -0.016349  -0.031969  0  3.982722  0
C  C98  1  0.83040557  0.73714393  0.35867681  1  0.50617  0  0.037415  0.086866  0  4.002249  0
C  C99  1  0.16958461  0.26284490  0.64132480  1  0.506092  0  0.037448  0.086858  0  4.002215  0
C  C100  1  0.56491451  0.10113731  0.45333576  1  0.958712  0  0.193102  0.208191  0  4.094585  0
C  C101  1  0.43508595  0.89886895  0.54665870  1  0.958538  0  0.193177  0.208277  0  4.094459  0
C  C102  1  0.71683870  0.81885791  0.25681240  1  0.471882  0  0.053517  0.104479  0  3.939335  0
C  C103  1  0.28315351  0.18115255  0.74318909  1  0.47177  0  0.053489  0.104397  0  3.939776  0
C  C104  1  0.72179491  0.74083740  0.22259114  1  -0.045741  0  -0.083126  -0.167841  0  3.911697  0
C  C105  1  0.27816801  0.25917520  0.77741079  1  -0.045378  0  -0.083123  -0.167907  0  3.912138  0
C  C106  1  0.89289393  0.97494244  0.88330401  1  -0.037845  0  -0.020135  -0.035933  0  4.000582  0
C  C107  1  0.10712660  0.02505299  0.11669368  1  -0.038379  0  -0.020106  -0.035909  0  4.000728  0
C  C108  1  0.68514900  0.80006715  0.99925382  1  1.527558  0  0.191861  0.562735  0  4.214727  0
C  C109  1  0.31487957  0.19992268  0.00073335  1  1.52755  0  0.192064  0.563111  0  4.21418  0
C  C110  1  0.84531292  0.89571179  0.90214103  1  -0.020488  0  -0.065365  -0.082638  0  3.901003  0
C  C111  1  0.15471284  0.10428359  0.09785512  1  -0.0194  0  -0.065426  -0.082504  0  3.900949  0
C  C112  1  0.82724339  0.04444816  0.94002922  1  -0.015394  0  -0.069908  -0.090162  0  3.914844  0
C  C113  1  0.17276915  0.95554601  0.05997259  1  -0.015467  0  -0.069963  -0.090337  0  3.915033  0
C  C114  1  0.78948145  0.65647221  0.25661339  1  0.026323  0  0.014501  0.074924  0  4.014753  0
C  C115  1  0.21048453  0.34353893  0.74338261  1  0.025695  0  0.014608  0.075182  0  4.014459  0
C  C116  1  0.60682592  0.09394667  0.60174470  1  0.042006  0  -0.080246  -0.155659  0  3.923601  0
C  C117  1  0.39316760  0.90605436  0.39825935  1  0.042135  0  -0.08027  -0.155685  0  3.923568  0
C  C118  1  0.29344882  0.24153622  0.26998678  1  0.002642  0  -0.063078  -0.144134  0  3.848366  0
C  C119  1  0.70654498  0.75846602  0.73000827  1  0.003315  0  -0.06317  -0.14438  0  3.848355  0
C  C120  1  0.30881778  0.71236883  0.74495154  1  0.015817  0  -0.071476  -0.141931  0  3.895384  0
C  C121  1  0.69118617  0.28762067  0.25505254  1  0.015529  0  -0.071446  -0.141991  0  3.894967  0
C  C122  1  0.84248346  0.65597498  0.32762124  1  -0.076429  0  -0.090233  -0.175453  0  3.963272  0
C  C123  1  0.15750770  0.34401638  0.67236915  1  -0.076227  0  -0.090372  -0.175789  0  3.963161  0
C  C124  1  0.48543443  0.59093784  0.66677288  1  0.034251  0  -0.092368  -0.17566  0  3.973008  0
C  C125  1  0.51457620  0.40905550  0.33321876  1  0.035761  0  -0.092329  -0.175711  0  3.972857  0
C  C126  1  0.72831993  0.47744787  0.93173504  1  0.449009  0  0.12411  0.177096  0  4.021666  0
C  C127  1  0.27167687  0.52254707  0.06826941  1  0.449  0  0.124222  0.177237  0  4.021634  0
C  C128  1  0.25318539  0.73293111  0.67356432  1  0.456676  0  0.048936  0.103916  0  3.908486  0
C  C129  1  0.74680941  0.26706671  0.32645128  1  0.456833  0  0.048923  0.103888  0  3.908594  0
C  C130  1  0.68553306  0.04898522  0.65954354  1  -0.097295  0  -0.059814  -0.004139  0  3.94562  0
C  C131  1  0.31447224  0.95102314  0.34045661  1  -0.097285  0  -0.059863  -0.00431  0  3.945794  0
C  C132  1  0.12753525  0.37921385  0.37598792  1  0.410359  0  0.050434  0.075754  0  3.946901  0
C  C133  1  0.87246113  0.62078432  0.62400671  1  0.410211  0  0.050478  0.075883  0  3.946732  0
C  C134  1  0.81816194  0.39921100  0.89267710  1  0.003822  0  -0.084326  -0.158822  0  3.927842  0
C  C135  1  0.18186471  0.60079314  0.10731746  1  0.00352  0  -0.08446  -0.158866  0  3.928072  0
C  C136  1  0.42318951  0.61628547  0.59851217  1  0.445651  0  0.031088  0.073314  0  4.03401  0
C  C137  1  0.57680553  0.38370880  0.40149208  1  0.445323  0  0.031147  0.073351  0  4.034072  0
C  C138  1  0.33571630  0.67618894  0.34523847  1  -0.041098  0  -0.087098  -0.175887  0  3.941316  0
C  C139  1  0.66428915  0.32381272  0.65476587  1  -0.041068  0  -0.087095  -0.175821  0  3.941246  0
C  C140  1  0.19898567  0.77977443  0.25711045  1  0.002228  0  -0.078593  -0.157855  0  3.885507  0
C  C141  1  0.80102233  0.22023110  0.74288218  1  0.002114  0  -0.078479  -0.157727  0  3.88549  0
C  C142  1  0.70824499  0.03776881  0.01213288  1  0.00609  0  -0.017663  -0.045326  0  3.989913  0
C  C143  1  0.29175843  0.96222872  0.98786561  1  0.007288  0  -0.017689  -0.045263  0  3.989951  0
C  C144  1  0.18746396  0.30787284  0.24478505  1  0.388828  0  0.070328  0.109764  0  3.817203  0
C  C145  1  0.81252673  0.69212815  0.75521637  1  0.388466  0  0.07046  0.109991  0  3.817042  0
C  C146  1  0.23156213  0.31526642  0.40457540  1  0.042345  0  -0.083224  -0.173398  0  3.971177  0
C  C147  1  0.76843385  0.68472767  0.59541808  1  0.042132  0  -0.083171  -0.173275  0  3.970902  0
C  C148  1  0.65954261  0.95880348  0.03004860  1  -0.093868  0  -0.064194  -0.08405  0  3.901573  0
C  C149  1  0.34047676  0.04118656  0.96995079  1  -0.095087  0  -0.064103  -0.083985  0  3.901563  0
C  C150  1  0.91381721  0.34245938  0.93540273  1  0.031099  0  -0.062026  -0.003074  0  3.943801  0
C  C151  1  0.08619553  0.65754430  0.06460250  1  0.031295  0  -0.062014  -0.003017  0  3.943969  0
C  C152  1  0.62752373  0.11556980  0.06711178  1  1.544887  0  0.225805  0.582242  0  4.130591  0
C  C153  1  0.37246623  0.88442971  0.93288063  1  1.545115  0  0.225697  0.582137  0  4.131007  0
N  N154  1  0.00038916  0.85681127  0.42490863  1  -1.174415  0  -0.326006  -0.403304  0  3.293291  0
N  N155  1  0.99960767  0.14319448  0.57509531  1  -1.174369  0  -0.325999  -0.403368  0  3.293162  0
N  N156  1  0.76977476  0.56771104  0.14641910  1  -1.217009  0  -0.342535  -0.410225  0  3.344125  0
N  N157  1  0.23021128  0.43229071  0.85358615  1  -1.216638  0  -0.342503  -0.410317  0  3.343935  0
N  N158  1  0.75482187  0.99178426  0.49247990  1  -1.248788  0  -0.325409  -0.296818  0  3.469487  0
N  N159  1  0.24516667  0.00823154  0.50751699  1  -1.234892  0  -0.325468  -0.296977  0  3.469826  0
N  N160  1  0.45438263  0.66163912  0.88595627  1  -0.664946  0  -0.206408  -0.207495  0  3.309262  0
N  N161  1  0.54561297  0.33835234  0.11404145  1  -0.664969  0  -0.206414  -0.20744  0  3.308923  0
N  N162  1  0.59673673  0.53707017  0.81821957  1  -1.16387  0  -0.345708  -0.43388  0  3.219681  0
N  N163  1  0.40327745  0.46292866  0.18177806  1  -1.163397  0  -0.345852  -0.433912  0  3.219565  0
N  N164  1  0.45410751  0.17352520  0.45899851  1  -1.168174  0  -0.343594  -0.421583  0  3.19101  0
N  N165  1  0.54588100  0.82647376  0.54100176  1  -1.167939  0  -0.343726  -0.421702  0  3.191039  0
N  N166  1  0.53803742  0.61589189  0.93661894  1  -0.709672  0  -0.242729  -0.239339  0  3.414983  0
N  N167  1  0.46196628  0.38410766  0.06337917  1  -0.709384  0  -0.242745  -0.239392  0  3.415023  0
N  N168  1  0.03679201  0.82467378  0.55983031  1  -0.626605  0  -0.203759  -0.203553  0  3.113717  0
N  N169  1  0.96319489  0.17533277  0.44017963  1  -0.626712  0  -0.20368  -0.203465  0  3.113852  0
N  N170  1  0.13924605  0.77012407  0.50182136  1  -0.82558  0  -0.246446  -0.132329  0  3.651101  0
N  N171  1  0.86074227  0.22988240  0.49818397  1  -0.826092  0  -0.24649  -0.132275  0  3.651098  0
N  N172  1  0.90424299  0.49521266  0.23490865  1  -0.711532  0  -0.231951  -0.263798  0  3.34135  0
N  N173  1  0.09574721  0.50479176  0.76509542  1  -0.711557  0  -0.232082  -0.264038  0  3.341678  0
N  N174  1  0.60198577  0.06151553  0.37609983  1  -0.687954  0  -0.245642  -0.230338  0  3.50886  0
N  N175  1  0.39801508  0.93848940  0.62389603  1  -0.68822  0  -0.245618  -0.230393  0  3.508978  0
N  N176  1  0.73634957  0.49955931  0.00740526  1  -1.229112  0  -0.324981  -0.295176  0  3.472227  0
N  N177  1  0.26365080  0.50044300  0.99259611  1  -1.229712  0  -0.324959  -0.295201  0  3.472156  0
N  N178  1  0.77030155  0.81781897  0.32373608  1  -1.223056  0  -0.336491  -0.237797  0  3.525012  0
N  N179  1  0.22970114  0.18217661  0.67626785  1  -1.222813  0  -0.336491  -0.237629  0  3.524964  0
N  N180  1  0.91966690  0.43682900  0.17624613  1  -0.662631  0  -0.227249  -0.235458  0  3.186813  0
N  N181  1  0.08033320  0.56317669  0.82375537  1  -0.66269  0  -0.227108  -0.235237  0  3.18675  0
N  N182  1  0.30839672  0.68565877  0.60116633  1  -1.259664  0  -0.31916  -0.246616  0  3.441534  0
N  N183  1  0.69159504  0.31433554  0.39884037  1  -1.26008  0  -0.319141  -0.24651  0  3.441998  0
N  N184  1  0.51454726  0.10853042  0.32936291  1  -0.597138  0  -0.210576  -0.203676  0  3.167631  0
N  N185  1  0.48544633  0.89147519  0.67063162  1  -0.596833  0  -0.210485  -0.203551  0  3.167747  0
N  N186  1  0.10689170  0.37452968  0.29801651  1  -1.291742  0  -0.342811  -0.132163  0  3.701383  0
N  N187  1  0.89310395  0.62547259  0.70198070  1  -1.291507  0  -0.342938  -0.132398  0  3.701308  0
N  N188  1  0.41476630  0.67400891  0.18706997  1  -1.215036  0  -0.322252  -0.221098  0  3.495858  0
N  N189  1  0.58524284  0.32598470  0.81293878  1  -1.21524  0  -0.322092  -0.220867  0  3.4964  0
O  O190  1  0.04757167  0.93628041  0.73934946  1  -1.183212  0  -0.327181  -0.551377  0  2.151995  0
O  O191  1  0.95244151  0.06371985  0.26065374  1  -1.182914  0  -0.327214  -0.551489  0  2.151824  0
O  O192  1  0.05336221  0.06045092  0.79193431  1  -1.159807  0  -0.345891  -0.556303  0  2.237706  0
O  O193  1  0.94664688  0.93955414  0.20807197  1  -1.159694  0  -0.345864  -0.556311  0  2.237597  0
O  O194  1  0.57209842  0.79641606  0.06327133  1  -1.167471  0  -0.339207  -0.560014  0  2.217631  0
O  O195  1  0.42793591  0.20356570  0.93671989  1  -1.166608  0  -0.339277  -0.560184  0  2.217365  0
O  O196  1  0.69278488  0.18343890  0.04695549  1  -1.169473  0  -0.345279  -0.50074  0  2.350631  0
O  O197  1  0.30721270  0.81655670  0.95304872  1  -1.169428  0  -0.345269  -0.500769  0  2.350753  0
O  O198  1  0.51203199  0.11643984  0.12314509  1  -1.157208  0  -0.290309  -0.502221  0  2.176397  0
O  O199  1  0.48795351  0.88354687  0.87684894  1  -1.157577  0  -0.290277  -0.502197  0  2.176749  0
O  O200  1  0.76257587  0.73127084  0.95760433  1  -1.173083  0  -0.326389  -0.549054  0  2.186905  0
O  O201  1  0.23745595  0.26872038  0.04238642  1  -1.173365  0  -0.326468  -0.549187  0  2.186636  0
