# generated using pymatgen
data_MnH7C7NO6
_symmetry_space_group_name_H-M   'P 1'
_cell_length_a   7.30818169
_cell_length_b   7.91971041
_cell_length_c   7.91970340
_cell_angle_alpha   100.00464844
_cell_angle_beta   100.94883704
_cell_angle_gamma   100.94839394
_symmetry_Int_Tables_number   1
_chemical_formula_structural   MnH7C7NO6
_chemical_formula_sum   'Mn2 H14 C14 N2 O12'
_cell_volume   431.25417913
_cell_formula_units_Z   2
loop_
 _symmetry_equiv_pos_site_id
 _symmetry_equiv_pos_as_xyz
  1  'x, y, z'
loop_
 _atom_site_type_symbol
 _atom_site_label
 _atom_site_symmetry_multiplicity
 _atom_site_fract_x
 _atom_site_fract_y
 _atom_site_fract_z
 _atom_site_occupancy
 _atom_site_hle17_ddec_charge
 _atom_site_hle17_ddec_spin_density
 _atom_site_hle17_ddec_sum_bond_order
 _atom_site_hle17_magmom
 _atom_site_hse06_10hf_ddec_charge
 _atom_site_hse06_10hf_ddec_spin_density
 _atom_site_hse06_10hf_ddec_sum_bond_order
 _atom_site_hse06_10hf_magmom
 _atom_site_hse06_ddec_charge
 _atom_site_hse06_ddec_spin_density
 _atom_site_hse06_ddec_sum_bond_order
 _atom_site_hse06_magmom
 _atom_site_pbe_cm5_charge
 _atom_site_pbe_ddec_charge
 _atom_site_pbe_ddec_spin_density
 _atom_site_pbe_ddec_sum_bond_order
 _atom_site_pbe_magmom
Mn  Mn0  1  0.74999691  0.15818945  0.84181102  1  1.183994  4.818564  1.666385  4.696  1.012284  4.751786  2.146439  4.564  1.074638  4.787853  2.076906  4.619  0.579232  0.962938  4.715173  2.198702  4.511
Mn  Mn1  1  0.25000162  0.84180862  0.15819047  1  1.184086  4.818556  1.666276  4.696  1.012363  4.751782  2.146317  4.564  1.074715  4.787847  2.076787  4.619  0.579261  0.963021  4.715169  2.198577  4.511
H  H2  1  0.12739858  0.18496289  0.98381749  1  0.435325  -0.000192  0.862157  0.001  0.404165  0.000552  0.92537  0.002  0.41565  0.000225  0.908753  0.002  0.299473  0.395962  0.00086  0.93719  0.003
H  H3  1  0.37260010  0.01618272  0.81503628  1  0.435326  -0.000191  0.862156  0.001  0.404171  0.000553  0.925359  0.002  0.415656  0.000225  0.908743  0.002  0.299476  0.395969  0.00086  0.937175  0.003
H  H4  1  0.87260090  0.81503915  0.01618362  1  0.435345  -0.000191  0.862128  0.001  0.404199  0.000553  0.925318  0.002  0.415685  0.000225  0.908701  0.002  0.299488  0.395995  0.00086  0.93714  0.003
H  H5  1  0.62740045  0.98381803  0.18496225  1  0.435298  -0.00019  0.862192  0.001  0.404141  0.000553  0.925397  0.002  0.415627  0.000225  0.908782  0.002  0.299468  0.395938  0.00086  0.937216  0.003
H  H6  1  0.11182200  0.34644748  0.88979631  1  0.422137  -6e-05  0.885862  0.001  0.389401  0.000662  0.95401  0.002  0.400259  0.000359  0.938264  0.002  0.293176  0.381687  0.000947  0.965139  0.002
H  H7  1  0.38818010  0.11020234  0.65355125  1  0.422131  -6e-05  0.885869  0.001  0.389382  0.000662  0.954039  0.002  0.400242  0.000359  0.938289  0.002  0.293167  0.381666  0.000947  0.96517  0.002
H  H8  1  0.88817855  0.65355326  0.11020348  1  0.422141  -6e-05  0.885857  0.001  0.389399  0.000662  0.954015  0.002  0.400257  0.000359  0.938268  0.002  0.293176  0.381682  0.000947  0.965147  0.002
H  H9  1  0.61182527  0.88980107  0.34644984  1  0.42214  -6.1e-05  0.885876  0.001  0.3894  0.000662  0.954035  0.002  0.400263  0.000359  0.938281  0.002  0.293168  0.381684  0.000947  0.965167  0.002
H  H10  1  0.71652695  0.54910626  0.83946343  1  0.096068  -4e-05  0.960688  0.0  0.104001  0.000422  1.024474  0.0  0.107737  0.000206  1.020018  0.0  0.128578  0.101141  0.000653  1.027846  0.001
H  H11  1  0.78347407  0.16054060  0.45089803  1  0.096079  -3.5e-05  0.96071  0.0  0.104011  0.000422  1.024486  0.0  0.107746  0.000206  1.020032  0.0  0.128578  0.101151  0.000652  1.027858  0.001
H  H12  1  0.28347983  0.45089714  0.16054044  1  0.096065  -4.7e-05  0.960693  0.0  0.104012  0.000423  1.024456  0.0  0.107748  0.000206  1.020001  0.0  0.128582  0.101153  0.000652  1.02783  0.001
H  H13  1  0.21652541  0.83946143  0.54910308  1  0.096082  -4.4e-05  0.960691  0.0  0.104016  0.000423  1.024474  0.0  0.107752  0.000205  1.020017  0.0  0.128576  0.101159  0.000653  1.027844  0.001
H  H14  1  0.74999677  0.66709353  0.33290824  1  0.119702  -0.000489  0.951953  0.0  0.129073  -0.000225  1.015133  0.0  0.133309  -0.000357  1.010467  0.0  0.120067  0.125687  -8.1e-05  1.018867  0.0
H  H15  1  0.24999616  0.33290452  0.66708850  1  0.119696  -0.000498  0.951964  0.0  0.129071  -0.000225  1.015131  0.0  0.133305  -0.000357  1.010468  0.0  0.120062  0.125686  -8.1e-05  1.018863  0.0
C  C16  1  0.73456556  0.51316727  0.70582384  1  0.141277  0.003706  3.645464  0.004  0.095587  0.005894  3.900956  0.005  0.106764  0.004823  3.915575  0.004  0.066756  0.088286  0.007597  3.891132  0.006
C  C17  1  0.76543237  0.29417799  0.48683445  1  0.141246  0.003692  3.645535  0.004  0.095564  0.005895  3.901009  0.005  0.106743  0.004824  3.915625  0.004  0.066712  0.088263  0.007597  3.891179  0.006
C  C18  1  0.26543607  0.48683217  0.29417463  1  0.141311  0.003759  3.645414  0.004  0.095601  0.005892  3.900901  0.005  0.106776  0.004828  3.915515  0.004  0.066783  0.088301  0.007597  3.891078  0.006
C  C19  1  0.23456616  0.70582009  0.51316577  1  0.141278  0.003738  3.645543  0.004  0.095579  0.005894  3.901032  0.005  0.106759  0.004827  3.915643  0.004  0.066748  0.088274  0.007597  3.891206  0.006
C  C20  1  0.74013180  0.63481927  0.59731536  1  -0.123181  -0.0031  3.748854  -0.002  -0.098014  -0.001638  3.995471  -0.001  -0.112243  -0.002544  4.019025  -0.001  -0.013251  -0.089434  -0.00095  3.980373  -0.001
C  C21  1  0.75986436  0.40268774  0.36518320  1  -0.12325  -0.003117  3.74888  -0.002  -0.09809  -0.001641  3.995497  -0.001  -0.112319  -0.002544  4.01905  -0.001  -0.013213  -0.0895  -0.00095  3.980385  -0.001
C  C22  1  0.25986735  0.36518147  0.40268166  1  -0.123179  -0.003153  3.748912  -0.002  -0.098023  -0.001637  3.995556  -0.001  -0.112251  -0.002547  4.01911  -0.001  -0.01326  -0.089442  -0.00095  3.980459  -0.001
C  C23  1  0.24012998  0.59731031  0.63481504  1  -0.123214  -0.003154  3.748797  -0.002  -0.098068  -0.001635  3.995436  -0.001  -0.112297  -0.002551  4.018987  -0.001  -0.013219  -0.089484  -0.00095  3.980328  -0.001
C  C24  1  0.74999741  0.57721506  0.42278631  1  -0.00822  0.00331  3.644344  0.003  -0.049337  0.00493  3.890583  0.004  -0.040995  0.00404  3.90587  0.004  -0.049773  -0.054398  0.006527  3.880599  0.006
C  C25  1  0.24999769  0.42278036  0.57721284  1  -0.008224  0.003349  3.644248  0.003  -0.049333  0.00493  3.890482  0.004  -0.040987  0.004042  3.905763  0.004  -0.049763  -0.054391  0.006528  3.880496  0.006
C  C26  1  0.73498208  0.82142459  0.66846120  1  0.657968  0.00309  3.90028  0.002  0.601008  0.006304  4.195261  0.004  0.635674  0.004896  4.190707  0.003  0.219367  0.577474  0.007796  4.197181  0.005
C  C27  1  0.76501751  0.33154344  0.17857980  1  0.658027  0.003097  3.900214  0.002  0.601096  0.006305  4.195155  0.004  0.635758  0.004897  4.190601  0.003  0.219381  0.57755  0.007796  4.197087  0.005
C  C28  1  0.26501911  0.17857878  0.33154044  1  0.658054  0.003086  3.900353  0.002  0.601082  0.006303  4.195327  0.004  0.635745  0.004896  4.190774  0.003  0.219396  0.577536  0.007795  4.197263  0.005
C  C29  1  0.23498056  0.66845859  0.82141980  1  0.658045  0.003097  3.90015  0.002  0.601123  0.006302  4.195087  0.004  0.635787  0.004897  4.190531  0.003  0.219419  0.577588  0.007795  4.197006  0.005
N  N30  1  0.74999928  0.34677864  0.65322437  1  -0.322701  0.024101  3.193952  0.012  -0.250194  0.029522  3.475671  0.013  -0.271422  0.02601  3.489501  0.011  -0.308428  -0.235098  0.032728  3.465909  0.016
N  N31  1  0.25000237  0.65322077  0.34677789  1  -0.32284  0.024076  3.193995  0.012  -0.250295  0.029524  3.475675  0.013  -0.271531  0.026011  3.489527  0.011  -0.308482  -0.235197  0.03273  3.465912  0.016
O  O32  1  0.75615011  0.87404212  0.83473524  1  -0.633806  0.026588  2.015144  0.019  -0.558553  0.031545  2.250017  0.021  -0.589734  0.027807  2.23935  0.018  -0.29292  -0.535812  0.035163  2.256577  0.025
O  O33  1  0.74385068  0.16527196  0.12595907  1  -0.633788  0.026584  2.015064  0.019  -0.558545  0.031547  2.249929  0.021  -0.589724  0.027807  2.239259  0.018  -0.292933  -0.535806  0.035165  2.256498  0.025
O  O34  1  0.24384703  0.12595592  0.16526853  1  -0.63384  0.026587  2.015074  0.019  -0.558541  0.031543  2.249915  0.021  -0.589718  0.02781  2.239246  0.018  -0.292925  -0.535808  0.035162  2.25649  0.025
O  O35  1  0.25614988  0.83472877  0.87404072  1  -0.633809  0.026582  2.015071  0.019  -0.55855  0.031545  2.249923  0.021  -0.589727  0.02781  2.239253  0.018  -0.292937  -0.535818  0.035163  2.25649  0.025
O  O36  1  0.71041581  0.92417077  0.56417582  1  -0.635248  0.01412  2.004597  0.009  -0.569435  0.021659  2.235562  0.016  -0.597926  0.018668  2.225706  0.013  -0.292801  -0.548824  0.024693  2.241571  0.018
O  O37  1  0.78958874  0.43582577  0.07583597  1  -0.635306  0.014124  2.004734  0.009  -0.569493  0.021658  2.235666  0.016  -0.597981  0.018666  2.225813  0.013  -0.292813  -0.548875  0.024694  2.241673  0.018
O  O38  1  0.28959513  0.07583273  0.43582119  1  -0.635292  0.014125  2.004701  0.009  -0.569475  0.02166  2.235661  0.016  -0.597962  0.018665  2.225806  0.013  -0.292825  -0.548856  0.024694  2.241672  0.018
O  O39  1  0.21040529  0.56417094  0.92416451  1  -0.635324  0.014118  2.004634  0.009  -0.569536  0.02166  2.235579  0.016  -0.598024  0.018665  2.225725  0.013  -0.292857  -0.548925  0.024695  2.241587  0.018
O  O40  1  0.05370453  0.21977456  0.88136200  1  -0.846893  0.033157  1.898273  0.021  -0.789064  0.041591  2.115327  0.025  -0.813938  0.036786  2.077872  0.021  -0.578925  -0.770031  0.046065  2.141428  0.029
O  O41  1  0.44629616  0.11863732  0.78022610  1  -0.846901  0.033158  1.898322  0.021  -0.789055  0.041594  2.115377  0.025  -0.81393  0.036789  2.077921  0.021  -0.578923  -0.770024  0.046068  2.141477  0.029
O  O42  1  0.94629710  0.78022488  0.11863648  1  -0.846914  0.033158  1.898265  0.021  -0.789082  0.041592  2.11531  0.025  -0.813956  0.036787  2.077854  0.021  -0.578922  -0.77005  0.046067  2.141415  0.029
O  O43  1  0.55370612  0.88136474  0.21977548  1  -0.846889  0.033157  1.898306  0.021  -0.789047  0.041592  2.11534  0.025  -0.813925  0.036787  2.077877  0.021  -0.578921  -0.770016  0.046067  2.141441  0.029
