# generated using pymatgen
data_Al3H19(C21O10)2
_symmetry_space_group_name_H-M   'P 1'
_cell_length_a   14.05565627
_cell_length_b   14.01253680
_cell_length_c   28.11404265
_cell_angle_alpha   89.86830242
_cell_angle_beta   89.89658560
_cell_angle_gamma   60.10362627
_symmetry_Int_Tables_number   1
_chemical_formula_structural   Al3H19(C21O10)2
_chemical_formula_sum   'Al6 H38 C84 O40'
_cell_volume   4800.35216501
_cell_formula_units_Z   2
loop_
 _symmetry_equiv_pos_site_id
 _symmetry_equiv_pos_as_xyz
  1  'x, y, z'
loop_
 _atom_site_type_symbol
 _atom_site_label
 _atom_site_symmetry_multiplicity
 _atom_site_fract_x
 _atom_site_fract_y
 _atom_site_fract_z
 _atom_site_occupancy
 _atom_site_pbe_bader_charge
 _atom_site_pbe_bader_spin_density
 _atom_site_pbe_cm5_charge
 _atom_site_pbe_ddec_charge
 _atom_site_pbe_ddec_spin_density
 _atom_site_pbe_ddec_sum_bond_order
 _atom_site_pbe_magmom
Al  Al0  1  0.25800984  0.22970163  0.49858008  1  2.499994  0  0.400708  1.68549  0  2.546757  0
Al  Al1  1  0.47024468  0.25923642  0.49795200  1  2.48004  0  0.506443  1.658992  0  2.513497  0
Al  Al2  1  0.24905892  0.46303257  0.49870920  1  2.48155  0  0.503612  1.658949  0  2.519977  0
Al  Al3  1  0.74384420  0.48897010  0.00094102  1  2.494336  0  0.399625  1.68625  0  2.5474  0
Al  Al4  1  0.53054200  0.72986649  0.99787113  1  2.484741  0  0.506399  1.661193  0  2.511862  0
Al  Al5  1  0.75126852  0.71396551  0.99870561  1  2.48642  0  0.503903  1.658897  0  2.521017  0
H  H6  1  0.30020261  0.62071891  0.78552479  1  0.091658  0  0.106477  0.097409  0  0.995773  0
H  H7  1  0.09918864  0.29360687  0.79100856  1  0.082534  0  0.105474  0.095979  0  0.999579  0
H  H8  1  0.61831132  0.08991966  0.79645736  1  0.067923  0  0.108289  0.10093  0  0.991621  0
H  H9  1  0.70059783  0.92126117  0.28473360  1  0.044668  0  0.106174  0.096302  0  0.997884  0
H  H10  1  0.89806744  0.39931846  0.29031639  1  0.078162  0  0.105885  0.096576  0  0.999609  0
H  H11  1  0.38381660  0.70602445  0.29653141  1  0.091067  0  0.108862  0.101874  0  0.990877  0
H  H12  1  0.37844304  0.69631989  0.70868076  1  0.056512  0  0.110742  0.113805  0  0.972497  0
H  H13  1  0.93419624  0.37288506  0.71888144  1  0.081207  0  0.108931  0.111169  0  0.975503  0
H  H14  1  0.70287120  0.93534660  0.72018401  1  0.116688  0  0.108993  0.112384  0  0.97542  0
H  H15  1  0.61950559  0.07627033  0.20842503  1  0.054613  0  0.111598  0.115137  0  0.971607  0
H  H16  1  0.06356958  0.31278763  0.21832827  1  0.052744  0  0.109925  0.112694  0  0.974261  0
H  H17  1  0.29945870  0.63773139  0.21960945  1  0.09143  0  0.109789  0.113758  0  0.974064  0
H  H18  1  0.37305663  0.41856395  0.73673485  1  0.070012  0  0.100748  0.098876  0  1.010843  0
H  H19  1  0.21572401  0.37486639  0.73704668  1  0.045595  0  0.099616  0.097458  0  1.009774  0
H  H20  1  0.42036354  0.21480063  0.74470173  1  0.052851  0  0.100134  0.098851  0  1.010206  0
H  H21  1  0.62786585  0.79162250  0.23603835  1  0.116702  0  0.100464  0.09819  0  1.011479  0
H  H22  1  0.78465450  0.59800736  0.23703035  1  0.048544  0  0.099468  0.097067  0  1.011618  0
H  H23  1  0.58259327  0.63249455  0.24525470  1  0.051811  0  0.100709  0.099655  0  1.008917  0
H  H24  1  0.62305558  0.25442819  0.76688604  1  0.593027  0  0.328626  0.35549  0  0.896249  0
H  H25  1  0.13080251  0.62319070  0.76949549  1  0.603156  0  0.327249  0.354003  0  0.90033  0
H  H26  1  0.25820602  0.12382266  0.77123743  1  0.583808  0  0.328793  0.35575  0  0.897959  0
H  H27  1  0.37750254  0.87678020  0.26775471  1  0.601131  0  0.329222  0.35507  0  0.897205  0
H  H28  1  0.87015925  0.75840450  0.27075577  1  0.588553  0  0.326406  0.352523  0  0.903147  0
H  H29  1  0.74294011  0.37607770  0.27124323  1  0.611787  0  0.330477  0.358468  0  0.893485  0
H  H30  1  0.65852992  0.40702431  0.70699573  1  0.097746  0  0.11137  0.12844  0  0.975297  0
H  H31  1  0.93439775  0.65857600  0.71533211  1  0.101481  0  0.110131  0.127202  0  0.977095  0
H  H32  1  0.41791094  0.93645091  0.71286485  1  0.081475  0  0.111886  0.129721  0  0.972351  0
H  H33  1  0.34045920  0.06486008  0.20820865  1  0.093517  0  0.112118  0.129295  0  0.97412  0
H  H34  1  0.06871658  0.59604199  0.21647618  1  0.081199  0  0.109662  0.126597  0  0.977701  0
H  H35  1  0.58375666  0.35302111  0.21216508  1  0.079273  0  0.113117  0.131171  0  0.971233  0
H  H36  1  0.66898052  0.57986238  0.75919009  1  0.657545  0  0.316284  0.365573  0  0.946064  0
H  H37  1  0.76313296  0.66192395  0.77089021  1  0.636478  0  0.317704  0.366194  0  0.943259  0
H  H38  1  0.58529335  0.75622376  0.76155716  1  0.628361  0  0.315836  0.364249  0  0.95187  0
H  H39  1  0.33026843  0.24835316  0.26041798  1  0.655804  0  0.317338  0.367217  0  0.942154  0
H  H40  1  0.23789224  0.42576453  0.27096971  1  0.624228  0  0.317233  0.365549  0  0.945518  0
H  H41  1  0.41451095  0.34092975  0.26050133  1  0.627951  0  0.315861  0.364356  0  0.951624  0
H  H42  1  0.16108372  0.14679751  0.52798184  1  0.576581  0  0.291339  0.382209  0  0.924624  0
H  H43  1  0.82911721  0.30753490  0.97377208  1  0.582435  0  0.294336  0.386056  0  0.918491  0
C  C44  1  0.13239691  0.41955742  0.56709550  1  1.671621  0  0.274766  0.712398  0  4.169999  0
C  C45  1  0.45176232  0.13135170  0.56796191  1  1.650242  0  0.274106  0.707105  0  4.167201  0
C  C46  1  0.41722646  0.43698186  0.56291439  1  1.627804  0  0.280898  0.718499  0  4.157756  0
C  C47  1  0.86740147  0.55545528  0.06761183  1  1.701385  0  0.275976  0.705943  0  4.174982  0
C  C48  1  0.54815346  0.58380288  0.06757537  1  1.696383  0  0.278013  0.704637  0  4.169421  0
C  C49  1  0.58374543  0.85500504  0.06302345  1  1.634438  0  0.279747  0.717397  0  4.160413  0
C  C50  1  0.46436070  0.50232039  0.69845205  1  0.076777  0  0.009047  0.145402  0  3.814135  0
C  C51  1  0.03546685  0.46458676  0.70486294  1  0.099443  0  0.008339  0.151795  0  3.826291  0
C  C52  1  0.51031550  0.03922254  0.70689069  1  0.109264  0  0.008969  0.151056  0  3.815649  0
C  C53  1  0.53444500  0.96731329  0.19853938  1  0.124762  0  0.008864  0.144446  0  3.817719  0
C  C54  1  0.96518262  0.50603253  0.20507468  1  0.100271  0  0.008643  0.151294  0  3.827358  0
C  C55  1  0.49224921  0.54817009  0.20665726  1  0.118208  0  0.009493  0.150132  0  3.815237  0
C  C56  1  0.53461456  0.41316045  0.76657639  1  0.585337  0  0.088911  0.289612  0  3.767091  0
C  C57  1  0.06291333  0.53252511  0.77159967  1  0.598775  0  0.087755  0.294616  0  3.757877  0
C  C58  1  0.41614056  0.05655140  0.77331380  1  0.59433  0  0.088527  0.291856  0  3.767065  0
C  C59  1  0.46645927  0.94651939  0.26696057  1  0.597773  0  0.089499  0.295994  0  3.756064  0
C  C60  1  0.93832698  0.59983765  0.27223516  1  0.580292  0  0.087475  0.293579  0  3.760485  0
C  C61  1  0.58534083  0.47023017  0.27313853  1  0.596149  0  0.089645  0.297375  0  3.760232  0
C  C62  1  0.41975649  0.46120527  0.74131450  1  -0.047285  0  -0.076037  -0.156773  0  3.613043  0
C  C63  1  0.12769037  0.41921530  0.74470529  1  -0.018877  0  -0.077  -0.159126  0  3.612395  0
C  C64  1  0.46413636  0.12539696  0.74930873  1  -0.030567  0  -0.077458  -0.159945  0  3.613533  0
C  C65  1  0.58076664  0.88082180  0.24104776  1  -0.080802  0  -0.074865  -0.156203  0  3.607899  0
C  C66  1  0.87259012  0.55322682  0.24479850  1  -0.027174  0  -0.076995  -0.159162  0  3.615229  0
C  C67  1  0.53826729  0.58729745  0.24944936  1  -0.022311  0  -0.076785  -0.159161  0  3.608681  0
C  C68  1  0.50918555  0.53967901  0.84268014  1  -0.428082  0  -0.02642  -0.008004  0  4.083358  0
C  C69  1  0.97257736  0.50113879  0.85016433  1  -0.462112  0  -0.023372  -0.001525  0  4.088009  0
C  C70  1  0.53788199  0.95563104  0.85056012  1  0.094935  0  -0.012894  0.021121  0  4.069126  0
C  C71  1  0.49308244  0.04664729  0.34300571  1  -0.149791  0  -0.022384  -0.002371  0  4.077847  0
C  C72  1  0.02702984  0.47601024  0.35040076  1  -0.460305  0  -0.022099  0.001806  0  4.084937  0
C  C73  1  0.46210002  0.49132276  0.35006352  1  -0.499556  0  -0.012421  0.022627  0  4.065254  0
C  C74  1  0.44974383  0.48640340  0.64993479  1  -0.520454  0  -0.020044  -0.027395  0  4.062367  0
C  C75  1  0.05900952  0.45304474  0.65568239  1  -0.111206  0  -0.030815  -0.049067  0  4.090492  0
C  C76  1  0.49814723  0.06676516  0.65794033  1  -0.455764  0  -0.033622  -0.054818  0  4.085469  0
C  C77  1  0.54865073  0.93727176  0.14997983  1  -0.037883  0  -0.018408  -0.024569  0  4.062963  0
C  C78  1  0.94190886  0.51872578  0.15589357  1  -0.32578  0  -0.028538  -0.045478  0  4.086751  0
C  C79  1  0.50451618  0.56388360  0.15776346  1  -0.173005  0  -0.030011  -0.048208  0  4.078299  0
C  C80  1  0.12347392  0.42431816  0.43445944  1  1.65206  0  0.278605  0.709617  0  4.169321  0
C  C81  1  0.44787972  0.12721598  0.43061146  1  1.688061  0  0.280857  0.707357  0  4.16532  0
C  C82  1  0.41785445  0.43696745  0.43394075  1  1.609817  0  0.283086  0.723303  0  4.151963  0
C  C83  1  0.87786942  0.54943936  0.93474011  1  1.680141  0  0.276997  0.713149  0  4.164966  0
C  C84  1  0.55625272  0.57417595  0.93016673  1  1.678191  0  0.276158  0.712482  0  4.160303  0
C  C85  1  0.58014029  0.85705066  0.93432684  1  1.659922  0  0.282722  0.721643  0  4.155219  0
C  C86  1  0.42207066  0.61541292  0.72566251  1  -0.009417  0  -0.072125  -0.143304  0  3.611424  0
C  C87  1  0.97179348  0.41756531  0.73444789  1  -0.031348  0  -0.073016  -0.146068  0  3.612614  0
C  C88  1  0.62096820  0.97084427  0.73584949  1  -0.066159  0  -0.073894  -0.149512  0  3.61575  0
C  C89  1  0.57679009  0.03821475  0.22559520  1  0.005835  0  -0.071069  -0.143654  0  3.611351  0
C  C90  1  0.02710315  0.39461962  0.23428288  1  3.2e-05  0  -0.071697  -0.14488  0  3.608767  0
C  C91  1  0.38115017  0.59074355  0.23537309  1  -0.041694  0  -0.073738  -0.150541  0  3.616446  0
C  C92  1  0.37892743  0.57325031  0.76735076  1  -0.029934  0  -0.070359  -0.062162  0  3.668118  0
C  C93  1  0.06347044  0.37365450  0.77333580  1  -0.040791  0  -0.070186  -0.062761  0  3.666819  0
C  C94  1  0.57389123  0.05666567  0.77715974  1  -0.031667  0  -0.070269  -0.061777  0  3.668151  0
C  C95  1  0.62153721  0.95218860  0.26694986  1  0.00254  0  -0.070131  -0.061828  0  3.670728  0
C  C96  1  0.93512786  0.44285999  0.27307093  1  -0.025032  0  -0.06922  -0.059716  0  3.6644  0
C  C97  1  0.42807933  0.62856514  0.27704332  1  -0.042291  0  -0.068973  -0.061022  0  3.667209  0
C  C98  1  0.52628743  0.55525358  0.88365860  1  0.135959  0  -0.036209  -0.192695  0  3.953516  0
C  C99  1  0.93710406  0.51968912  0.89068048  1  0.201399  0  -0.037341  -0.197118  0  3.96462  0
C  C100  1  0.55402243  0.91730985  0.89065418  1  -0.363694  0  -0.038795  -0.20911  0  3.960359  0
C  C101  1  0.47684798  0.07844742  0.38411763  1  -0.122628  0  -0.033724  -0.191871  0  3.95293  0
C  C102  1  0.06305373  0.45691016  0.39079698  1  0.217572  0  -0.036543  -0.196788  0  3.965409  0
C  C103  1  0.44491248  0.46972004  0.39012288  1  0.272234  0  -0.03837  -0.210113  0  3.957513  0
C  C104  1  0.43842721  0.46840191  0.60850800  1  0.311882  0  -0.042255  -0.203358  0  3.967765  0
C  C105  1  0.08402722  0.44313223  0.61374963  1  -0.168901  0  -0.043697  -0.195932  0  3.98088  0
C  C106  1  0.48282314  0.09057896  0.61584352  1  0.187047  0  -0.041582  -0.190542  0  3.973032  0
C  C107  1  0.56051053  0.90797293  0.10854300  1  -0.236993  0  -0.042682  -0.204664  0  3.971115  0
C  C108  1  0.91670020  0.53332890  0.11400006  1  0.026881  0  -0.042339  -0.195522  0  3.980889  0
C  C109  1  0.51909390  0.57261443  0.11559384  1  -0.128363  0  -0.039409  -0.191547  0  3.971523  0
C  C110  1  0.53596101  0.56729208  0.75015160  1  0.632066  0  0.097918  0.308424  0  3.73991  0
C  C111  1  0.90792402  0.53011288  0.76048329  1  0.603055  0  0.09837  0.310342  0  3.732643  0
C  C112  1  0.57274509  0.90296520  0.75890689  1  0.608264  0  0.099715  0.313433  0  3.7378  0
C  C113  1  0.46346738  0.10291800  0.25071636  1  0.607698  0  0.097649  0.308849  0  3.738999  0
C  C114  1  0.09211775  0.44125958  0.26084520  1  0.602028  0  0.09857  0.311171  0  3.732924  0
C  C115  1  0.42843222  0.47448561  0.25807109  1  0.60948  0  0.100576  0.313653  0  3.739463  0
C  C116  1  0.49228291  0.52524825  0.79442237  1  0.109161  0  -0.000885  -0.008145  0  3.775872  0
C  C117  1  0.00056405  0.48547762  0.80168141  1  0.069546  0  -0.001543  -0.007364  0  3.791326  0
C  C118  1  0.52544692  0.98967147  0.80280767  1  0.103324  0  -0.001527  -0.015439  0  3.786598  0
C  C119  1  0.50885713  0.01632111  0.29464978  1  0.081963  0  -0.000697  -0.009714  0  3.775636  0
C  C120  1  0.99905636  0.48987500  0.30193665  1  0.097635  0  -0.001062  -0.009921  0  3.794145  0
C  C121  1  0.47553304  0.51289965  0.30241038  1  0.112075  0  -0.001716  -0.016372  0  3.781429  0
C  C122  1  0.57883475  0.45429360  0.72458448  1  -0.088736  0  -0.085883  -0.252854  0  3.63208  0
C  C123  1  0.97107995  0.57761676  0.73238214  1  -0.088554  0  -0.086274  -0.256422  0  3.629411  0
C  C124  1  0.46224942  0.97065958  0.73167679  1  -0.05829  0  -0.084541  -0.251669  0  3.626931  0
C  C125  1  0.42061683  0.03261860  0.22529158  1  -0.074926  0  -0.085188  -0.25364  0  3.629607  0
C  C126  1  0.03067105  0.55258046  0.23311878  1  -0.069535  0  -0.086622  -0.256741  0  3.628944  0
C  C127  1  0.53941151  0.43138204  0.23114014  1  -0.05955  0  -0.084351  -0.253182  0  3.627831  0
O  O128  1  0.35991978  0.14799509  0.55347704  1  -1.205348  0  -0.208818  -0.552427  0  2.28237  0
O  O129  1  0.49010151  0.34396547  0.54639980  1  -1.245878  0  -0.226846  -0.585372  0  2.250947  0
O  O130  1  0.15032744  0.49350749  0.54873356  1  -1.25483  0  -0.241557  -0.600846  0  2.23906  0
O  O131  1  0.63751010  0.50739064  0.05147553  1  -1.210269  0  -0.199151  -0.529181  0  2.274382  0
O  O132  1  0.51059619  0.83745847  0.04486234  1  -1.228746  0  -0.226911  -0.586375  0  2.252455  0
O  O133  1  0.85565862  0.64219196  0.04612480  1  -1.262432  0  -0.243658  -0.607148  0  2.240506  0
O  O134  1  0.15705623  0.32757783  0.54910011  1  -1.223036  0  -0.213281  -0.568769  0  2.297763  0
O  O135  1  0.51961353  0.15080243  0.54454116  1  -1.255118  0  -0.245913  -0.60687  0  2.226045  0
O  O136  1  0.32486496  0.50210662  0.54342385  1  -1.248172  0  -0.227248  -0.585967  0  2.249703  0
O  O137  1  0.83609687  0.49072652  0.05278789  1  -1.214804  0  -0.202479  -0.53928  0  2.29363  0
O  O138  1  0.48108946  0.67379850  0.04563530  1  -1.258534  0  -0.243602  -0.606316  0  2.231084  0
O  O139  1  0.67847675  0.82482644  0.04520211  1  -1.241707  0  -0.227363  -0.586449  0  2.25089  0
O  O140  1  0.35966723  0.14095500  0.44870895  1  -1.214498  0  -0.198067  -0.529912  0  2.277696  0
O  O141  1  0.49154049  0.34718145  0.45303036  1  -1.24653  0  -0.227984  -0.591289  0  2.250362  0
O  O142  1  0.13859401  0.49814313  0.45514839  1  -1.252392  0  -0.244484  -0.610173  0  2.235714  0
O  O143  1  0.64731414  0.50147299  0.94679320  1  -1.217823  0  -0.209795  -0.562364  0  2.290494  0
O  O144  1  0.50755748  0.83682464  0.95161872  1  -1.250022  0  -0.22752  -0.59013  0  2.251128  0
O  O145  1  0.85670735  0.64313456  0.95236657  1  -1.256117  0  -0.242733  -0.60458  0  2.235307  0
O  O146  1  0.16011756  0.32635736  0.44823730  1  -1.219778  0  -0.204621  -0.549527  0  2.28813  0
O  O147  1  0.51364997  0.15596440  0.44943034  1  -1.250206  0  -0.242532  -0.608494  0  2.23559  0
O  O148  1  0.32040484  0.49767528  0.44997898  1  -1.248978  0  -0.227729  -0.592136  0  2.25025  0
O  O149  1  0.84785675  0.48505387  0.95166787  1  -1.223086  0  -0.212094  -0.568418  0  2.290149  0
O  O150  1  0.48835497  0.66597101  0.95051308  1  -1.26026  0  -0.243753  -0.608658  0  2.229839  0
O  O151  1  0.67555713  0.82402557  0.95184364  1  -1.243799  0  -0.226697  -0.589735  0  2.253735  0
O  O152  1  0.32637353  0.31817439  0.49905147  1  -1.613136  0  -0.390612  -1.272786  0  2.296921  0
O  O153  1  0.67447278  0.64582828  0.99926566  1  -1.620258  0  -0.390756  -1.27422  0  2.297209  0
O  O154  1  0.59207661  0.31369022  0.79022437  1  -1.11409  0  -0.372485  -0.481572  0  2.233355  0
O  O155  1  0.10604304  0.59062109  0.79375080  1  -1.128139  0  -0.374759  -0.486235  0  2.231613  0
O  O156  1  0.31547962  0.09621974  0.79543200  1  -1.10802  0  -0.373224  -0.483504  0  2.232915  0
O  O157  1  0.41031891  0.90348310  0.29089896  1  -1.127535  0  -0.370358  -0.480016  0  2.233312  0
O  O158  1  0.89598738  0.70057169  0.29479923  1  -1.113632  0  -0.37465  -0.484992  0  2.232788  0
O  O159  1  0.68560884  0.40854582  0.29537123  1  -1.142191  0  -0.372336  -0.485509  0  2.230705  0
O  O160  1  0.58958630  0.62661837  0.75259854  1  -1.213183  0  -0.366417  -0.505906  0  2.36703  0
O  O161  1  0.79650305  0.58123680  0.76805791  1  -1.170965  0  -0.365133  -0.503373  0  2.354553  0
O  O162  1  0.63208764  0.79047028  0.76303996  1  -1.166107  0  -0.365958  -0.504936  0  2.363864  0
O  O163  1  0.40953928  0.21579414  0.25357357  1  -1.21051  0  -0.364752  -0.505234  0  2.368892  0
O  O164  1  0.20329117  0.37947529  0.26863857  1  -1.168574  0  -0.365897  -0.504133  0  2.354092  0
O  O165  1  0.36824070  0.42210853  0.26145793  1  -1.164258  0  -0.365653  -0.504786  0  2.366984  0
O  O166  1  0.20029997  0.14432040  0.49932140  1  -1.363911  0  -0.575127  -0.992112  0  1.792233  0
O  O167  1  0.80418760  0.34568914  0.00377069  1  -1.365071  0  -0.576821  -0.995649  0  1.791778  0
