# generated using pymatgen
data_AlH2C10SO5F3
_symmetry_space_group_name_H-M   'P 1'
_cell_length_a   6.63855100
_cell_length_b   11.16637417
_cell_length_c   12.72156612
_cell_angle_alpha   83.82923388
_cell_angle_beta   75.07714190
_cell_angle_gamma   73.49788504
_symmetry_Int_Tables_number   1
_chemical_formula_structural   AlH2C10SO5F3
_chemical_formula_sum   'Al2 H4 C20 S2 O10 F6'
_cell_volume   873.09138492
_cell_formula_units_Z   2
loop_
 _symmetry_equiv_pos_site_id
 _symmetry_equiv_pos_as_xyz
  1  'x, y, z'
loop_
 _atom_site_type_symbol
 _atom_site_label
 _atom_site_symmetry_multiplicity
 _atom_site_fract_x
 _atom_site_fract_y
 _atom_site_fract_z
 _atom_site_occupancy
 _atom_site_pbe_bader_charge
 _atom_site_pbe_bader_spin_density
 _atom_site_pbe_cm5_charge
 _atom_site_pbe_ddec_charge
 _atom_site_pbe_ddec_spin_density
 _atom_site_pbe_ddec_sum_bond_order
 _atom_site_pbe_magmom
Al  Al0  1  0.50316394  0.49498884  0.51527625  1  2.502913  0  0.397326  1.646776  0  2.568341  0
Al  Al1  1  0.00213129  0.49964790  0.51316712  1  2.503139  0  0.398515  1.650306  0  2.558953  0
H  H2  1  0.28192836  0.35212932  0.58429313  1  0.656333  0  0.356174  0.438149  0  0.843946  0
H  H3  1  0.76728380  0.58447718  0.39101211  1  0.64513  0  0.349412  0.43091  0  0.859736  0
H  H4  1  0.28367888  0.47170890  0.86136283  1  0.121894  0  0.115644  0.139263  0  0.999465  0
H  H5  1  0.71584008  0.54364340  0.16238397  1  0.127564  0  0.110402  0.131394  0  1.011873  0
C  C6  1  0.86138370  0.27047464  0.50324369  1  1.640977  0  0.266583  0.662073  0  4.120309  0
C  C7  1  0.66079329  0.50628718  0.70796631  1  1.596807  0  0.263313  0.650781  0  4.139541  0
C  C8  1  0.15740689  0.72195457  0.51491676  1  1.627234  0  0.269711  0.656262  0  4.116935  0
C  C9  1  0.34476503  0.49755973  0.31671377  1  1.546807  0  0.254716  0.642985  0  4.147974  0
C  C10  1  0.40736348  0.49127003  0.89349865  1  0.076701  0  -0.086496  -0.132452  0  3.96885  0
C  C11  1  0.58996671  0.52636974  0.13059827  1  0.009076  0  -0.09011  -0.134428  0  3.9764  0
C  C12  1  0.59630508  0.51143394  0.82686442  1  -0.183695  0  -0.017247  -0.118401  0  3.975208  0
C  C13  1  0.40341903  0.50311912  0.19739880  1  -0.12021  0  -0.023083  -0.124726  0  3.978654  0
C  C14  1  0.59057766  0.52386846  0.01991738  1  -0.16418  0  -0.020774  -0.007434  0  4.063338  0
C  C15  1  0.40361054  0.49848942  0.00396974  1  -0.176952  0  -0.021877  -0.009617  0  4.067192  0
C  C16  1  0.93952487  0.13019087  0.49452602  1  0.155755  0  -0.012504  -0.148818  0  3.94292  0
C  C17  1  0.12063623  0.06832205  0.41295609  1  0.011367  0  -0.007343  -0.017615  0  4.016089  0
C  C18  1  0.83921286  0.05818138  0.57398578  1  0.45578  0  0.102566  0.168065  0  4.074902  0
C  C19  1  0.21874107  0.13554083  0.32295263  1  0.575241  0  0.091356  0.130379  0  4.074185  0
C  C20  1  0.40207833  0.07893000  0.24709205  1  0.57442  0  0.086287  0.083492  0  4.145507  0
C  C21  1  0.09420207  0.86314111  0.50359425  1  0.118873  0  -0.008783  -0.143243  0  3.920867  0
C  C22  1  0.91423696  0.92664411  0.57764289  1  0.568276  0  0.105039  0.169435  0  4.073137  0
C  C23  1  0.20342203  0.93383979  0.41896053  1  0.088852  0  -0.005226  -0.013292  0  4.00343  0
C  C24  1  0.38659141  0.87882078  0.33661461  1  0.510599  0  0.089957  0.126288  0  4.068815  0
C  C25  1  0.48774779  0.94872239  0.25494423  1  0.600488  0  0.085335  0.08024  0  4.151132  0
S  S26  1  0.76894912  0.54024196  0.89750463  1  0.267358  0  0.093676  0.129576  0  2.750189  0
S  S27  1  0.22747826  0.47921518  0.12620376  1  0.264956  0  0.089867  0.12856  0  2.803565  0
O  O28  1  0.66879815  0.32068250  0.49546772  1  -1.240789  0  -0.23079  -0.582956  0  2.33152  0
O  O29  1  0.84552308  0.52331954  0.66073231  1  -1.254633  0  -0.234715  -0.583226  0  2.330633  0
O  O30  1  0.01940346  0.67043160  0.50094815  1  -1.241779  0  -0.224572  -0.569814  0  2.330245  0
O  O31  1  0.48628769  0.50534521  0.36521806  1  -1.254184  0  -0.239043  -0.597775  0  2.366042  0
O  O32  1  0.33714115  0.66781677  0.53714397  1  -1.241999  0  -0.226495  -0.563654  0  2.323578  0
O  O33  1  0.15490696  0.48664392  0.36233319  1  -1.262126  0  -0.244417  -0.606949  0  2.380466  0
O  O34  1  0.99302858  0.32378453  0.52232194  1  -1.244983  0  -0.232955  -0.589698  0  2.319203  0
O  O35  1  0.52883595  0.48246243  0.66129206  1  -1.261876  0  -0.234497  -0.58261  0  2.33043  0
O  O36  1  0.25595840  0.43934928  0.56010343  1  -1.457217  0  -0.446625  -0.9911  0  2.190891  0
O  O37  1  0.75028204  0.54998626  0.46501394  1  -1.443186  0  -0.447912  -0.995386  0  2.216441  0
F  F38  1  0.80666827  0.86433322  0.65942340  1  -0.61348  0  -0.080379  -0.099733  0  1.358887  0
F  F39  1  0.66907296  0.11175325  0.65419441  1  -0.615383  0  -0.086313  -0.105723  0  1.349444  0
F  F40  1  0.46753459  0.75337455  0.33245091  1  -0.62481  0  -0.066018  -0.083901  0  1.468092  0
F  F41  1  0.66340455  0.89248355  0.17937272  1  -0.612049  0  -0.086805  -0.091747  0  1.361552  0
F  F42  1  0.49486807  0.14525251  0.16345505  1  -0.61158  0  -0.082899  -0.088767  0  1.375211  0
F  F43  1  0.12815483  0.25839863  0.30687118  1  -0.621429  0  -0.068001  -0.081868  0  1.468911  0
