# generated using pymatgen
data_DyCuH22C18IN5O9
_symmetry_space_group_name_H-M   'P 1'
_cell_length_a   10.87545021
_cell_length_b   11.76805126
_cell_length_c   14.50995609
_cell_angle_alpha   82.40747333
_cell_angle_beta   84.14432363
_cell_angle_gamma   68.32519425
_symmetry_Int_Tables_number   1
_chemical_formula_structural   DyCuH22C18IN5O9
_chemical_formula_sum   'Dy2 Cu2 H44 C36 I2 N10 O18'
_cell_volume   1707.73716980
_cell_formula_units_Z   2
loop_
 _symmetry_equiv_pos_site_id
 _symmetry_equiv_pos_as_xyz
  1  'x, y, z'
loop_
 _atom_site_type_symbol
 _atom_site_label
 _atom_site_symmetry_multiplicity
 _atom_site_fract_x
 _atom_site_fract_y
 _atom_site_fract_z
 _atom_site_occupancy
 _atom_site_hle17_bader_spin_density
 _atom_site_hle17_ddec_charge
 _atom_site_hle17_ddec_spin_density
 _atom_site_hle17_ddec_sum_bond_order
 _atom_site_hle17_magmom
 _atom_site_hse06_10hf_bader_spin_density
 _atom_site_hse06_10hf_ddec_charge
 _atom_site_hse06_10hf_ddec_spin_density
 _atom_site_hse06_10hf_ddec_sum_bond_order
 _atom_site_hse06_10hf_magmom
 _atom_site_hse06_bader_spin_density
 _atom_site_hse06_ddec_charge
 _atom_site_hse06_ddec_spin_density
 _atom_site_hse06_ddec_sum_bond_order
 _atom_site_hse06_magmom
 _atom_site_pbe_bader_spin_density
 _atom_site_pbe_cm5_charge
 _atom_site_pbe_ddec_charge
 _atom_site_pbe_ddec_spin_density
 _atom_site_pbe_ddec_sum_bond_order
 _atom_site_pbe_magmom
Dy  Dy0  1  0.90177720  0.87509978  0.03670529  1  0  2.236026  0  1.683583  0  0  2.088235  0  2.163623  0  0  2.216916  0  1.972661  0  0  1.533676  2.049707  0  2.197721  0
Dy  Dy1  1  0.09822452  0.12490255  0.96329742  1  0  2.236065  0  1.683558  0  0  2.088259  0  2.163605  0  0  2.216931  0  1.972642  0  0  1.533692  2.049729  0  2.197707  0
Cu  Cu2  1  0.51470080  0.49726530  0.41229467  1  0  0.303597  0  2.218509  0  0  0.204267  0  2.719176  0  0  0.200713  0  2.674695  0  0  0.367577  0.2111  0  2.744078  0
Cu  Cu3  1  0.48528143  0.50273047  0.58770147  1  0  0.303513  0  2.218444  0  0  0.204059  0  2.719099  0  0  0.200657  0  2.674611  0  0  0.36751  0.210891  0  2.743981  0
H  H4  1  0.55469833  0.70616027  0.29369833  1  0  0.084046  0  0.970592  0  0  0.087237  0  1.043147  0  0  0.090879  0  1.039841  0  0  0.103243  0.0846  0  1.045544  0
H  H5  1  0.44528556  0.29383010  0.70631552  1  0  0.084101  0  0.970412  0  0  0.087338  0  1.042928  0  0  0.090981  0  1.039621  0  0  0.103259  0.084711  0  1.04532  0
H  H6  1  0.44510949  0.85376585  0.15962030  1  0  0.117517  0  0.949128  0  0  0.124826  0  1.01406  0  0  0.128863  0  1.011526  0  0  0.109904  0.12179  0  1.016197  0
H  H7  1  0.55490110  0.14621815  0.84038309  1  0  0.117533  0  0.948922  0  0  0.124846  0  1.013849  0  0  0.12889  0  1.011306  0  0  0.109971  0.121818  0  1.015968  0
H  H8  1  0.12955922  0.70909136  0.20352628  1  0  0.130088  0  0.948974  0  0  0.138848  0  1.009958  0  0  0.142963  0  1.006828  0  0  0.118471  0.135694  0  1.012822  0
H  H9  1  0.87043458  0.29090956  0.79646210  1  0  0.130112  0  0.949027  0  0  0.138827  0  1.010042  0  0  0.14294  0  1.006912  0  0  0.118505  0.135678  0  1.012897  0
H  H10  1  0.25556744  0.56287479  0.33330256  1  0  0.079516  0  0.962304  0  0  0.084901  0  1.029178  0  0  0.088999  0  1.025438  0  0  0.100381  0.081847  0  1.031942  0
H  H11  1  0.74441902  0.43711735  0.66668468  1  0  0.079409  0  0.962361  0  0  0.084796  0  1.029269  0  0  0.0889  0  1.025527  0  0  0.100346  0.081749  0  1.032025  0
H  H12  1  0.79305547  0.43441262  0.33945445  1  0  0.081923  0  0.952699  0  0  0.087552  0  1.0188  0  0  0.091829  0  1.014825  0  0  0.103808  0.08428  0  1.021918  0
H  H13  1  0.20692828  0.56560940  0.66053509  1  0  0.081968  0  0.952678  0  0  0.087649  0  1.018719  0  0  0.091913  0  1.014757  0  0  0.103865  0.084377  0  1.021844  0
H  H14  1  0.93848142  0.29529337  0.22155719  1  0  0.100328  0  0.957036  0  0  0.110129  0  1.019537  0  0  0.113692  0  1.017016  0  0  0.106284  0.107629  0  1.021286  0
H  H15  1  0.06150397  0.70472502  0.77843746  1  0  0.100234  0  0.956781  0  0  0.110085  0  1.019253  0  0  0.113654  0  1.016729  0  0  0.106254  0.107582  0  1.021  0
H  H16  1  0.65792343  0.11293828  0.24606930  1  0  0.113054  0  0.957417  0  0  0.121007  0  1.02198  0  0  0.124456  0  1.020455  0  0  0.110925  0.118568  0  1.02315  0
H  H17  1  0.34209001  0.88705435  0.75394112  1  0  0.11299  0  0.957391  0  0  0.12091  0  1.021987  0  0  0.124352  0  1.020481  0  0  0.11093  0.118471  0  1.023151  0
H  H18  1  0.52094232  0.26194017  0.36158468  1  0  0.070526  0  0.981976  0  0  0.074138  0  1.055775  0  0  0.078435  0  1.05144  0  0  0.096162  0.071054  0  1.058806  0
H  H19  1  0.47906147  0.73805105  0.63842121  1  0  0.070548  0  0.982137  0  0  0.074134  0  1.055951  0  0  0.078427  0  1.051621  0  0  0.096179  0.071053  0  1.058978  0
H  H20  1  0.26866227  0.57476145  0.07050287  1  0  0.118771  0  0.955419  0  0  0.134553  0  1.021466  0  0  0.135746  0  1.02119  0  0  0.113442  0.133717  0  1.0215  0
H  H21  1  0.73135152  0.42524039  0.92948648  1  0  0.118764  0  0.955408  0  0  0.134609  0  1.02139  0  0  0.135801  0  1.02111  0  0  0.113438  0.133776  0  1.021428  0
H  H22  1  0.39112361  0.50400828  0.98187862  1  0  0.092216  0  0.931207  0  0  0.115185  0  0.989419  0  0  0.1156  0  0.989415  0  0  0.106262  0.114842  0  0.989417  0
H  H23  1  0.60888182  0.49599784  0.01810955  1  0  0.09219  0  0.931275  0  0  0.115211  0  0.989448  0  0  0.115617  0  0.989451  0  0  0.106263  0.114871  0  0.98944  0
H  H24  1  0.33060223  0.41125042  0.06794652  1  0  0.099033  0  0.93841  0  0  0.121728  0  0.997702  0  0  0.121967  0  0.997927  0  0  0.107196  0.12153  0  0.997443  0
H  H25  1  0.66941301  0.58875246  0.93204672  1  0  0.099076  0  0.938346  0  0  0.121733  0  0.997708  0  0  0.12197  0  0.997935  0  0  0.107182  0.121537  0  0.997448  0
H  H26  1  0.14493834  0.44995384  0.85285111  1  0  0.11091  0  0.926842  0  0  0.132982  0  0.98491  0  0  0.133791  0  0.984788  0  0  0.115017  0.132295  0  0.985042  0
H  H27  1  0.85506752  0.55005139  0.14713920  1  0  0.111022  0  0.926878  0  0  0.133061  0  0.984949  0  0  0.133863  0  0.984834  0  0  0.11507  0.132374  0  0.98508  0
H  H28  1  0.26952831  0.33707438  0.92084651  1  0  0.11608  0  0.962326  0  0  0.12972  0  1.034723  0  0  0.131308  0  1.034292  0  0  0.109266  0.128391  0  1.03552  0
H  H29  1  0.73048558  0.66292932  0.07914123  1  0  0.116282  0  0.962072  0  0  0.129748  0  1.034681  0  0  0.131335  0  1.034245  0  0  0.109285  0.128425  0  1.035484  0
H  H30  1  0.30995602  0.45098296  0.84233328  1  0  0.096304  0  0.944696  0  0  0.11494  0  1.010416  0  0  0.115126  0  1.011725  0  0  0.101211  0.114696  0  1.009547  0
H  H31  1  0.69005023  0.54902797  0.15766324  1  0  0.096317  0  0.944784  0  0  0.114998  0  1.01043  0  0  0.115184  0  1.011737  0  0  0.101221  0.114749  0  1.009573  0
H  H32  1  0.00686667  0.60063570  0.92661890  1  0  0.040918  0  0.927735  0  0  0.049089  0  0.998531  0  0  0.05139  0  0.992909  0  0  0.126592  0.047217  0  1.002752  0
H  H33  1  0.99313757  0.39936302  0.07338608  1  0  0.04075  0  0.927823  0  0  0.049043  0  0.998493  0  0  0.051345  0  0.992866  0  0  0.126592  0.047171  0  1.002715  0
H  H34  1  0.56293820  0.82988825  0.97867711  1  0  0.120638  0  0.936707  0  0  0.140398  0  0.996492  0  0  0.14232  0  0.99483  0  0  0.115694  0.13898  0  0.99764  0
H  H35  1  0.43705272  0.17010707  0.02133007  1  0  0.120661  0  0.936687  0  0  0.140436  0  0.996454  0  0  0.142358  0  0.994793  0  0  0.115727  0.139014  0  0.997607  0
H  H36  1  0.49227948  0.77902649  0.89296259  1  0  0.088761  0  0.935263  0  0  0.107763  0  1.00191  0  0  0.107814  0  1.002318  0  0  0.100562  0.107689  0  1.00152  0
H  H37  1  0.50772269  0.22096837  0.10703957  1  0  0.088802  0  0.935254  0  0  0.107805  0  1.001886  0  0  0.107857  0  1.002295  0  0  0.1006  0.107732  0  1.001497  0
H  H38  1  0.44170306  0.93886832  0.90474894  1  0  0.126453  0  0.954428  0  0  0.143702  0  1.019811  0  0  0.145085  0  1.019009  0  0  0.114716  0.142528  0  1.020867  0
H  H39  1  0.55829055  0.06112710  0.09525524  1  0  0.126459  0  0.954402  0  0  0.143689  0  1.019815  0  0  0.145071  0  1.019013  0  0  0.114719  0.142518  0  1.02087  0
H  H40  1  0.68246778  0.92943751  0.70816614  1  0  0.109728  0  0.920176  0  0  0.131793  0  0.976351  0  0  0.132622  0  0.976353  0  0  0.116664  0.131063  0  0.976462  0
H  H41  1  0.31753615  0.07055560  0.29184158  1  0  0.109739  0  0.920153  0  0  0.131773  0  0.976375  0  0  0.1326  0  0.976378  0  0  0.116635  0.131045  0  0.976488  0
H  H42  1  0.51161647  0.99660613  0.74542094  1  0  0.116501  0  0.949578  0  0  0.132128  0  1.017856  0  0  0.133732  0  1.016658  0  0  0.109706  0.130807  0  1.018879  0
H  H43  1  0.48838296  0.00338859  0.25458008  1  0  0.116441  0  0.949593  0  0  0.132113  0  1.017837  0  0  0.133714  0  1.016641  0  0  0.1097  0.130789  0  1.018864  0
H  H44  1  0.57665856  0.84398126  0.71063083  1  0  0.101638  0  0.93755  0  0  0.123045  0  0.9981  0  0  0.123663  0  0.998098  0  0  0.105959  0.1225  0  0.998046  0
H  H45  1  0.42335091  0.15600557  0.28937991  1  0  0.101675  0  0.937622  0  0  0.123131  0  0.99812  0  0  0.123745  0  0.998117  0  0  0.106009  0.122586  0  0.998064  0
H  H46  1  0.82399027  0.85240624  0.81272644  1  0  0.044832  0  0.920563  0  0  0.053047  0  0.98935  0  0  0.055431  0  0.983334  0  0  0.127911  0.051202  0  0.993723  0
H  H47  1  0.17600283  0.14761643  0.18728912  1  0  0.044806  0  0.920566  0  0  0.053073  0  0.989287  0  0  0.055462  0  0.983264  0  0  0.127915  0.051226  0  0.993659  0
C  C48  1  0.46217388  0.70762034  0.26961858  1  0  0.103484  0  3.689243  0  0  0.077107  0  3.938413  0  0  0.082402  0  3.953795  0  0  0.032949  0.073079  0  3.929276  0
C  C49  1  0.53782144  0.29237328  0.73038566  1  0  0.103181  0  3.689296  0  0  0.076681  0  3.938409  0  0  0.081978  0  3.9538  0  0  0.032831  0.072587  0  3.929379  0
C  C50  1  0.39993135  0.79061492  0.19614184  1  0  -0.125138  0  3.718828  0  0  -0.14689  0  3.966335  0  0  -0.151482  0  3.986111  0  0  -0.083122  -0.143796  0  3.95293  0
C  C51  1  0.60006624  0.20937131  0.80386238  1  0  -0.125084  0  3.71821  0  0  -0.146825  0  3.965743  0  0  -0.151419  0  3.985518  0  0  -0.083191  -0.143707  0  3.952325  0
C  C52  1  0.27861651  0.79225526  0.17015126  1  0  -0.030127  0  3.736145  0  0  -0.012513  0  3.967837  0  0  -0.014365  0  3.985273  0  0  -0.006225  -0.010746  0  3.954689  0
C  C53  1  0.72138290  0.20773944  0.82984769  1  0  -0.030027  0  3.735615  0  0  -0.012469  0  3.967328  0  0  -0.014334  0  3.984775  0  0  -0.006178  -0.01072  0  3.954202  0
C  C54  1  0.22489715  0.70934619  0.22001021  1  0  -0.115483  0  3.699401  0  0  -0.136629  0  3.941963  0  0  -0.140119  0  3.95966  0  0  -0.075332  -0.134428  0  3.930002  0
C  C55  1  0.77510032  0.29065493  0.77998196  1  0  -0.115445  0  3.699077  0  0  -0.136496  0  3.941651  0  0  -0.139983  0  3.959346  0  0  -0.075312  -0.134279  0  3.929682  0
C  C56  1  0.29394592  0.62842049  0.29191863  1  0  0.11148  0  3.684062  0  0  0.087293  0  3.926321  0  0  0.092482  0  3.941247  0  0  0.037664  0.083632  0  3.917004  0
C  C57  1  0.70603597  0.37156964  0.70807681  1  0  0.111392  0  3.684449  0  0  0.087065  0  3.926715  0  0  0.092252  0  3.941645  0  0  0.037502  0.083379  0  3.917428  0
C  C58  1  0.20570408  0.88276205  0.09366747  1  0  0.708622  0  3.862092  0  0  0.663918  0  4.14852  0  0  0.701238  0  4.139308  0  0  0.228762  0.638503  0  4.158323  0
C  C59  1  0.79430142  0.11723576  0.90633269  1  0  0.70844  0  3.862176  0  0  0.663772  0  4.148552  0  0  0.70109  0  4.139348  0  0  0.228726  0.638363  0  4.158363  0
C  C60  1  0.76625587  0.36298334  0.31522595  1  0  0.106912  0  3.694889  0  0  0.081643  0  3.941207  0  0  0.087434  0  3.955726  0  0  0.035219  0.077811  0  3.931962  0
C  C61  1  0.23372838  0.63703124  0.68476717  1  0  0.106823  0  3.694935  0  0  0.081486  0  3.941266  0  0  0.087286  0  3.955806  0  0  0.035162  0.077651  0  3.932023  0
C  C62  1  0.84613568  0.28580168  0.25081768  1  0  -0.122589  0  3.739578  0  0  -0.14432  0  3.986332  0  0  -0.149084  0  4.006127  0  0  -0.083688  -0.141284  0  3.972733  0
C  C63  1  0.15386230  0.71421539  0.74917468  1  0  -0.122345  0  3.739565  0  0  -0.144106  0  3.986323  0  0  -0.148877  0  4.006123  0  0  -0.083559  -0.141067  0  3.97272  0
C  C64  1  0.80607511  0.19637383  0.22232009  1  0  -0.021383  0  3.720827  0  0  -0.004122  0  3.950584  0  0  -0.004932  0  3.967095  0  0  -0.005275  -0.00302  0  3.938126  0
C  C65  1  0.19392586  0.80363217  0.77767675  1  0  -0.021532  0  3.720987  0  0  -0.004277  0  3.950702  0  0  -0.005085  0  3.967225  0  0  -0.005405  -0.003184  0  3.938242  0
C  C66  1  0.68894767  0.18470232  0.26414926  1  0  -0.120828  0  3.724526  0  0  -0.142366  0  3.968166  0  0  -0.146427  0  3.986731  0  0  -0.082235  -0.139674  0  3.955422  0
C  C67  1  0.31105324  0.81529345  0.73585703  1  0  -0.120817  0  3.724601  0  0  -0.14231  0  3.968271  0  0  -0.146366  0  3.986825  0  0  -0.08227  -0.139615  0  3.955528  0
C  C68  1  0.61388304  0.26589408  0.32746548  1  0  0.106174  0  3.700058  0  0  0.079789  0  3.947004  0  0  0.08558  0  3.961042  0  0  0.033016  0.075272  0  3.939141  0
C  C69  1  0.38612250  0.73410376  0.67253881  1  0  0.10625  0  3.700044  0  0  0.079847  0  3.946999  0  0  0.085642  0  3.961053  0  0  0.033026  0.075321  0  3.939131  0
C  C70  1  0.88294607  0.11833743  0.14693277  1  0  0.722166  0  3.845405  0  0  0.678415  0  4.13224  0  0  0.716258  0  4.120175  0  0  0.233689  0.652991  0  4.142661  0
C  C71  1  0.11704804  0.88167393  0.85306954  1  0  0.722044  0  3.845821  0  0  0.678355  0  4.132573  0  0  0.716171  0  4.120563  0  0  0.233591  0.652944  0  4.142975  0
C  C72  1  0.30334722  0.50037371  0.02523791  1  0  -0.161902  0  3.643426  0  0  -0.258213  0  3.878989  0  0  -0.254197  0  3.888276  0  0  -0.126552  -0.260531  0  3.872155  0
C  C73  1  0.69666337  0.49962706  0.97475458  1  0  -0.161867  0  3.643407  0  0  -0.258241  0  3.879026  0  0  -0.254213  0  3.88831  0  0  -0.12653  -0.260564  0  3.872192  0
C  C74  1  0.23301612  0.43341271  0.89086917  1  0  -0.18487  0  3.652282  0  0  -0.290761  0  3.908761  0  0  -0.288499  0  3.920495  0  0  -0.132897  -0.29187  0  3.900495  0
C  C75  1  0.76699328  0.56659083  0.10912380  1  0  -0.185173  0  3.652303  0  0  -0.290972  0  3.908892  0  0  -0.288703  0  3.92062  0  0  -0.133068  -0.2921  0  3.90064  0
C  C76  1  0.07665194  0.59574197  0.97841375  1  0  0.414829  0  3.823732  0  0  0.33613  0  4.124569  0  0  0.364528  0  4.127766  0  0  0.183198  0.317056  0  4.124617  0
C  C77  1  0.92335209  0.40426140  0.02158796  1  0  0.415116  0  3.823247  0  0  0.336335  0  4.12413  0  0  0.364735  0  4.127321  0  0  0.183264  0.31726  0  4.124175  0
C  C78  1  0.52602019  0.85134460  0.90868831  1  0  -0.172767  0  3.613363  0  0  -0.273522  0  3.860709  0  0  -0.269556  0  3.86832  0  0  -0.132316  -0.275723  0  3.855029  0
C  C79  1  0.47397465  0.14865648  0.09131374  1  0  -0.172805  0  3.613211  0  0  -0.273539  0  3.860563  0  0  -0.269559  0  3.868187  0  0  -0.132369  -0.275735  0  3.854872  0
C  C80  1  0.59839151  0.91076205  0.74611785  1  0  -0.178346  0  3.647857  0  0  -0.278243  0  3.891704  0  0  -0.275508  0  3.90255  0  0  -0.125844  -0.279683  0  3.884212  0
C  C81  1  0.40160991  0.08923468  0.25388897  1  0  -0.17826  0  3.647612  0  0  -0.278208  0  3.891469  0  0  -0.275448  0  3.902326  0  0  -0.125803  -0.279647  0  3.883979  0
C  C82  1  0.75473766  0.83199620  0.86761088  1  0  0.418006  0  3.819903  0  0  0.339618  0  4.116048  0  0  0.36887  0  4.118002  0  0  0.181468  0.31993  0  4.116997  0
C  C83  1  0.24525770  0.16801245  0.13239784  1  0  0.417994  0  3.819547  0  0  0.339599  0  4.11568  0  0  0.368865  0  4.117642  0  0  0.181487  0.319907  0  4.11662  0
I  I84  1  0.65454814  0.59684949  0.49220379  1  0  -0.509005  0  1.257531  0  0  -0.46277  0  1.592721  0  0  -0.484536  0  1.564355  0  0  -0.274884  -0.446518  0  1.61044  0
I  I85  1  0.34543126  0.40315266  0.50778703  1  0  -0.508981  0  1.25752  0  0  -0.462743  0  1.592699  0  0  -0.484515  0  1.564338  0  0  -0.274865  -0.446487  0  1.610409  0
N  N86  1  0.41129229  0.62631609  0.31684175  1  0  -0.248906  0  3.3526  0  0  -0.1787  0  3.639965  0  0  -0.185656  0  3.646504  0  0  -0.356849  -0.174924  0  3.635272  0
N  N87  1  0.58869568  0.37366874  0.68315999  1  0  -0.248635  0  3.35301  0  0  -0.178147  0  3.640055  0  0  -0.185139  0  3.646654  0  0  -0.356621  -0.174345  0  3.63532  0
N  N88  1  0.64932539  0.35623785  0.35138771  1  0  -0.246204  0  3.34708  0  0  -0.176763  0  3.632988  0  0  -0.183295  0  3.638805  0  0  -0.357448  -0.173369  0  3.628998  0
N  N89  1  0.35066993  0.64376416  0.64861075  1  0  -0.246259  0  3.346873  0  0  -0.176757  0  3.632776  0  0  -0.183327  0  3.638653  0  0  -0.357457  -0.173342  0  3.628764  0
N  N90  1  0.19877865  0.51383352  0.96504510  1  0  -0.077352  0  3.489692  0  0  0.028394  0  3.722716  0  0  0.008447  0  3.747843  0  0  -0.274095  0.042043  0  3.704512  0
N  N91  1  0.80122618  0.48616141  0.03495131  1  0  -0.077473  0  3.489834  0  0  0.028298  0  3.722873  0  0  0.008352  0  3.747991  0  0  -0.27402  0.041949  0  3.704672  0
N  N92  1  0.63194767  0.86159701  0.84171196  1  0  -0.076707  0  3.49249  0  0  0.027961  0  3.727838  0  0  0.008329  0  3.752113  0  0  -0.27264  0.041265  0  3.710385  0
N  N93  1  0.36804773  0.13840508  0.15829544  1  0  -0.076795  0  3.492281  0  0  0.02782  0  3.727744  0  0  0.008139  0  3.752072  0  0  -0.272705  0.041125  0  3.71029  0
N  N94  1  0.76169070  0.82786915  0.20737535  1  0  0.719995  0  4.118082  0  0  0.74092  0  4.427812  0  0  0.769264  0  4.437898  0  0  0.078758  0.721468  0  4.424294  0
N  N95  1  0.23831996  0.17212332  0.79263050  1  0  0.720005  0  4.117993  0  0  0.740908  0  4.427729  0  0  0.769253  0  4.437807  0  0  0.078691  0.721457  0  4.424218  0
O  O96  1  0.25292487  0.96243409  0.05462833  1  0  -0.697588  0  2.000219  0  0  -0.647365  0  2.241572  0  0  -0.681352  0  2.229211  0  0  -0.377812  -0.630013  0  2.247862  0
O  O97  1  0.74708023  0.03756463  0.94537176  1  0  -0.697479  0  2.000297  0  0  -0.647272  0  2.241645  0  0  -0.681262  0  2.229289  0  0  -0.377774  -0.629914  0  2.247923  0
O  O98  1  0.09726406  0.87819279  0.07193383  1  0  -0.785855  0  2.16816  0  0  -0.732214  0  2.430826  0  0  -0.77356  0  2.417042  0  0  -0.417385  -0.714051  0  2.439322  0
O  O99  1  0.90273174  0.12181676  0.92806785  1  0  -0.785816  0  2.168097  0  0  -0.732196  0  2.430762  0  0  -0.773539  0  2.416982  0  0  -0.417374  -0.714033  0  2.439259  0
O  O100  1  0.98424807  0.13957792  0.10871274  1  0  -0.752738  0  2.088427  0  0  -0.702773  0  2.343229  0  0  -0.739591  0  2.329706  0  0  -0.398486  -0.684173  0  2.349927  0
O  O101  1  0.01574669  0.86043808  0.89128139  1  0  -0.752537  0  2.088715  0  0  -0.702609  0  2.343513  0  0  -0.739401  0  2.329974  0  0  -0.398346  -0.684012  0  2.350203  0
O  O102  1  0.83939182  0.03972080  0.12559619  1  0  -0.726405  0  2.087286  0  0  -0.679111  0  2.3398  0  0  -0.714919  0  2.32656  0  0  -0.39258  -0.661551  0  2.346733  0
O  O103  1  0.16060819  0.96028333  0.87440576  1  0  -0.726343  0  2.0874  0  0  -0.679077  0  2.339897  0  0  -0.714878  0  2.326678  0  0  -0.39252  -0.661519  0  2.346824  0
O  O104  1  0.04040921  0.66279953  0.04397993  1  0  -0.624706  0  2.114883  0  0  -0.57477  0  2.379568  0  0  -0.608598  0  2.370542  0  0  -0.370796  -0.558142  0  2.383714  0
O  O105  1  0.95960838  0.33720440  0.95601437  1  0  -0.624752  0  2.114302  0  0  -0.574821  0  2.379044  0  0  -0.608652  0  2.370011  0  0  -0.370849  -0.558198  0  2.3832  0
O  O106  1  0.79292638  0.78507899  0.94770517  1  0  -0.641078  0  2.129122  0  0  -0.589849  0  2.396449  0  0  -0.623751  0  2.388127  0  0  -0.374279  -0.572825  0  2.400659  0
O  O107  1  0.20706693  0.21492582  0.05230210  1  0  -0.640998  0  2.128557  0  0  -0.589824  0  2.39597  0  0  -0.623719  0  2.387634  0  0  -0.374298  -0.572794  0  2.40017  0
O  O108  1  0.88865657  0.79033355  0.19992778  1  0  -0.534725  0  1.761345  0  0  -0.526192  0  1.988277  0  0  -0.549786  0  1.977553  0  0  -0.242703  -0.515285  0  1.994728  0
O  O109  1  0.11135441  0.20966454  0.80007670  1  0  -0.534809  0  1.76119  0  0  -0.526256  0  1.988124  0  0  -0.549849  0  1.977395  0  0  -0.242767  -0.515351  0  1.99458  0
O  O110  1  0.70303352  0.86774200  0.12946701  1  0  -0.580949  0  1.77981  0  0  -0.566315  0  2.019462  0  0  -0.591914  0  2.010427  0  0  -0.258448  -0.553934  0  2.025025  0
O  O111  1  0.29697700  0.13224856  0.87053563  1  0  -0.58096  0  1.78014  0  0  -0.566308  0  2.019809  0  0  -0.591905  0  2.010774  0  0  -0.258401  -0.553922  0  2.02537  0
O  O112  1  0.69842277  0.82679367  0.28267650  1  0  -0.37549  0  1.735577  0  0  -0.368036  0  1.93297  0  0  -0.377118  0  1.925684  0  0  -0.143502  -0.361275  0  1.937674  0
O  O113  1  0.30158634  0.17319590  0.71732706  1  0  -0.37544  0  1.735424  0  0  -0.368001  0  1.932846  0  0  -0.377081  0  1.925552  0  0  -0.143428  -0.361238  0  1.937547  0
