# generated using pymatgen
data_CdH5C9(NO3)2
_symmetry_space_group_name_H-M   'P 1'
_cell_length_a   6.88781670
_cell_length_b   6.88783405
_cell_length_c   11.83499620
_cell_angle_alpha   76.42408610
_cell_angle_beta   76.42397957
_cell_angle_gamma   68.48296440
_symmetry_Int_Tables_number   1
_chemical_formula_structural   CdH5C9(NO3)2
_chemical_formula_sum   'Cd2 H10 C18 N4 O12'
_cell_volume   500.84696398
_cell_formula_units_Z   2
loop_
 _symmetry_equiv_pos_site_id
 _symmetry_equiv_pos_as_xyz
  1  'x, y, z'
loop_
 _atom_site_type_symbol
 _atom_site_label
 _atom_site_symmetry_multiplicity
 _atom_site_fract_x
 _atom_site_fract_y
 _atom_site_fract_z
 _atom_site_occupancy
 _atom_site_hle17_bader_spin_density
 _atom_site_hle17_ddec_charge
 _atom_site_hle17_ddec_spin_density
 _atom_site_hle17_ddec_sum_bond_order
 _atom_site_hle17_magmom
 _atom_site_hse06_10hf_bader_spin_density
 _atom_site_hse06_10hf_ddec_charge
 _atom_site_hse06_10hf_ddec_spin_density
 _atom_site_hse06_10hf_ddec_sum_bond_order
 _atom_site_hse06_10hf_magmom
 _atom_site_hse06_bader_spin_density
 _atom_site_hse06_ddec_charge
 _atom_site_hse06_ddec_spin_density
 _atom_site_hse06_ddec_sum_bond_order
 _atom_site_hse06_magmom
 _atom_site_pbe_bader_spin_density
 _atom_site_pbe_cm5_charge
 _atom_site_pbe_ddec_charge
 _atom_site_pbe_ddec_spin_density
 _atom_site_pbe_ddec_sum_bond_order
 _atom_site_pbe_magmom
Cd  Cd0  1  0.56326373  0.56325750  0.21555976  1  0  1.148262  0  1.566437  0  0  0.950974  0  1.987942  0  0  1.015834  0  1.933525  0  0  0.764766  0.904299  0  2.025312  0
Cd  Cd1  1  0.43672939  0.43674243  0.78443840  1  0  1.148206  0  1.56635  0  0  0.950976  0  1.987835  0  0  1.015833  0  1.933417  0  0  0.764789  0.904303  0  2.025199  0
H  H2  1  0.28356773  0.47998994  0.09873534  1  0  0.423824  0  0.867573  0  0  0.390999  0  0.940847  0  0  0.40221  0  0.924726  0  0  0.292134  0.382994  0  0.952344  0
H  H3  1  0.52001122  0.71642996  0.90126799  1  0  0.423851  0  0.867471  0  0  0.390987  0  0.940851  0  0  0.402199  0  0.92473  0  0  0.292125  0.38298  0  0.952351  0
H  H4  1  0.71642990  0.52001001  0.90126472  1  0  0.423829  0  0.867557  0  0  0.390993  0  0.940849  0  0  0.402203  0  0.924731  0  0  0.292147  0.382989  0  0.952344  0
H  H5  1  0.47999044  0.28356684  0.09873195  1  0  0.423855  0  0.867477  0  0  0.391001  0  0.940835  0  0  0.402214  0  0.924711  0  0  0.292118  0.382996  0  0.952333  0
H  H6  1  0.25597501  0.25597304  0.33169762  1  0  0.10295  0  0.948344  0  0  0.110831  0  1.0087  0  0  0.113251  0  1.005877  0  0  0.122343  0.108965  0  1.010732  0
H  H7  1  0.74402271  0.74402219  0.66830478  1  0  0.102986  0  0.948102  0  0  0.110835  0  1.008521  0  0  0.113255  0  1.005696  0  0  0.12234  0.108972  0  1.010549  0
H  H8  1  0.09389800  0.09389292  0.53323806  1  0  0.134021  0  0.936251  0  0  0.138822  0  1.001117  0  0  0.143658  0  0.997689  0  0  0.117578  0.135263  0  1.00388  0
H  H9  1  0.90610320  0.90610070  0.46676070  1  0  0.134037  0  0.936271  0  0  0.138847  0  1.001125  0  0  0.143697  0  0.99768  0  0  0.11759  0.13529  0  1.003886  0
H  H10  1  0.17316135  0.17316213  0.71258168  1  0  0.099341  0  0.972229  0  0  0.106571  0  1.03622  0  0  0.108788  0  1.033592  0  0  0.122614  0.104827  0  1.038213  0
H  H11  1  0.82683284  0.82683465  0.28741931  1  0  0.099317  0  0.972246  0  0  0.106541  0  1.036238  0  0  0.108755  0  1.033608  0  0  0.122609  0.104797  0  1.038229  0
C  C12  1  0.26726537  0.96485287  0.06758781  1  0  0.209448  0  3.84061  0  0  0.182959  0  4.113293  0  0  0.195667  0  4.127214  0  0  0.104638  0.174324  0  4.103817  0
C  C13  1  0.03515040  0.73273913  0.93240853  1  0  0.209371  0  3.840774  0  0  0.182917  0  4.113448  0  0  0.195627  0  4.127374  0  0  0.104632  0.174298  0  4.103959  0
C  C14  1  0.73273517  0.03515183  0.93241118  1  0  0.209307  0  3.840919  0  0  0.182831  0  4.113603  0  0  0.195542  0  4.127525  0  0  0.104581  0.174212  0  4.104103  0
C  C15  1  0.96485564  0.26726240  0.06758844  1  0  0.209374  0  3.840603  0  0  0.182896  0  4.113273  0  0  0.195614  0  4.127186  0  0  0.104602  0.174259  0  4.103803  0
C  C16  1  0.14774937  0.14774279  0.98952873  1  0  0.218523  0  3.881396  0  0  0.195828  0  4.171849  0  0  0.207104  0  4.186412  0  0  0.10352  0.187888  0  4.16245  0
C  C17  1  0.85225274  0.85225718  0.01047070  1  0  0.2185  0  3.881384  0  0  0.195821  0  4.171789  0  0  0.207095  0  4.186357  0  0  0.103526  0.187868  0  4.162393  0
C  C18  1  0.17432778  0.98565180  0.19098925  1  0  0.210826  0  3.871309  0  0  0.19171  0  4.146287  0  0  0.20502  0  4.157166  0  0  0.102758  0.182663  0  4.138724  0
C  C19  1  0.01436339  0.82568195  0.80901063  1  0  0.210704  0  3.871529  0  0  0.191625  0  4.14648  0  0  0.204932  0  4.157363  0  0  0.102738  0.18257  0  4.138919  0
C  C20  1  0.82567703  0.01436719  0.80901135  1  0  0.210849  0  3.871424  0  0  0.191798  0  4.146357  0  0  0.205105  0  4.157238  0  0  0.102808  0.182751  0  4.138787  0
C  C21  1  0.98565560  0.17432122  0.19098767  1  0  0.210725  0  3.87136  0  0  0.191685  0  4.146255  0  0  0.204992  0  4.157133  0  0  0.102779  0.182639  0  4.138694  0
C  C22  1  0.27921102  0.27920534  0.41482811  1  0  0.188306  0  3.638584  0  0  0.153513  0  3.891961  0  0  0.163289  0  3.909022  0  0  0.074621  0.147333  0  3.880321  0
C  C23  1  0.72078366  0.72078982  0.58516881  1  0  0.188368  0  3.638491  0  0  0.153616  0  3.891893  0  0  0.163391  0  3.908961  0  0  0.074685  0.147437  0  3.880249  0
C  C24  1  0.19166917  0.19166078  0.52407580  1  0  -0.142589  0  3.655928  0  0  -0.158795  0  3.915756  0  0  -0.168916  0  3.935387  0  0  -0.067982  -0.152486  0  3.902864  0
C  C25  1  0.80833038  0.80834233  0.47592186  1  0  -0.142659  0  3.655953  0  0  -0.15889  0  3.915776  0  0  -0.169025  0  3.9354  0  0  -0.068016  -0.152582  0  3.902886  0
C  C26  1  0.23423732  0.23423623  0.62330794  1  0  0.189235  0  3.635169  0  0  0.154367  0  3.887214  0  0  0.164649  0  3.903393  0  0  0.075009  0.147773  0  3.876193  0
C  C27  1  0.76576569  0.76577008  0.37669216  1  0  0.18937  0  3.634973  0  0  0.154535  0  3.886983  0  0  0.164822  0  3.90316  0  0  0.075087  0.147935  0  3.875964  0
C  C28  1  0.43294249  0.43294311  0.50556334  1  0  0.32248  0  3.713398  0  0  0.298731  0  3.965084  0  0  0.312717  0  3.979604  0  0  0.263006  0.289347  0  3.955123  0
C  C29  1  0.56705173  0.56705371  0.49444103  1  0  0.322761  0  3.713209  0  0  0.299052  0  3.964859  0  0  0.313044  0  3.979368  0  0  0.263046  0.289659  0  3.954906  0
N  N30  1  0.39946008  0.39946068  0.40586469  1  0  -0.361561  0  3.159767  0  0  -0.296233  0  3.414186  0  0  -0.317975  0  3.432231  0  0  -0.301457  -0.28158  0  3.401704  0
N  N31  1  0.60053701  0.60054084  0.59413354  1  0  -0.361724  0  3.160225  0  0  -0.296421  0  3.414639  0  0  -0.318164  0  3.432683  0  0  -0.301531  -0.281764  0  3.402158  0
N  N32  1  0.35437172  0.35437255  0.61435875  1  0  -0.357821  0  3.162465  0  0  -0.289986  0  3.41668  0  0  -0.312247  0  3.433826  0  0  -0.296584  -0.274935  0  3.404795  0
N  N33  1  0.64562593  0.64562261  0.38563691  1  0  -0.358035  0  3.16192  0  0  -0.290224  0  3.416127  0  0  -0.312486  0  3.433265  0  0  -0.296642  -0.275169  0  3.404247  0
O  O34  1  0.42486210  0.80970016  0.03877040  1  0  -0.486528  0  2.148068  0  0  -0.415513  0  2.375183  0  0  -0.441298  0  2.374357  0  0  -0.264661  -0.39728  0  2.375136  0
O  O35  1  0.19028372  0.57513622  0.96123027  1  0  -0.486337  0  2.148062  0  0  -0.415491  0  2.375341  0  0  -0.441258  0  2.374484  0  0  -0.264652  -0.397249  0  2.375267  0
O  O36  1  0.57513280  0.19028557  0.96123458  1  0  -0.48633  0  2.148111  0  0  -0.415452  0  2.375378  0  0  -0.441218  0  2.374513  0  0  -0.264646  -0.397239  0  2.375361  0
O  O37  1  0.80970449  0.42486054  0.03876988  1  0  -0.486402  0  2.147977  0  0  -0.415459  0  2.375156  0  0  -0.44124  0  2.374323  0  0  -0.264627  -0.397214  0  2.375091  0
O  O38  1  0.19200954  0.19200245  0.87984527  1  0  -0.488476  0  2.029175  0  0  -0.451391  0  2.273324  0  0  -0.47158  0  2.271106  0  0  -0.296217  -0.437269  0  2.274896  0
O  O39  1  0.80798771  0.80798958  0.12015427  1  0  -0.488376  0  2.029126  0  0  -0.451358  0  2.273305  0  0  -0.471547  0  2.271087  0  0  -0.296232  -0.437237  0  2.274883  0
O  O40  1  0.24743888  0.85708903  0.27774538  1  0  -0.472029  0  2.017488  0  0  -0.423476  0  2.248558  0  0  -0.445738  0  2.246987  0  0  -0.283312  -0.407544  0  2.249001  0
O  O41  1  0.14291051  0.75257666  0.72225328  1  0  -0.47199  0  2.017664  0  0  -0.423413  0  2.248742  0  0  -0.445672  0  2.247165  0  0  -0.283321  -0.407487  0  2.249201  0
O  O42  1  0.75257062  0.14291570  0.72225404  1  0  -0.472072  0  2.017586  0  0  -0.423509  0  2.248659  0  0  -0.445767  0  2.247078  0  0  -0.283329  -0.407585  0  2.249117  0
O  O43  1  0.85709435  0.24743756  0.27774460  1  0  -0.472003  0  2.017487  0  0  -0.423453  0  2.248528  0  0  -0.445717  0  2.246959  0  0  -0.283335  -0.407521  0  2.248973  0
O  O44  1  0.38094739  0.38094874  0.15274404  1  0  -0.823862  0  1.873573  0  0  -0.766606  0  2.076386  0  0  -0.790336  0  2.043684  0  0  -0.584302  -0.74975  0  2.099253  0
O  O45  1  0.61904980  0.61904805  0.84725737  1  0  -0.823828  0  1.873481  0  0  -0.766594  0  2.076388  0  0  -0.790322  0  2.043686  0  0  -0.584342  -0.749739  0  2.099269  0
