# generated using pymatgen
data_CsP2H10C11O3
_symmetry_space_group_name_H-M   'P 1'
_cell_length_a   7.22382258
_cell_length_b   12.43851812
_cell_length_c   14.69000000
_cell_angle_alpha   108.92992803
_cell_angle_beta   90.51915578
_cell_angle_gamma   90.62515146
_symmetry_Int_Tables_number   1
_chemical_formula_structural   CsP2H10C11O3
_chemical_formula_sum   'Cs4 P8 H40 C44 O12'
_cell_volume   1248.37684711
_cell_formula_units_Z   4
loop_
 _symmetry_equiv_pos_site_id
 _symmetry_equiv_pos_as_xyz
  1  'x, y, z'
loop_
 _atom_site_type_symbol
 _atom_site_label
 _atom_site_symmetry_multiplicity
 _atom_site_fract_x
 _atom_site_fract_y
 _atom_site_fract_z
 _atom_site_occupancy
 _atom_site_hle17_bader_spin_density
 _atom_site_hle17_ddec_charge
 _atom_site_hle17_ddec_spin_density
 _atom_site_hle17_ddec_sum_bond_order
 _atom_site_hle17_magmom
 _atom_site_hse06_10hf_bader_spin_density
 _atom_site_hse06_10hf_ddec_charge
 _atom_site_hse06_10hf_ddec_spin_density
 _atom_site_hse06_10hf_ddec_sum_bond_order
 _atom_site_hse06_10hf_magmom
 _atom_site_hse06_bader_spin_density
 _atom_site_hse06_ddec_charge
 _atom_site_hse06_ddec_spin_density
 _atom_site_hse06_ddec_sum_bond_order
 _atom_site_hse06_magmom
 _atom_site_pbe_bader_charge
 _atom_site_pbe_bader_spin_density
 _atom_site_pbe_cm5_charge
 _atom_site_pbe_ddec_charge
 _atom_site_pbe_ddec_spin_density
 _atom_site_pbe_ddec_sum_bond_order
 _atom_site_pbe_magmom
Cs  Cs0  1  0.26832675  0.06736179  0.89495039  1  0  0.95833  0  0.661791  0  0  0.900471  0  0.920784  0  0  0.916581  0  0.896745  0  0.887934  0  0.923181  0.888584  0  0.937851  0
Cs  Cs1  1  0.73166718  0.93263461  0.10505084  1  0  0.958325  0  0.661801  0  0  0.900449  0  0.920798  0  0  0.916557  0  0.896762  0  0.887893  0  0.92321  0.888562  0  0.937865  0
Cs  Cs2  1  0.21424453  0.12125939  0.16773852  1  0  0.927474  0  0.677692  0  0  0.857466  0  0.942811  0  0  0.873482  0  0.919396  0  0.882109  0  0.887309  0.84566  0  0.959355  0
Cs  Cs3  1  0.78574784  0.87872936  0.83225992  1  0  0.927472  0  0.677704  0  0  0.857464  0  0.942817  0  0  0.873476  0  0.919415  0  0.882137  0  0.887303  0.845659  0  0.959362  0
P  P4  1  0.75024313  0.20559678  0.04771820  1  0  1.041594  0  4.847792  0  0  0.954738  0  5.308104  0  0  0.995878  0  5.285669  0  2.593479  0  0.206829  0.926216  0  5.322666  0
P  P5  1  0.24975782  0.79440387  0.95228627  1  0  1.041458  0  4.847948  0  0  0.954599  0  5.308253  0  0  0.995752  0  5.285816  0  2.593235  0  0.206727  0.926078  0  5.322817  0
P  P6  1  0.85432089  0.34164299  0.18199429  1  0  -0.065227  0  2.936636  0  0  -0.091717  0  3.328926  0  0  -0.089763  0  3.326964  0  0.354194  0  -0.023459  -0.093084  0  3.330696  0
P  P7  1  0.14567876  0.65836106  0.81801179  1  0  -0.065176  0  2.936686  0  0  -0.091649  0  3.328955  0  0  -0.089703  0  3.327  0  0.354117  0  -0.023444  -0.093015  0  3.330725  0
P  P8  1  0.59694835  0.35466093  0.26798843  1  0  -0.035787  0  2.876678  0  0  -0.06468  0  3.266709  0  0  -0.06281  0  3.266135  0  0.386737  0  0.000909  -0.065905  0  3.267394  0
P  P9  1  0.40304429  0.64533972  0.73201124  1  0  -0.035839  0  2.876689  0  0  -0.064694  0  3.26665  0  0  -0.06282  0  3.266071  0  0.386833  0  0.000886  -0.065924  0  3.267347  0
P  P10  1  0.67213453  0.20954679  0.32053008  1  0  1.042494  0  4.762455  0  0  0.943255  0  5.229158  0  0  0.983478  0  5.207527  0  2.596414  0  0.239331  0.915357  0  5.243325  0
P  P11  1  0.32786363  0.79045301  0.67946802  1  0  1.042611  0  4.762353  0  0  0.94338  0  5.229046  0  0  0.983614  0  5.207407  0  2.596186  0  0.239424  0.915473  0  5.243212  0
H  H12  1  0.64300486  0.17826718  0.83978903  1  0  0.085315  0  0.978463  0  0  0.093558  0  1.04678  0  0  0.09745  0  1.043386  0  0.072002  0  0.105248  0.090695  0  1.049323  0
H  H13  1  0.35699191  0.82173262  0.16021860  1  0  0.085364  0  0.978342  0  0  0.093555  0  1.046709  0  0  0.097446  0  1.043315  0  0.071957  0  0.105233  0.090692  0  1.049252  0
H  H14  1  0.59555159  0.32122994  0.75986848  1  0  0.08392  0  0.962339  0  0  0.097861  0  1.020438  0  0  0.099906  0  1.02042  0  0.094925  0  0.099786  0.096392  0  1.020544  0
H  H15  1  0.40444645  0.67876476  0.24013298  1  0  0.08391  0  0.962353  0  0  0.097863  0  1.02044  0  0  0.099908  0  1.020419  0  0.09494  0  0.099795  0.096393  0  1.020546  0
H  H16  1  0.66084528  0.52572341  0.84549173  1  0  0.080297  0  0.970572  0  0  0.08649  0  1.046674  0  0  0.089337  0  1.045355  0  0.066582  0  0.096797  0.084422  0  1.047711  0
H  H17  1  0.33913898  0.47427385  0.15450901  1  0  0.080302  0  0.970611  0  0  0.086516  0  1.046705  0  0  0.089366  0  1.045377  0  0.066204  0  0.096835  0.084449  0  1.047742  0
H  H18  1  0.78038465  0.67597502  0.99156658  1  0  0.071296  0  0.967791  0  0  0.081567  0  1.037379  0  0  0.085032  0  1.034844  0  0.038987  0  0.100044  0.079038  0  1.039282  0
H  H19  1  0.21960103  0.32402393  0.00843396  1  0  0.071306  0  0.967698  0  0  0.081556  0  1.03731  0  0  0.085036  0  1.034762  0  0.038875  0  0.100059  0.079034  0  1.039204  0
H  H20  1  0.88702134  0.73484859  0.16422460  1  0  0.077129  0  0.967427  0  0  0.088416  0  1.030451  0  0  0.091329  0  1.029264  0  0.035073  0  0.09925  0.086278  0  1.03143  0
H  H21  1  0.11297000  0.26515546  0.83577464  1  0  0.077147  0  0.967417  0  0  0.088412  0  1.030447  0  0  0.091289  0  1.029299  0  0.035146  0  0.099246  0.086276  0  1.031424  0
H  H22  1  0.90609399  0.59369551  0.24874860  1  0  0.081553  0  0.9831  0  0  0.094969  0  1.046015  0  0  0.096841  0  1.04573  0  0.098162  0  0.096277  0.093632  0  1.046215  0
H  H23  1  0.09391134  0.40631449  0.75125233  1  0  0.081581  0  0.98306  0  0  0.094996  0  1.04598  0  0  0.096872  0  1.045692  0  0.09815  0  0.096283  0.09366  0  1.04618  0
H  H24  1  0.62381924  0.60815422  0.34550475  1  0  0.084756  0  0.956679  0  0  0.097424  0  1.019572  0  0  0.099642  0  1.019046  0  0.057442  0  0.097776  0.095805  0  1.020042  0
H  H25  1  0.37618296  0.39184048  0.65448992  1  0  0.084763  0  0.956592  0  0  0.097445  0  1.019478  0  0  0.099663  0  1.01895  0  0.057644  0  0.097772  0.095822  0  1.019957  0
H  H26  1  0.72404771  0.74132484  0.50487713  1  0  0.084883  0  0.955328  0  0  0.098322  0  1.01444  0  0  0.100968  0  1.013382  0  0.085902  0  0.100974  0.096405  0  1.015278  0
H  H27  1  0.27595873  0.25867412  0.49511737  1  0  0.084907  0  0.955291  0  0  0.09833  0  1.014433  0  0  0.100978  0  1.013372  0  0.085887  0  0.100972  0.096413  0  1.015271  0
H  H28  1  0.82783404  0.66873037  0.63492751  1  0  0.078144  0  0.971829  0  0  0.084692  0  1.047387  0  0  0.087808  0  1.045667  0  0.046658  0  0.096841  0.082374  0  1.048815  0
H  H29  1  0.17216141  0.33127199  0.36507060  1  0  0.078183  0  0.971814  0  0  0.08471  0  1.047391  0  0  0.087825  0  1.045674  0  0.046605  0  0.096856  0.082387  0  1.048824  0
H  H30  1  0.86730410  0.50454109  0.69579934  1  0  0.075531  0  0.993999  0  0  0.08084  0  1.073307  0  0  0.083539  0  1.072045  0  0.088773  0  0.093207  0.078845  0  1.074363  0
H  H31  1  0.13268439  0.49545956  0.30420372  1  0  0.075536  0  0.994015  0  0  0.080833  0  1.073351  0  0  0.083546  0  1.072038  0  0.088766  0  0.093224  0.078837  0  1.07441  0
H  H32  1  0.86383798  0.29577036  0.66477903  1  0  0.086011  0  0.96261  0  0  0.10005  0  1.018659  0  0  0.102414  0  1.018371  0  0.025642  0  0.100654  0.09835  0  1.018991  0
H  H33  1  0.13615470  0.70423199  0.33522179  1  0  0.085982  0  0.962627  0  0  0.100009  0  1.018687  0  0  0.102372  0  1.018401  0  0.02573  0  0.100631  0.098308  0  1.019018  0
H  H34  1  0.78132870  0.16251305  0.50233244  1  0  0.078965  0  0.962298  0  0  0.092169  0  1.02612  0  0  0.094426  0  1.025106  0  0.041062  0  0.099516  0.090381  0  1.02709  0
H  H35  1  0.21866397  0.83748846  0.49767087  1  0  0.078903  0  0.962362  0  0  0.092111  0  1.026175  0  0  0.094365  0  1.025166  0  0.041014  0  0.099491  0.090324  0  1.027144  0
H  H36  1  0.46460393  0.99952739  0.68693895  1  0  0.366469  0  0.941838  0  0  0.342684  0  1.014032  0  0  0.353005  0  0.999388  0  0.663949  0  0.286771  0.33545  0  1.022096  0
H  H37  1  0.53538858  0.00048366  0.31306365  1  0  0.366307  0  0.941984  0  0  0.342587  0  1.014029  0  0  0.352906  0  0.999485  0  0.66373  0  0.286783  0.335355  0  1.022091  0
H  H38  1  0.35171370  0.03432181  0.56148920  1  0  0.056758  0  0.956406  0  0  0.077437  0  1.021784  0  0  0.077444  0  1.022007  0  0.036686  0  0.090741  0.077314  0  1.021697  0
H  H39  1  0.64828031  0.96567800  0.43851024  1  0  0.056743  0  0.956442  0  0  0.077419  0  1.021834  0  0  0.077426  0  1.022056  0  0.036607  0  0.090712  0.077295  0  1.021748  0
H  H40  1  0.47382923  0.16692206  0.60330414  1  0  0.056282  0  0.957672  0  0  0.071461  0  1.031968  0  0  0.071797  0  1.03213  0  0.02258  0  0.083612  0.071142  0  1.031917  0
H  H41  1  0.52616066  0.83307944  0.39669031  1  0  0.056289  0  0.957733  0  0  0.071461  0  1.032055  0  0  0.071797  0  1.032217  0  0.022573  0  0.08358  0.071139  0  1.032004  0
H  H42  1  0.24349419  0.15553869  0.64268463  1  0  0.0648  0  0.947454  0  0  0.084609  0  1.009867  0  0  0.085361  0  1.00927  0  0.011238  0  0.090516  0.084016  0  1.01031  0
H  H43  1  0.75649295  0.84446366  0.35730935  1  0  0.064851  0  0.947473  0  0  0.084696  0  1.009844  0  0  0.085448  0  1.00925  0  0.011063  0  0.090528  0.0841  0  1.010291  0
H  H44  1  0.05119525  0.96237230  0.70905546  1  0  0.351228  0  0.954242  0  0  0.330038  0  1.022167  0  0  0.34001  0  1.011114  0  0.620639  0  0.278929  0.32301  0  1.029922  0
H  H45  1  0.94880416  0.03762156  0.29094442  1  0  0.351185  0  0.954398  0  0  0.330045  0  1.022207  0  0  0.340017  0  1.011154  0  0.620763  0  0.278929  0.323025  0  1.02994  0
H  H46  1  0.75945464  0.06907457  0.64041858  1  0  0.080647  0  0.961482  0  0  0.101174  0  1.020905  0  0  0.101827  0  1.020965  0  0.080207  0  0.097582  0.100588  0  1.020971  0
H  H47  1  0.24055317  0.93092353  0.35958114  1  0  0.080639  0  0.961371  0  0  0.101085  0  1.020896  0  0  0.101734  0  1.020963  0  0.080184  0  0.097559  0.1005  0  1.020964  0
H  H48  1  0.98113044  0.05404635  0.58380576  1  0  0.041983  0  0.980108  0  0  0.05485  0  1.060619  0  0  0.05498  0  1.060913  0  0.015423  0  0.07945  0.054678  0  1.060456  0
H  H49  1  0.01888012  0.94595091  0.41619509  1  0  0.041928  0  0.980181  0  0  0.054828  0  1.060669  0  0  0.054958  0  1.060959  0  0.015907  0  0.07944  0.054653  0  1.06051  0
H  H50  1  0.85113364  0.93123634  0.58541008  1  0  0.06245  0  0.945248  0  0  0.080763  0  1.011161  0  0  0.081842  0  1.010135  0  0.040032  0  0.091261  0.079902  0  1.011966  0
H  H51  1  0.14887417  0.06876176  0.41458964  1  0  0.062424  0  0.945271  0  0  0.080763  0  1.011149  0  0  0.081842  0  1.010123  0  0.040058  0  0.091286  0.079904  0  1.011953  0
C  C52  1  0.72009711  0.30113394  0.97759827  1  0  -0.224617  0  3.757808  0  0  -0.19056  0  3.995526  0  0  -0.199858  0  4.018663  0  -0.446226  0  -0.023937  -0.184475  0  3.980092  0
C  C53  1  0.27991492  0.69886671  0.02240489  1  0  -0.22469  0  3.757704  0  0  -0.190614  0  3.995443  0  0  -0.199939  0  4.018616  0  -0.446029  0  -0.023958  -0.184522  0  3.979993  0
C  C54  1  0.66735792  0.26739354  0.88154237  1  0  -0.051019  0  3.757991  0  0  -0.075545  0  4.009763  0  0  -0.074146  0  4.028938  0  -0.036047  0  -0.082514  -0.076286  0  3.996801  0
C  C55  1  0.33264716  0.73260626  0.11846393  1  0  -0.051095  0  3.757968  0  0  -0.075581  0  4.00975  0  0  -0.074174  0  4.028931  0  -0.035994  0  -0.082556  -0.076323  0  3.99679  0
C  C56  1  0.64304257  0.34922085  0.83462732  1  0  -0.063527  0  3.758057  0  0  -0.075816  0  4.008004  0  0  -0.079145  0  4.030463  0  -0.151919  0  -0.087874  -0.073578  0  3.9927  0
C  C57  1  0.35696105  0.65077555  0.16537395  1  0  -0.063506  0  3.75823  0  0  -0.075801  0  4.008179  0  0  -0.07913  0  4.030638  0  -0.15198  0  -0.087857  -0.073564  0  3.992876  0
C  C58  1  0.67924463  0.46290918  0.88222055  1  0  -0.093518  0  3.712074  0  0  -0.113192  0  3.959396  0  0  -0.114412  0  3.980255  0  -0.006643  0  -0.082425  -0.112217  0  3.94522  0
C  C59  1  0.32076175  0.53708722  0.11777869  1  0  -0.093468  0  3.712274  0  0  -0.113207  0  3.959574  0  0  -0.114428  0  3.980439  0  -0.006288  0  -0.082456  -0.112234  0  3.945399  0
C  C60  1  0.74034979  0.50002668  0.97966344  1  0  0.069981  0  3.767461  0  0  0.089957  0  3.988821  0  0  0.089071  0  4.013174  0  0.047136  0  -0.000734  0.090467  0  3.972233  0
C  C61  1  0.25966631  0.49997058  0.02033472  1  0  0.069796  0  3.767726  0  0  0.089923  0  3.988932  0  0  0.089037  0  4.013288  0  0.046783  0  -0.000782  0.09043  0  3.972351  0
C  C62  1  0.78788340  0.61483957  0.03054460  1  0  -0.105863  0  3.747339  0  0  -0.128984  0  3.999797  0  0  -0.130445  0  4.021048  0  -0.13528  0  -0.088443  -0.127783  0  3.985294  0
C  C63  1  0.21212021  0.38515683  0.96945191  1  0  -0.105734  0  3.747208  0  0  -0.128858  0  3.999617  0  0  -0.13034  0  4.020865  0  -0.134917  0  -0.088391  -0.127661  0  3.985113  0
C  C64  1  0.84581886  0.64704400  0.12549173  1  0  -0.068341  0  3.794023  0  0  -0.081998  0  4.047228  0  0  -0.085075  0  4.070119  0  0.055632  0  -0.094664  -0.079941  0  4.031664  0
C  C65  1  0.15418627  0.35295751  0.87450551  1  0  -0.068439  0  3.79412  0  0  -0.082076  0  4.047331  0  0  -0.085125  0  4.070235  0  0.055144  0  -0.094685  -0.080018  0  4.031768  0
C  C66  1  0.85904541  0.56614405  0.17396541  1  0  -0.079103  0  3.749512  0  0  -0.099985  0  3.997409  0  0  -0.100681  0  4.019174  0  -0.108964  0  -0.090748  -0.09928  0  3.982508  0
C  C67  1  0.14096387  0.43385745  0.82603321  1  0  -0.079057  0  3.749468  0  0  -0.099936  0  3.997366  0  0  -0.100633  0  4.019107  0  -0.108456  0  -0.090761  -0.099231  0  3.982468  0
C  C68  1  0.81614134  0.45255943  0.12696236  1  0  -0.087894  0  3.753019  0  0  -0.0586  0  4.000067  0  0  -0.063251  0  4.026156  0  -0.446444  0  -0.024986  -0.055577  0  3.982408  0
C  C69  1  0.18387071  0.54744208  0.87303899  1  0  -0.087949  0  3.753131  0  0  -0.058653  0  4.000234  0  0  -0.063286  0  4.026298  0  -0.446366  0  -0.024993  -0.055635  0  3.982581  0
C  C70  1  0.75705625  0.41771741  0.02833324  1  0  0.052806  0  3.762581  0  0  0.05897  0  3.979884  0  0  0.059462  0  4.006291  0  -0.05023  0  0.004488  0.058736  0  3.961982  0
C  C71  1  0.24296268  0.58228239  0.97166768  1  0  0.052929  0  3.762635  0  0  0.058985  0  3.980016  0  0  0.059479  0  4.006426  0  -0.050299  0  0.00454  0.058754  0  3.962114  0
C  C72  1  0.67602182  0.45768500  0.38285353  1  0  -0.084545  0  3.734175  0  0  -0.05534  0  3.98146  0  0  -0.059687  0  4.007476  0  -0.504571  0  -0.021471  -0.052526  0  3.963831  0
C  C73  1  0.32398322  0.54231310  0.61714481  1  0  -0.084551  0  3.734259  0  0  -0.055379  0  3.981578  0  0  -0.059725  0  4.007592  0  -0.505195  0  -0.021472  -0.052564  0  3.96395  0
C  C74  1  0.67168189  0.57418177  0.40121116  1  0  -0.075022  0  3.740761  0  0  -0.097484  0  3.994755  0  0  -0.098382  0  4.016522  0  -0.007093  0  -0.088202  -0.096664  0  3.979803  0
C  C75  1  0.32832177  0.42581633  0.59878581  1  0  -0.074971  0  3.740644  0  0  -0.097428  0  3.994639  0  0  -0.098326  0  4.016406  0  -0.007189  0  -0.088179  -0.09661  0  3.979686  0
C  C76  1  0.72768239  0.65005134  0.49209913  1  0  -0.052917  0  3.761616  0  0  -0.068374  0  4.017274  0  0  -0.070651  0  4.039108  0  -0.058961  0  -0.087036  -0.06674  0  4.002302  0
C  C77  1  0.27232264  0.34994591  0.50789626  1  0  -0.053051  0  3.761408  0  0  -0.068513  0  4.017084  0  0  -0.07079  0  4.038919  0  -0.058919  0  -0.087109  -0.066877  0  4.00211  0
C  C78  1  0.78283839  0.61017980  0.56527820  1  0  -0.097367  0  3.719379  0  0  -0.119629  0  3.97343  0  0  -0.121088  0  3.993365  0  -0.055262  0  -0.082815  -0.118554  0  3.959962  0
C  C79  1  0.21716120  0.38982170  0.43471901  1  0  -0.097285  0  3.719144  0  0  -0.119526  0  3.973158  0  0  -0.12099  0  3.993101  0  -0.055288  0  -0.082762  -0.118444  0  3.959692  0
C  C80  1  0.78293529  0.49176966  0.55106090  1  0  0.066338  0  3.774227  0  0  0.085395  0  3.996793  0  0  0.084545  0  4.021346  0  -0.003173  0  -0.002241  0.085893  0  3.980105  0
C  C81  1  0.21706845  0.50823185  0.44893837  1  0  0.066211  0  3.77439  0  0  0.08529  0  3.996898  0  0  0.084443  0  4.02145  0  -0.003351  0  -0.00233  0.085787  0  3.980212  0
C  C82  1  0.82966066  0.44586813  0.62475162  1  0  -0.096347  0  3.720871  0  0  -0.117291  0  3.971301  0  0  -0.11847  0  3.992327  0  -0.014783  0  -0.083518  -0.116325  0  3.957013  0
C  C83  1  0.17033611  0.55413168  0.37524920  1  0  -0.096303  0  3.720892  0  0  -0.117264  0  3.971315  0  0  -0.11844  0  3.992354  0  -0.0147  0  -0.083523  -0.116297  0  3.957028  0
C  C84  1  0.82795754  0.32970711  0.60722784  1  0  -0.086629  0  3.790802  0  0  -0.09937  0  4.044786  0  0  -0.102785  0  4.066545  0  -0.051021  0  -0.095023  -0.097079  0  4.029951  0
C  C85  1  0.17203924  0.67029269  0.39277162  1  0  -0.086616  0  3.790692  0  0  -0.099335  0  4.044665  0  0  -0.102751  0  4.066426  0  -0.051076  0  -0.094984  -0.097045  0  4.029832  0
C  C86  1  0.78035901  0.25396420  0.51516159  1  0  -0.048413  0  3.767687  0  0  -0.073764  0  4.018348  0  0  -0.072909  0  4.038893  0  0.009409  0  -0.084999  -0.074073  0  4.004489  0
C  C87  1  0.21964470  0.74603646  0.48483813  1  0  -0.04833  0  3.767569  0  0  -0.073653  0  4.01822  0  0  -0.072789  0  4.038764  0  0.009476  0  -0.084982  -0.07397  0  4.004357  0
C  C88  1  0.73319795  0.29622512  0.44194132  1  0  -0.216372  0  3.76999  0  0  -0.180928  0  4.00543  0  0  -0.189467  0  4.028249  0  -0.554227  0  -0.02348  -0.175404  0  3.990297  0
C  C89  1  0.26680986  0.70377298  0.55805635  1  0  -0.216316  0  3.769842  0  0  -0.180946  0  4.005375  0  0  -0.189504  0  4.028221  0  -0.553994  0  -0.023488  -0.1754  0  3.990214  0
C  C90  1  0.73172456  0.41490727  0.45826601  1  0  0.051384  0  3.76034  0  0  0.057473  0  3.976737  0  0  0.057668  0  4.00324  0  0.007302  0  0.005382  0.057456  0  3.958845  0
C  C91  1  0.26828464  0.58509083  0.54173167  1  0  0.051302  0  3.760515  0  0  0.057431  0  3.976887  0  0  0.057629  0  4.003394  0  0.007879  0  0.005441  0.057408  0  3.958993  0
C  C92  1  0.37572740  0.11084504  0.62445641  1  0  -0.013802  0  3.727934  0  0  -0.100889  0  3.994274  0  0  -0.094643  0  3.998954  0  0.428321  0  -0.153604  -0.104984  0  3.990982  0
C  C93  1  0.62426255  0.88915902  0.37554146  1  0  -0.014087  0  3.728148  0  0  -0.101236  0  3.994526  0  0  -0.094995  0  3.999208  0  0.428655  0  -0.153738  -0.105329  0  3.991231  0
C  C94  1  0.88742069  0.02006285  0.62712545  1  0  -0.021246  0  3.714096  0  0  -0.107288  0  3.977938  0  0  -0.10167  0  3.982653  0  0.37331  0  -0.158999  -0.110958  0  3.974666  0
C  C95  1  0.11258710  0.97993441  0.37287472  1  0  -0.021111  0  3.713969  0  0  -0.107157  0  3.97786  0  0  -0.101534  0  3.982571  0  0.372772  0  -0.158958  -0.11083  0  3.974589  0
O  O96  1  0.90664757  0.12271886  0.00836819  1  0  -0.891286  0  1.990239  0  0  -0.824363  0  2.246041  0  0  -0.85126  0  2.233898  0  -1.472439  0  -0.548238  -0.805106  0  2.253673  0
O  O97  1  0.09334918  0.87728009  0.99163716  1  0  -0.891219  0  1.990211  0  0  -0.824287  0  2.246011  0  0  -0.851184  0  2.233861  0  -1.472198  0  -0.54819  -0.80503  0  2.253645  0
O  O98  1  0.56589072  0.15228655  0.06153481  1  0  -0.890018  0  1.992079  0  0  -0.822137  0  2.248903  0  0  -0.848602  0  2.236093  0  -1.475515  0  -0.546208  -0.803192  0  2.257006  0
O  O99  1  0.43410750  0.84771581  0.93846876  1  0  -0.889968  0  1.992134  0  0  -0.822079  0  2.24895  0  0  -0.848552  0  2.236151  0  -1.475634  0  -0.546198  -0.803134  0  2.257053  0
O  O100  1  0.50310645  0.13421273  0.31831895  1  0  -0.811216  0  1.995321  0  0  -0.73776  0  2.23614  0  0  -0.764402  0  2.223762  0  -1.457287  0  -0.463548  -0.718777  0  2.243651  0
O  O101  1  0.49688634  0.86579387  0.68168644  1  0  -0.811328  0  1.995274  0  0  -0.737809  0  2.236059  0  0  -0.764448  0  2.223662  0  -1.457281  0  -0.4636  -0.718825  0  2.243574  0
O  O102  1  0.84277899  0.14769903  0.26934774  1  0  -0.844974  0  2.060936  0  0  -0.764632  0  2.304771  0  0  -0.791262  0  2.292146  0  -1.461546  0  -0.509815  -0.745636  0  2.312871  0
O  O103  1  0.15721078  0.85229737  0.73064395  1  0  -0.845043  0  2.060984  0  0  -0.764733  0  2.304934  0  0  -0.791366  0  2.292311  0  -1.461523  0  -0.509855  -0.74573  0  2.313039  0
O  O104  1  0.44544239  0.08337858  0.70498537  1  0  -0.57595  0  2.12777  0  0  -0.517335  0  2.361893  0  0  -0.534398  0  2.349773  0  -1.199023  0  -0.483631  -0.505195  0  2.368209  0
O  O105  1  0.55454769  0.91663057  0.29501526  1  0  -0.575628  0  2.127898  0  0  -0.516966  0  2.361912  0  0  -0.534024  0  2.34988  0  -1.198868  0  -0.483499  -0.504826  0  2.368224  0
O  O106  1  0.96853958  0.02862077  0.71819165  1  0  -0.577703  0  2.099675  0  0  -0.519382  0  2.32772  0  0  -0.535807  0  2.318088  0  -1.167326  0  -0.520011  -0.507696  0  2.334087  0
O  O107  1  0.03146125  0.97137478  0.28180938  1  0  -0.577709  0  2.099801  0  0  -0.519412  0  2.327841  0  0  -0.535839  0  2.318207  0  -1.167329  0  -0.520031  -0.507728  0  2.334206  0
