# generated using pymatgen
data_Cd3H24C40(NO7)2
_symmetry_space_group_name_H-M   'P 1'
_cell_length_a   12.27560849
_cell_length_b   12.27558693
_cell_length_c   14.55247280
_cell_angle_alpha   99.14309469
_cell_angle_beta   99.14526563
_cell_angle_gamma   107.98727161
_symmetry_Int_Tables_number   1
_chemical_formula_structural   Cd3H24C40(NO7)2
_chemical_formula_sum   'Cd6 H48 C80 N4 O28'
_cell_volume   2008.08209704
_cell_formula_units_Z   2
loop_
 _symmetry_equiv_pos_site_id
 _symmetry_equiv_pos_as_xyz
  1  'x, y, z'
loop_
 _atom_site_type_symbol
 _atom_site_label
 _atom_site_symmetry_multiplicity
 _atom_site_fract_x
 _atom_site_fract_y
 _atom_site_fract_z
 _atom_site_occupancy
 _atom_site_pbe_bader_charge
 _atom_site_pbe_bader_spin_density
 _atom_site_pbe_cm5_charge
 _atom_site_pbe_ddec_charge
 _atom_site_pbe_ddec_spin_density
 _atom_site_pbe_ddec_sum_bond_order
 _atom_site_pbe_magmom
Cd  Cd0  1  0.01337738  0.45252232  0.37563710  1  1.312688  0  0.787794  0.96189  0  2.162072  0
Cd  Cd1  1  0.54747355  0.98662272  0.12436093  1  1.312713  0  0.787807  0.961946  0  2.161943  0
Cd  Cd2  1  0.98660932  0.54748110  0.62435953  1  1.312669  0  0.787757  0.961823  0  2.162147  0
Cd  Cd3  1  0.45252269  0.01337479  0.87563964  1  1.312726  0  0.787789  0.961962  0  2.162021  0
Cd  Cd4  1  0.85526034  0.14474372  0.24999557  1  1.403261  0  0.809142  1.135876  0  2.116359  0
Cd  Cd5  1  0.14474212  0.85526002  0.75000259  1  1.403273  0  0.809115  1.135825  0  2.116444  0
H  H6  1  0.69850558  0.39345539  0.56764015  1  0.098145  0  0.104927  0.113487  0  0.997922  0
H  H7  1  0.60654571  0.30149736  0.93235981  1  0.098215  0  0.104902  0.113482  0  0.997846  0
H  H8  1  0.30149326  0.60654297  0.43236502  1  0.09812  0  0.104924  0.113484  0  0.997906  0
H  H9  1  0.39344879  0.69848727  0.06762363  1  0.097867  0  0.104896  0.113459  0  0.998027  0
H  H10  1  0.56910638  0.27693440  0.66019677  1  0.093031  0  0.099799  0.107054  0  1.015244  0
H  H11  1  0.72307354  0.43090983  0.83981675  1  0.093435  0  0.099789  0.107015  0  1.015342  0
H  H12  1  0.43089156  0.72306036  0.33980709  1  0.093116  0  0.099776  0.107019  0  1.015304  0
H  H13  1  0.27692975  0.56908841  0.16018077  1  0.093425  0  0.099777  0.106989  0  1.015359  0
H  H14  1  0.54415751  0.06608533  0.64652648  1  0.079625  0  0.097968  0.096184  0  1.022684  0
H  H15  1  0.93391671  0.45584083  0.85348121  1  0.079757  0  0.097939  0.0961  0  1.022894  0
H  H16  1  0.45583514  0.93390190  0.35347149  1  0.079557  0  0.09794  0.096138  0  1.022882  0
H  H17  1  0.06608744  0.54416097  0.14652173  1  0.079697  0  0.097955  0.096135  0  1.02282  0
H  H18  1  0.65131279  0.97322270  0.54755487  1  0.070421  0  0.097303  0.106512  0  1.054042  0
H  H19  1  0.02677777  0.34867019  0.95243987  1  0.070578  0  0.097337  0.106552  0  1.054039  0
H  H20  1  0.34869053  0.02677721  0.45244082  1  0.070414  0  0.09733  0.106512  0  1.05393  0
H  H21  1  0.97322373  0.65132661  0.04755996  1  0.070675  0  0.097311  0.106511  0  1.054022  0
H  H22  1  0.64075094  0.70021688  0.29625385  1  0.100182  0  0.106146  0.109775  0  0.999007  0
H  H23  1  0.29979410  0.35924780  0.20374523  1  0.099833  0  0.106152  0.109842  0  0.998852  0
H  H24  1  0.35924715  0.29979032  0.70374763  1  0.099789  0  0.106157  0.109822  0  0.998906  0
H  H25  1  0.70020827  0.64075011  0.79625624  1  0.099883  0  0.106141  0.109727  0  0.998855  0
H  H26  1  0.76624740  0.64213738  0.42071707  1  0.091273  0  0.106416  0.119777  0  0.995462  0
H  H27  1  0.35786479  0.23374481  0.07928487  1  0.091098  0  0.106426  0.119811  0  0.995518  0
H  H28  1  0.23375503  0.35786141  0.57927903  1  0.091273  0  0.106391  0.119742  0  0.995493  0
H  H29  1  0.64213129  0.76624188  0.92072107  1  0.091165  0  0.106405  0.119806  0  0.995452  0
H  H30  1  0.92025250  0.00319133  0.57089096  1  0.098625  0  0.110243  0.130379  0  1.001954  0
H  H31  1  0.99680941  0.07974608  0.92911599  1  0.098712  0  0.11023  0.13028  0  1.001982  0
H  H32  1  0.07975078  0.99681101  0.42911193  1  0.098691  0  0.110252  0.130336  0  1.001978  0
H  H33  1  0.00318848  0.92024863  0.07089336  1  0.098666  0  0.110275  0.130382  0  1.001987  0
H  H34  1  0.05296083  0.72685208  0.36933565  1  0.103998  0  0.115505  0.084955  0  1.011615  0
H  H35  1  0.27313403  0.94702658  0.13066656  1  0.103811  0  0.115544  0.085049  0  1.011715  0
H  H36  1  0.94703377  0.27314742  0.63065329  1  0.103805  0  0.115477  0.084881  0  1.011807  0
H  H37  1  0.72686475  0.05297007  0.86934455  1  0.103767  0  0.115505  0.085013  0  1.011719  0
H  H38  1  0.96562106  0.84258539  0.27031420  1  0.092671  0  0.113436  0.122944  0  0.9892  0
H  H39  1  0.15740888  0.03436839  0.22969312  1  0.092574  0  0.113437  0.122947  0  0.989217  0
H  H40  1  0.03437266  0.15741464  0.72967606  1  0.092703  0  0.113455  0.122951  0  0.989162  0
H  H41  1  0.84260137  0.96563951  0.77032318  1  0.092437  0  0.113477  0.122885  0  0.989152  0
H  H42  1  0.79402716  0.73322708  0.13411803  1  0.105589  0  0.108024  0.104987  0  1.013504  0
H  H43  1  0.26677167  0.20597130  0.36588192  1  0.105609  0  0.107993  0.104984  0  1.013411  0
H  H44  1  0.20596566  0.26677181  0.86587402  1  0.10577  0  0.108002  0.104968  0  1.013465  0
H  H45  1  0.73324754  0.79404545  0.63412240  1  0.105679  0  0.107996  0.104822  0  1.013445  0
H  H46  1  0.71790128  0.51232398  0.09897453  1  0.099023  0  0.110283  0.114934  0  0.993661  0
H  H47  1  0.48767712  0.28209427  0.40101870  1  0.099286  0  0.110275  0.11492  0  0.993647  0
H  H48  1  0.28208714  0.48767425  0.90101956  1  0.099104  0  0.110248  0.114903  0  0.993633  0
H  H49  1  0.51234207  0.71791672  0.59898071  1  0.099443  0  0.110304  0.114966  0  0.99361  0
H  H50  1  0.81450460  0.41015940  0.20441690  1  0.101881  0  0.116544  0.098853  0  1.020917  0
H  H51  1  0.58983709  0.18548803  0.29557570  1  0.101942  0  0.11659  0.098942  0  1.021012  0
H  H52  1  0.18548559  0.58983861  0.79557466  1  0.101858  0  0.116572  0.098941  0  1.020963  0
H  H53  1  0.41017227  0.81450562  0.70442340  1  0.101631  0  0.116549  0.098875  0  1.021153  0
C  C54  1  0.81437688  0.31906767  0.44445798  1  1.572838  0  0.213716  0.619325  0  4.163602  0
C  C55  1  0.68092952  0.18561726  0.05553912  1  1.573152  0  0.213689  0.619249  0  4.163699  0
C  C56  1  0.18562206  0.68093898  0.55554560  1  1.572814  0  0.213735  0.619295  0  4.163753  0
C  C57  1  0.31906584  0.81437750  0.94445820  1  1.572854  0  0.213784  0.619304  0  4.163481  0
C  C58  1  0.74459072  0.24860482  0.50324359  1  -0.029844  0  -0.033769  -0.165827  0  3.988353  0
C  C59  1  0.75138463  0.25539562  0.99674863  1  -0.029967  0  -0.033679  -0.165597  0  3.988199  0
C  C60  1  0.25540463  0.75138993  0.49675442  1  -0.029717  0  -0.03372  -0.165753  0  3.988236  0
C  C61  1  0.24860371  0.74459105  0.00323974  1  -0.03009  0  -0.033666  -0.165484  0  3.987943  0
C  C62  1  0.68608571  0.30064364  0.56245453  1  -0.071749  0  -0.086272  -0.08504  0  3.996599  0
C  C63  1  0.69935652  0.31391334  0.93754054  1  -0.071806  0  -0.086335  -0.085323  0  3.996585  0
C  C64  1  0.31391581  0.69935647  0.43754644  1  -0.071385  0  -0.086326  -0.085147  0  3.996562  0
C  C65  1  0.30064149  0.68607411  0.06244514  1  -0.071406  0  -0.086352  -0.085297  0  3.99662  0
C  C66  1  0.61407818  0.23613919  0.61416442  1  -0.002162  0  -0.103694  -0.110639  0  4.02018  0
C  C67  1  0.76386665  0.38592714  0.88584111  1  -0.002657  0  -0.103706  -0.11047  0  4.020286  0
C  C68  1  0.38592072  0.76386005  0.38583469  1  -0.002323  0  -0.103621  -0.110484  0  4.020177  0
C  C69  1  0.23613576  0.61406998  0.11415545  1  -0.002537  0  -0.103643  -0.110448  0  4.02029  0
C  C70  1  0.60062613  0.11781309  0.60703623  1  -0.078702  0  -0.087362  -0.037164  0  4.00485  0
C  C71  1  0.88218824  0.39936247  0.89296391  1  -0.08272  0  -0.087341  -0.037134  0  4.005225  0
C  C72  1  0.39936576  0.88218381  0.39296022  1  -0.082781  0  -0.087357  -0.037206  0  4.005079  0
C  C73  1  0.11781585  0.60062698  0.10703044  1  -0.078531  0  -0.087355  -0.037094  0  4.00521  0
C  C74  1  0.66066962  0.06491569  0.55114537  1  -0.000954  0  -0.112837  -0.224188  0  4.02077  0
C  C75  1  0.93508593  0.33931966  0.94885464  1  0.002459  0  -0.112763  -0.224165  0  4.020646  0
C  C76  1  0.33932839  0.93508241  0.44885415  1  0.003294  0  -0.112824  -0.224171  0  4.020634  0
C  C77  1  0.06491554  0.66067383  0.05114404  1  -0.001559  0  -0.112801  -0.224194  0  4.020774  0
C  C78  1  0.73394958  0.13026133  0.50045108  1  0.453282  0  0.090615  0.250329  0  4.008892  0
C  C79  1  0.86972725  0.26603363  0.99954367  1  0.45381  0  0.090633  0.250372  0  4.008679  0
C  C80  1  0.26604839  0.86973346  0.49954935  1  0.452615  0  0.090586  0.250385  0  4.008799  0
C  C81  1  0.13026457  0.73395910  0.00045495  1  0.453617  0  0.090606  0.25021  0  4.008836  0
C  C82  1  0.79005678  0.96796856  0.44153187  1  0.427663  0  0.090947  0.242972  0  3.994278  0
C  C83  1  0.03203245  0.20993730  0.05846812  1  0.42765  0  0.090907  0.24294  0  3.994433  0
C  C84  1  0.20994305  0.03203758  0.55846969  1  0.427712  0  0.090908  0.243017  0  3.99446  0
C  C85  1  0.96796908  0.79006445  0.94153445  1  0.427874  0  0.090904  0.242917  0  3.994257  0
C  C86  1  0.71193931  0.88309684  0.36225098  1  -0.043338  0  -0.017549  -0.122291  0  3.928784  0
C  C87  1  0.11690519  0.28805993  0.13775341  1  -0.04314  0  -0.017519  -0.12218  0  3.928728  0
C  C88  1  0.28806048  0.11690516  0.63775001  1  -0.043134  0  -0.017481  -0.122268  0  3.928815  0
C  C89  1  0.88309985  0.71194464  0.86225141  1  -0.043001  0  -0.017499  -0.122172  0  3.928973  0
C  C90  1  0.64348267  0.91190765  0.28075342  1  1.553273  0  0.199774  0.584693  0  4.195154  0
C  C91  1  0.08810065  0.35651907  0.21924857  1  1.55343  0  0.19993  0.584762  0  4.195072  0
C  C92  1  0.35652421  0.08810249  0.71924967  1  1.553498  0  0.199785  0.584714  0  4.195041  0
C  C93  1  0.91190271  0.64348990  0.78075318  1  1.553276  0  0.199802  0.584559  0  4.195571  0
C  C94  1  0.70215492  0.76521844  0.35743958  1  -0.00581  0  -0.082596  -0.082014  0  4.000801  0
C  C95  1  0.23478565  0.29783996  0.14256070  1  -0.005236  0  -0.082648  -0.082177  0  4.000829  0
C  C96  1  0.29784314  0.23478709  0.64256440  1  -0.005561  0  -0.082613  -0.082021  0  4.000586  0
C  C97  1  0.76521761  0.70215989  0.85744253  1  -0.005558  0  -0.082583  -0.08193  0  4.00062  0
C  C98  1  0.77112952  0.73310726  0.42591216  1  -0.002395  0  -0.089052  -0.113978  0  3.991474  0
C  C99  1  0.26689952  0.22886813  0.07409736  1  -0.002485  0  -0.08896  -0.113878  0  3.991471  0
C  C100  1  0.22887467  0.26689458  0.57408667  1  -0.002441  0  -0.089052  -0.113962  0  3.991442  0
C  C101  1  0.73309920  0.77112108  0.92591134  1  -0.00233  0  -0.089012  -0.114004  0  3.991422  0
C  C102  1  0.85184378  0.81922899  0.50223437  1  -0.056624  0  -0.013326  -0.010522  0  3.973883  0
C  C103  1  0.18077457  0.14815717  0.99776958  1  -0.056623  0  -0.013404  -0.010682  0  3.973852  0
C  C104  1  0.14815773  0.18076946  0.49776637  1  -0.056579  0  -0.013311  -0.010617  0  3.974089  0
C  C105  1  0.81922600  0.85183929  0.00223626  1  -0.056442  0  -0.013321  -0.010618  0  3.973904  0
C  C106  1  0.93094803  0.78529616  0.57407237  1  1.602103  0  0.205675  0.580829  0  4.219286  0
C  C107  1  0.21470066  0.06904591  0.92593010  1  1.602136  0  0.205681  0.580838  0  4.219085  0
C  C108  1  0.06904993  0.21470026  0.42593173  1  1.602042  0  0.2057  0.580845  0  4.219209  0
C  C109  1  0.78529906  0.93095110  0.07407294  1  1.602145  0  0.205678  0.5808  0  4.219032  0
C  C110  1  0.85923954  0.93648558  0.51056363  1  0.005223  0  -0.090111  -0.207856  0  3.960575  0
C  C111  1  0.06352008  0.14076326  0.98943980  1  0.005031  0  -0.0901  -0.20768  0  3.960602  0
C  C112  1  0.14076554  0.06351820  0.48943627  1  0.005125  0  -0.090128  -0.207775  0  3.960629  0
C  C113  1  0.93648057  0.85923902  0.01056341  1  0.004724  0  -0.090161  -0.207836  0  3.960643  0
C  C114  1  0.97857715  0.68335454  0.30875725  1  0.523571  0  0.052357  0.101555  0  3.938186  0
C  C115  1  0.31663388  0.02140947  0.19124336  1  0.523947  0  0.052411  0.101591  0  3.93826  0
C  C116  1  0.02141747  0.31664661  0.69123260  1  0.523662  0  0.05244  0.101677  0  3.938244  0
C  C117  1  0.68336663  0.97858446  0.80876693  1  0.523319  0  0.052408  0.101499  0  3.938519  0
C  C118  1  0.93016261  0.74692000  0.25371908  1  -0.036791  0  -0.077376  -0.122555  0  3.957647  0
C  C119  1  0.25307407  0.06982666  0.24628639  1  -0.037588  0  -0.077482  -0.122722  0  3.957739  0
C  C120  1  0.06982673  0.25308103  0.74627278  1  -0.03668  0  -0.077451  -0.122678  0  3.957648  0
C  C121  1  0.74693007  0.93018169  0.75372707  1  -0.036711  0  -0.077454  -0.122467  0  3.957667  0
C  C122  1  0.83428444  0.68582557  0.17785503  1  0.039443  0  -0.060109  -0.016717  0  3.950271  0
C  C123  1  0.31417298  0.16571016  0.32214575  1  0.039599  0  -0.060112  -0.016764  0  3.950421  0
C  C124  1  0.16570574  0.31417325  0.82213870  1  0.039047  0  -0.060039  -0.016719  0  3.950314  0
C  C125  1  0.68583996  0.83429950  0.67786498  1  0.039333  0  -0.060116  -0.016717  0  3.950173  0
C  C126  1  0.79118558  0.56342047  0.15868090  1  -0.127572  0  -0.078841  -0.123294  0  3.958119  0
C  C127  1  0.43657547  0.20880508  0.34131611  1  -0.127928  0  -0.078803  -0.123143  0  3.958219  0
C  C128  1  0.20880369  0.43657639  0.84131381  1  -0.127707  0  -0.078743  -0.123014  0  3.957897  0
C  C129  1  0.56344013  0.79120056  0.65868619  1  -0.127749  0  -0.078801  -0.123127  0  3.957885  0
C  C130  1  0.84438886  0.50586081  0.21680656  1  0.516277  0  0.048587  0.093984  0  3.91731  0
C  C131  1  0.49413361  0.15560478  0.28318829  1  0.516735  0  0.048512  0.093784  0  3.91762  0
C  C132  1  0.15560398  0.49413891  0.78318492  1  0.516814  0  0.048521  0.093715  0  3.917568  0
C  C133  1  0.50586871  0.84438815  0.71681386  1  0.516799  0  0.048571  0.09386  0  3.917589  0
N  N134  1  0.93615973  0.56517272  0.29080676  1  -1.28153  0  -0.328252  -0.253017  0  3.525624  0
N  N135  1  0.43481748  0.06383287  0.20919200  1  -1.281483  0  -0.328213  -0.252976  0  3.525776  0
N  N136  1  0.06383661  0.43482898  0.70918753  1  -1.281771  0  -0.328324  -0.253026  0  3.52589  0
N  N137  1  0.56518482  0.93615840  0.79081061  1  -1.281466  0  -0.328316  -0.253114  0  3.525841  0
O  O138  1  0.87922452  0.42621385  0.48295453  1  -1.175063  0  -0.331939  -0.566165  0  2.377603  0
O  O139  1  0.57377909  0.12077731  0.01703894  1  -1.175215  0  -0.331972  -0.566189  0  2.377534  0
O  O140  1  0.12076746  0.57379380  0.51704479  1  -1.174891  0  -0.33196  -0.566165  0  2.377551  0
O  O141  1  0.42621545  0.87921884  0.98295365  1  -1.175016  0  -0.331998  -0.566212  0  2.377551  0
O  O142  1  0.80664129  0.27696448  0.35754415  1  -1.183829  0  -0.321364  -0.568994  0  2.315497  0
O  O143  1  0.72303442  0.19335058  0.14245067  1  -1.183896  0  -0.321304  -0.568914  0  2.315558  0
O  O144  1  0.19336117  0.72304171  0.64245847  1  -1.183874  0  -0.321383  -0.568971  0  2.315463  0
O  O145  1  0.27696449  0.80664374  0.85754090  1  -1.183799  0  -0.321402  -0.569043  0  2.315499  0
O  O146  1  0.80401092  0.08639500  0.45136026  1  -1.103933  0  -0.151554  -0.219249  0  2.637982  0
O  O147  1  0.91360908  0.19598876  0.04864345  1  -1.10378  0  -0.151615  -0.2194  0  2.638294  0
O  O148  1  0.19600121  0.91361525  0.54864357  1  -1.103714  0  -0.15155  -0.219378  0  2.638131  0
O  O149  1  0.08639510  0.80401717  0.95136144  1  -1.103924  0  -0.151575  -0.21926  0  2.638012  0
O  O150  1  0.67760305  0.01892974  0.26975283  1  -1.154074  0  -0.337551  -0.610906  0  2.438338  0
O  O151  1  0.98107884  0.32240098  0.23024773  1  -1.154124  0  -0.337704  -0.61108  0  2.438395  0
O  O152  1  0.32240026  0.98107835  0.73025499  1  -1.154355  0  -0.337591  -0.610957  0  2.438143  0
O  O153  1  0.01892366  0.67760772  0.76975181  1  -1.154105  0  -0.337564  -0.610874  0  2.43844  0
O  O154  1  0.55637865  0.83276739  0.22432777  1  -1.153946  0  -0.316668  -0.539771  0  2.123085  0
O  O155  1  0.16724603  0.44362276  0.27567132  1  -1.154275  0  -0.316691  -0.539744  0  2.122976  0
O  O156  1  0.44362468  0.16723581  0.77567181  1  -1.154152  0  -0.316661  -0.539754  0  2.123169  0
O  O157  1  0.83275996  0.55638545  0.72433001  1  -1.154229  0  -0.316697  -0.539693  0  2.123174  0
O  O158  1  0.98841964  0.86370653  0.64959726  1  -1.159227  0  -0.331872  -0.574483  0  2.261579  0
O  O159  1  0.13629233  0.01158273  0.85040494  1  -1.159241  0  -0.331845  -0.574446  0  2.261662  0
O  O160  1  0.01158016  0.13629630  0.35040385  1  -1.159214  0  -0.331879  -0.574471  0  2.261567  0
O  O161  1  0.86370208  0.98841001  0.14959953  1  -1.159259  0  -0.331858  -0.574458  0  2.261728  0
O  O162  1  0.93273622  0.68198505  0.55175930  1  -1.174894  0  -0.328466  -0.558548  0  2.310541  0
O  O163  1  0.31801982  0.06725606  0.94824504  1  -1.17498  0  -0.328524  -0.558638  0  2.310021  0
O  O164  1  0.06726352  0.31801198  0.44824101  1  -1.17483  0  -0.328548  -0.558637  0  2.310299  0
O  O165  1  0.68198268  0.93275016  0.05175279  1  -1.174968  0  -0.328568  -0.558638  0  2.309881  0
