# generated using pymatgen
data_ZnH13C12N9O
_symmetry_space_group_name_H-M   'P 1'
_cell_length_a   8.62742312
_cell_length_b   12.67560944
_cell_length_c   13.88870882
_cell_angle_alpha   98.09525960
_cell_angle_beta   90.00013092
_cell_angle_gamma   89.99963207
_symmetry_Int_Tables_number   1
_chemical_formula_structural   ZnH13C12N9O
_chemical_formula_sum   'Zn4 H52 C48 N36 O4'
_cell_volume   1503.70451825
_cell_formula_units_Z   4
loop_
 _symmetry_equiv_pos_site_id
 _symmetry_equiv_pos_as_xyz
  1  'x, y, z'
loop_
 _atom_site_type_symbol
 _atom_site_label
 _atom_site_symmetry_multiplicity
 _atom_site_fract_x
 _atom_site_fract_y
 _atom_site_fract_z
 _atom_site_occupancy
 _atom_site_hle17_bader_spin_density
 _atom_site_hle17_ddec_charge
 _atom_site_hle17_ddec_spin_density
 _atom_site_hle17_ddec_sum_bond_order
 _atom_site_hle17_magmom
 _atom_site_hse06_10hf_bader_spin_density
 _atom_site_hse06_10hf_ddec_charge
 _atom_site_hse06_10hf_ddec_spin_density
 _atom_site_hse06_10hf_ddec_sum_bond_order
 _atom_site_hse06_10hf_magmom
 _atom_site_hse06_bader_spin_density
 _atom_site_hse06_ddec_charge
 _atom_site_hse06_ddec_spin_density
 _atom_site_hse06_ddec_sum_bond_order
 _atom_site_hse06_magmom
 _atom_site_pbe_bader_spin_density
 _atom_site_pbe_cm5_charge
 _atom_site_pbe_ddec_charge
 _atom_site_pbe_ddec_spin_density
 _atom_site_pbe_ddec_sum_bond_order
 _atom_site_pbe_magmom
Zn  Zn0  1  0.23677456  0.42939477  0.71611803  1  0  0.911276  0  1.870948  0  0  0.716055  0  2.325312  0  0  0.758114  0  2.281551  0  0  0.696152  0.686988  0  2.355288  0
Zn  Zn1  1  0.73677524  0.07060235  0.28387919  1  0  0.911262  0  1.870981  0  0  0.71606  0  2.325282  0  0  0.758118  0  2.281523  0  0  0.696102  0.686997  0  2.355257  0
Zn  Zn2  1  0.76322696  0.57060512  0.28388395  1  0  0.911287  0  1.871001  0  0  0.716063  0  2.325359  0  0  0.758121  0  2.281597  0  0  0.696121  0.687  0  2.355334  0
Zn  Zn3  1  0.26322860  0.92939672  0.71611980  1  0  0.911262  0  1.871033  0  0  0.716057  0  2.325324  0  0  0.758118  0  2.28156  0  0  0.696108  0.686992  0  2.355305  0
H  H4  1  0.63693779  0.21506838  0.01907989  1  0  0.093143  0  0.990407  0  0  0.097927  0  1.062265  0  0  0.099932  0  1.061576  0  0  0.100825  0.096455  0  1.062716  0
H  H5  1  0.13694173  0.28492760  0.98091994  1  0  0.093195  0  0.990314  0  0  0.09797  0  1.062189  0  0  0.099975  0  1.061498  0  0  0.10085  0.096498  0  1.062639  0
H  H6  1  0.36306605  0.78493069  0.98092055  1  0  0.093242  0  0.990376  0  0  0.098009  0  1.062252  0  0  0.100023  0  1.061536  0  0  0.100846  0.096537  0  1.062703  0
H  H7  1  0.86305747  0.71507064  0.01907608  1  0  0.093206  0  0.990336  0  0  0.097962  0  1.062257  0  0  0.099976  0  1.061549  0  0  0.100845  0.09649  0  1.062709  0
H  H8  1  0.28112018  0.49422688  0.14539922  1  0  0.109436  0  0.927773  0  0  0.117025  0  0.98934  0  0  0.121527  0  0.984988  0  0  0.112384  0.113683  0  0.992635  0
H  H9  1  0.78111427  0.00577799  0.85459756  1  0  0.109386  0  0.927869  0  0  0.117008  0  0.989415  0  0  0.121504  0  0.985067  0  0  0.112366  0.113669  0  0.992706  0
H  H10  1  0.71888366  0.50577219  0.85460050  1  0  0.109337  0  0.927692  0  0  0.116959  0  0.989236  0  0  0.121464  0  0.984881  0  0  0.11235  0.113615  0  0.992535  0
H  H11  1  0.21887450  0.99422109  0.14540288  1  0  0.109373  0  0.927727  0  0  0.116959  0  0.989306  0  0  0.121464  0  0.98495  0  0  0.112359  0.113617  0  0.992602  0
H  H12  1  0.62524870  0.20714291  0.83973555  1  0  0.115232  0  0.943388  0  0  0.123035  0  1.006088  0  0  0.127209  0  1.004622  0  0  0.102243  0.120007  0  1.007407  0
H  H13  1  0.12524608  0.29285152  0.16026263  1  0  0.115195  0  0.943509  0  0  0.123006  0  1.006194  0  0  0.12718  0  1.004729  0  0  0.102239  0.11998  0  1.007508  0
H  H14  1  0.37475746  0.79285615  0.16026273  1  0  0.115234  0  0.943454  0  0  0.123069  0  1.006118  0  0  0.127242  0  1.004652  0  0  0.102245  0.120039  0  1.007438  0
H  H15  1  0.87475196  0.70714433  0.83973310  1  0  0.115226  0  0.94341  0  0  0.12302  0  1.00611  0  0  0.127192  0  1.004646  0  0  0.102236  0.119991  0  1.00743  0
H  H16  1  0.10528830  0.61254614  0.06318803  1  0  0.107574  0  0.965564  0  0  0.113169  0  1.031117  0  0  0.115994  0  1.030744  0  0  0.105104  0.111069  0  1.03162  0
H  H17  1  0.60528499  0.88746186  0.93680617  1  0  0.107554  0  0.965674  0  0  0.113126  0  1.031245  0  0  0.115965  0  1.030835  0  0  0.105033  0.111018  0  1.031758  0
H  H18  1  0.89471438  0.38745375  0.93681467  1  0  0.107539  0  0.965479  0  0  0.113121  0  1.031072  0  0  0.115952  0  1.03069  0  0  0.105073  0.110992  0  1.031604  0
H  H19  1  0.39470262  0.11254118  0.06319331  1  0  0.107575  0  0.965592  0  0  0.113174  0  1.031146  0  0  0.116016  0  1.030726  0  0  0.105122  0.111075  0  1.03165  0
H  H20  1  0.09621652  0.58880390  0.88147709  1  0  0.063323  0  0.981359  0  0  0.071893  0  1.049544  0  0  0.073501  0  1.049605  0  0  0.108671  0.070701  0  1.049545  0
H  H21  1  0.59621462  0.91119460  0.11851739  1  0  0.063273  0  0.981419  0  0  0.071838  0  1.049609  0  0  0.073444  0  1.049676  0  0  0.108641  0.070647  0  1.049608  0
H  H22  1  0.90378152  0.41119519  0.11852407  1  0  0.063325  0  0.981433  0  0  0.071892  0  1.049621  0  0  0.073498  0  1.049679  0  0  0.108681  0.0707  0  1.049623  0
H  H23  1  0.40377879  0.08880449  0.88148449  1  0  0.063281  0  0.981541  0  0  0.071847  0  1.049725  0  0  0.073451  0  1.049789  0  0  0.108653  0.070655  0  1.049725  0
H  H24  1  0.31365405  0.53680690  0.47236395  1  0  0.059268  0  0.92627  0  0  0.076951  0  0.986992  0  0  0.077357  0  0.987059  0  0  0.102403  0.076552  0  0.98707  0
H  H25  1  0.81366477  0.96319546  0.52763418  1  0  0.059291  0  0.926167  0  0  0.077022  0  0.986844  0  0  0.077411  0  0.98693  0  0  0.102367  0.076617  0  0.986938  0
H  H26  1  0.68633935  0.46318978  0.52763548  1  0  0.059255  0  0.926171  0  0  0.076954  0  0.986915  0  0  0.077319  0  0.987028  0  0  0.102376  0.076551  0  0.987003  0
H  H27  1  0.18633791  0.03680921  0.47236837  1  0  0.059248  0  0.926218  0  0  0.07698  0  0.986907  0  0  0.077366  0  0.987002  0  0  0.102339  0.076575  0  0.986999  0
H  H28  1  0.17493525  0.44205994  0.50068157  1  0  0.059212  0  0.94696  0  0  0.072805  0  1.017098  0  0  0.073541  0  1.016483  0  0  0.102616  0.07213  0  1.017701  0
H  H29  1  0.67494263  0.05794305  0.49931987  1  0  0.059237  0  0.946947  0  0  0.072823  0  1.017106  0  0  0.073557  0  1.01649  0  0  0.10263  0.072145  0  1.017717  0
H  H30  1  0.82505932  0.55793758  0.49932228  1  0  0.059197  0  0.94696  0  0  0.072831  0  1.017068  0  0  0.073571  0  1.016438  0  0  0.102634  0.072153  0  1.017679  0
H  H31  1  0.32506121  0.94206242  0.50068278  1  0  0.059217  0  0.946933  0  0  0.072826  0  1.017071  0  0  0.073561  0  1.016454  0  0  0.102646  0.072152  0  1.017673  0
H  H32  1  0.07309295  0.62669257  0.54201719  1  0  0.060238  0  0.976819  0  0  0.069479  0  1.051156  0  0  0.070956  0  1.049546  0  0  0.099079  0.068272  0  1.052441  0
H  H33  1  0.57309496  0.87331408  0.45798688  1  0  0.060239  0  0.97682  0  0  0.069463  0  1.051178  0  0  0.070949  0  1.049562  0  0  0.099079  0.068255  0  1.052461  0
H  H34  1  0.92690626  0.37330812  0.45798488  1  0  0.060244  0  0.976798  0  0  0.069459  0  1.051171  0  0  0.070949  0  1.049555  0  0  0.099081  0.068252  0  1.052456  0
H  H35  1  0.42690541  0.12669140  0.54201721  1  0  0.060226  0  0.976782  0  0  0.069466  0  1.051136  0  0  0.070953  0  1.049519  0  0  0.099082  0.068262  0  1.052423  0
H  H36  1  0.23738530  0.66447519  0.61359855  1  0  0.066977  0  0.958265  0  0  0.081277  0  1.021666  0  0  0.080687  0  1.024738  0  0  0.1063  0.081584  0  1.019651  0
H  H37  1  0.73738507  0.83552596  0.38640437  1  0  0.066948  0  0.958244  0  0  0.081262  0  1.021618  0  0  0.080671  0  1.024691  0  0  0.106293  0.081568  0  1.019602  0
H  H38  1  0.76261390  0.33552309  0.38640179  1  0  0.066969  0  0.958241  0  0  0.081287  0  1.021629  0  0  0.080697  0  1.024703  0  0  0.10631  0.081593  0  1.019614  0
H  H39  1  0.26261413  0.16447872  0.61359963  1  0  0.066966  0  0.958265  0  0  0.081288  0  1.021658  0  0  0.080699  0  1.024731  0  0  0.10631  0.081597  0  1.019644  0
H  H40  1  0.40776177  0.39193552  0.55882220  1  0  0.290067  0  0.939725  0  0  0.267046  0  1.017189  0  0  0.274694  0  1.011022  0  0  0.286526  0.261604  0  1.021548  0
H  H41  1  0.90776152  0.10806720  0.44117450  1  0  0.290049  0  0.939781  0  0  0.26706  0  1.017201  0  0  0.274708  0  1.011034  0  0  0.286522  0.261617  0  1.02156  0
H  H42  1  0.59223743  0.60806436  0.44117906  1  0  0.290078  0  0.939702  0  0  0.267064  0  1.01715  0  0  0.27471  0  1.010987  0  0  0.286517  0.261621  0  1.02151  0
H  H43  1  0.09223884  0.89193665  0.55882580  1  0  0.290009  0  0.939762  0  0  0.266997  0  1.017212  0  0  0.274644  0  1.011047  0  0  0.286508  0.261554  0  1.02157  0
H  H44  1  0.44878400  0.51293575  0.61859940  1  0  0.284498  0  0.936049  0  0  0.269874  0  1.00003  0  0  0.276174  0  0.995867  0  0  0.285032  0.26537  0  1.003067  0
H  H45  1  0.94878701  0.98706602  0.38139884  1  0  0.284601  0  0.936015  0  0  0.269971  0  0.999979  0  0  0.276272  0  0.995815  0  0  0.285098  0.265468  0  1.003017  0
H  H46  1  0.55121404  0.48706492  0.38140051  1  0  0.284549  0  0.936062  0  0  0.269925  0  1.000026  0  0  0.276225  0  0.995864  0  0  0.285063  0.265422  0  1.003064  0
H  H47  1  0.05121451  0.01293705  0.61860352  1  0  0.28465  0  0.935941  0  0  0.270003  0  0.999923  0  0  0.276304  0  0.995759  0  0  0.285103  0.2655  0  1.00296  0
H  H48  1  0.07096168  0.63232225  0.72513059  1  0  0.29113  0  0.924811  0  0  0.28087  0  0.986654  0  0  0.286832  0  0.982192  0  0  0.287624  0.276637  0  0.989848  0
H  H49  1  0.57096075  0.86767962  0.27487146  1  0  0.291036  0  0.924906  0  0  0.280826  0  0.986663  0  0  0.286788  0  0.9822  0  0  0.287612  0.276586  0  0.989868  0
H  H50  1  0.92903752  0.36767922  0.27487014  1  0  0.291021  0  0.92498  0  0  0.280811  0  0.986733  0  0  0.286773  0  0.982271  0  0  0.287605  0.276571  0  0.989935  0
H  H51  1  0.42903845  0.13232347  0.72513234  1  0  0.291153  0  0.924705  0  0  0.280914  0  0.986548  0  0  0.286876  0  0.982086  0  0  0.287659  0.27668  0  0.989743  0
H  H52  1  0.98373168  0.53073570  0.66168001  1  0  0.284429  0  0.891966  0  0  0.286052  0  0.930165  0  0  0.290239  0  0.928522  0  0  0.299388  0.283076  0  0.931411  0
H  H53  1  0.48373389  0.96926833  0.33831999  1  0  0.284523  0  0.891825  0  0  0.286098  0  0.930087  0  0  0.290286  0  0.928443  0  0  0.299408  0.283122  0  0.931332  0
H  H54  1  0.01626636  0.46926419  0.33832124  1  0  0.284502  0  0.891925  0  0  0.286079  0  0.930179  0  0  0.290267  0  0.928534  0  0  0.299391  0.283101  0  0.931429  0
H  H55  1  0.51626763  0.03073634  0.66168256  1  0  0.284393  0  0.892013  0  0  0.286006  0  0.930225  0  0  0.290193  0  0.928582  0  0  0.299375  0.283034  0  0.931458  0
C  C56  1  0.36453920  0.40933827  0.00953180  1  0  -0.01717  0  3.77736  0  0  -0.003048  0  4.006425  0  0  -0.002962  0  4.033366  0  0  0.002713  -0.002997  0  3.98836  0
C  C57  1  0.86453649  0.09065987  0.99046428  1  0  -0.01685  0  3.777066  0  0  -0.002828  0  4.006207  0  0  -0.002744  0  4.033149  0  0  0.002732  -0.002781  0  3.988142  0
C  C58  1  0.63546348  0.59066480  0.99046984  1  0  -0.017263  0  3.777317  0  0  -0.003064  0  4.006309  0  0  -0.002981  0  4.033256  0  0  0.002672  -0.00301  0  3.988245  0
C  C59  1  0.13545692  0.90933441  0.00953342  1  0  -0.017116  0  3.777206  0  0  -0.002957  0  4.00624  0  0  -0.002879  0  4.033184  0  0  0.002753  -0.002902  0  3.988175  0
C  C60  1  0.44007469  0.32319271  0.84168267  1  0  0.317225  0  3.887832  0  0  0.302826  0  4.148952  0  0  0.323155  0  4.160858  0  0  0.10013  0.289304  0  4.140451  0
C  C61  1  0.94007277  0.17680350  0.15831256  1  0  0.317259  0  3.887869  0  0  0.302848  0  4.149007  0  0  0.323178  0  4.160913  0  0  0.100132  0.289321  0  4.140508  0
C  C62  1  0.55993147  0.67680795  0.15831652  1  0  0.317323  0  3.887689  0  0  0.302952  0  4.148804  0  0  0.32328  0  4.160711  0  0  0.100201  0.28943  0  4.140305  0
C  C63  1  0.05992644  0.82319156  0.84168379  1  0  0.317165  0  3.887811  0  0  0.302806  0  4.148921  0  0  0.323129  0  4.160829  0  0  0.100142  0.289285  0  4.140423  0
C  C64  1  0.46440837  0.33637725  0.05018908  1  0  0.072772  0  3.836086  0  0  0.069603  0  4.095548  0  0  0.058932  0  4.124375  0  0  0.069808  0.076245  0  4.076134  0
C  C65  1  0.96441063  0.16361806  0.94980680  1  0  0.072549  0  3.835881  0  0  0.069477  0  4.095263  0  0  0.058808  0  4.124083  0  0  0.069725  0.076119  0  4.07585  0
C  C66  1  0.53559547  0.66362423  0.94981237  1  0  0.072847  0  3.83632  0  0  0.069659  0  4.095735  0  0  0.058988  0  4.124562  0  0  0.069801  0.0763  0  4.076319  0
C  C67  1  0.03558510  0.83637859  0.05018975  1  0  0.072844  0  3.83612  0  0  0.069691  0  4.095531  0  0  0.059022  0  4.124352  0  0  0.069824  0.076331  0  4.076118  0
C  C68  1  0.55690036  0.26625828  0.98653009  1  0  -0.077474  0  3.761915  0  0  -0.099075  0  4.015976  0  0  -0.092496  0  4.037486  0  0  -0.080734  -0.102813  0  4.001075  0
C  C69  1  0.05690470  0.23373645  0.01346875  1  0  -0.077383  0  3.761702  0  0  -0.098993  0  4.015718  0  0  -0.092412  0  4.037223  0  0  -0.080682  -0.102732  0  4.000815  0
C  C70  1  0.44310579  0.73374077  0.01346818  1  0  -0.077672  0  3.762143  0  0  -0.09925  0  4.016189  0  0  -0.092668  0  4.037704  0  0  -0.080746  -0.102989  0  4.001286  0
C  C71  1  0.94309450  0.76625784  0.98653039  1  0  -0.07756  0  3.761817  0  0  -0.099171  0  4.015863  0  0  -0.092587  0  4.037368  0  0  -0.08074  -0.10291  0  4.000964  0
C  C72  1  0.35227998  0.40187259  0.90687362  1  0  0.079789  0  3.73689  0  0  0.072656  0  3.974846  0  0  0.071035  0  3.997135  0  0  0.098354  0.073426  0  3.960117  0
C  C73  1  0.85227970  0.09812719  0.09312193  1  0  0.079635  0  3.736657  0  0  0.072505  0  3.974652  0  0  0.070882  0  3.996942  0  0  0.098321  0.073286  0  3.959913  0
C  C74  1  0.64772849  0.59812730  0.09312764  1  0  0.079968  0  3.737014  0  0  0.07276  0  3.974954  0  0  0.071139  0  3.997244  0  0  0.098373  0.073525  0  3.960232  0
C  C75  1  0.14772298  0.90187264  0.90687356  1  0  0.079845  0  3.736849  0  0  0.072584  0  3.974894  0  0  0.070978  0  3.997166  0  0  0.098315  0.073349  0  3.960174  0
C  C76  1  0.27265404  0.48691726  0.06648396  1  0  -0.036133  0  3.678489  0  0  -0.06616  0  3.932782  0  0  -0.06465  0  3.949285  0  0  -0.062067  -0.067104  0  3.921608  0
C  C77  1  0.77265647  0.01308842  0.93351002  1  0  -0.036252  0  3.678272  0  0  -0.066281  0  3.932602  0  0  -0.064767  0  3.949106  0  0  -0.062096  -0.067226  0  3.921428  0
C  C78  1  0.72735559  0.51307867  0.93351970  1  0  -0.035935  0  3.678867  0  0  -0.065995  0  3.933079  0  0  -0.064487  0  3.949592  0  0  -0.061974  -0.066937  0  3.921895  0
C  C79  1  0.22734389  0.98691458  0.06648441  1  0  -0.03596  0  3.678701  0  0  -0.065966  0  3.932957  0  0  -0.064461  0  3.949475  0  0  -0.061921  -0.066909  0  3.921781  0
C  C80  1  0.54841679  0.26047176  0.88648299  1  0  -0.215913  0  3.742453  0  0  -0.233292  0  3.99829  0  0  -0.248752  0  4.021399  0  0  -0.112876  -0.22316  0  3.982624  0
C  C81  1  0.04841565  0.23952139  0.11351349  1  0  -0.215933  0  3.742663  0  0  -0.233317  0  3.998487  0  0  -0.248778  0  4.021597  0  0  -0.112884  -0.223189  0  3.982831  0
C  C82  1  0.45158936  0.73952812  0.11351826  1  0  -0.215908  0  3.742571  0  0  -0.233331  0  3.99838  0  0  -0.248794  0  4.021492  0  0  -0.112892  -0.223203  0  3.982725  0
C  C83  1  0.95158239  0.76047442  0.88647864  1  0  -0.21589  0  3.742535  0  0  -0.233254  0  3.998355  0  0  -0.24872  0  4.021473  0  0  -0.11288  -0.223123  0  3.982689  0
C  C84  1  0.17665512  0.55168305  0.02114653  1  0  -0.111365  0  3.735037  0  0  -0.11814  0  3.984927  0  0  -0.123499  0  4.005989  0  0  -0.082774  -0.114557  0  3.970653  0
C  C85  1  0.67664677  0.94831672  0.97885109  1  0  -0.111248  0  3.734799  0  0  -0.11802  0  3.984649  0  0  -0.123374  0  4.005715  0  0  -0.082649  -0.11443  0  3.970383  0
C  C86  1  0.82334060  0.44832399  0.97885414  1  0  -0.111488  0  3.735635  0  0  -0.118278  0  3.985554  0  0  -0.123642  0  4.006618  0  0  -0.082857  -0.114668  0  3.971293  0
C  C87  1  0.32333853  0.05167522  0.02115209  1  0  -0.111534  0  3.735474  0  0  -0.118351  0  3.985383  0  0  -0.123704  0  4.006454  0  0  -0.083013  -0.114768  0  3.971109  0
C  C88  1  0.17101783  0.53874482  0.91904391  1  0  0.140134  0  3.700876  0  0  0.10346  0  3.955868  0  0  0.11092  0  3.972705  0  0  0.049019  0.098602  0  3.944358  0
C  C89  1  0.67101649  0.96125815  0.08095265  1  0  0.140105  0  3.701244  0  0  0.103436  0  3.95617  0  0  0.110893  0  3.973017  0  0  0.049031  0.098578  0  3.944656  0
C  C90  1  0.82899064  0.46125268  0.08095778  1  0  0.14018  0  3.700508  0  0  0.103496  0  3.955478  0  0  0.110964  0  3.972305  0  0  0.048974  0.098637  0  3.943966  0
C  C91  1  0.32898387  0.03874330  0.91904664  1  0  0.140191  0  3.700845  0  0  0.1035  0  3.955779  0  0  0.110961  0  3.972617  0  0  0.049078  0.098643  0  3.944269  0
C  C92  1  0.51562487  0.26565301  0.28272506  1  0  0.390771  0  3.858676  0  0  0.358551  0  4.142739  0  0  0.370896  0  4.158507  0  0  0.302034  0.350346  0  4.132017  0
C  C93  1  0.01562484  0.23434505  0.71727052  1  0  0.390761  0  3.85852  0  0  0.358604  0  4.142497  0  0  0.37095  0  4.158261  0  0  0.302113  0.3504  0  4.131775  0
C  C94  1  0.48438012  0.73434605  0.71727393  1  0  0.390814  0  3.85851  0  0  0.358641  0  4.142522  0  0  0.370983  0  4.158289  0  0  0.302085  0.350437  0  4.131801  0
C  C95  1  0.98436973  0.76565558  0.28272578  1  0  0.390871  0  3.858704  0  0  0.358673  0  4.142745  0  0  0.371018  0  4.15851  0  0  0.3021  0.350468  0  4.132022  0
C  C96  1  0.25215158  0.50675722  0.53232609  1  0  0.045604  0  3.643139  0  0  -0.014486  0  3.911951  0  0  -0.011193  0  3.925205  0  0  -0.080399  -0.016561  0  3.902731  0
C  C97  1  0.75215716  0.99324543  0.46767415  1  0  0.045478  0  3.642941  0  0  -0.014643  0  3.911765  0  0  -0.011337  0  3.925015  0  0  -0.080425  -0.016722  0  3.902544  0
C  C98  1  0.74784531  0.49324107  0.46767570  1  0  0.045691  0  3.642788  0  0  -0.014489  0  3.911744  0  0  -0.011167  0  3.924994  0  0  -0.080379  -0.016567  0  3.902523  0
C  C99  1  0.24784552  0.00675924  0.53232840  1  0  0.045607  0  3.642914  0  0  -0.014545  0  3.911771  0  0  -0.011243  0  3.925022  0  0  -0.080403  -0.016621  0  3.902554  0
C  C100  1  0.16044834  0.59729107  0.58923435  1  0  0.042512  0  3.633734  0  0  -0.008918  0  3.895718  0  0  -0.005856  0  3.908536  0  0  -0.084166  -0.010841  0  3.886911  0
C  C101  1  0.66045106  0.90271199  0.41076725  1  0  0.042585  0  3.633602  0  0  -0.008839  0  3.895609  0  0  -0.005782  0  3.908418  0  0  -0.084142  -0.010754  0  3.886795  0
C  C102  1  0.83955087  0.40270881  0.41076691  1  0  0.042539  0  3.633635  0  0  -0.008882  0  3.895684  0  0  -0.005829  0  3.908484  0  0  -0.084166  -0.010801  0  3.886873  0
C  C103  1  0.33954930  0.09729189  0.58923665  1  0  0.042599  0  3.633517  0  0  -0.008872  0  3.89562  0  0  -0.005815  0  3.908428  0  0  -0.084144  -0.010803  0  3.886828  0
N  N104  1  0.25558214  0.46605700  0.86399494  1  0  -0.335932  0  3.348579  0  0  -0.259861  0  3.6326  0  0  -0.275244  0  3.645762  0  0  -0.328737  -0.249522  0  3.623892  0
N  N105  1  0.75557449  0.03393922  0.13600148  1  0  -0.335919  0  3.348546  0  0  -0.259789  0  3.632496  0  0  -0.275174  0  3.645664  0  0  -0.328722  -0.249453  0  3.623785  0
N  N106  1  0.74441707  0.53394847  0.13600843  1  0  -0.3361  0  3.348565  0  0  -0.259954  0  3.632528  0  0  -0.275337  0  3.645683  0  0  -0.328678  -0.249613  0  3.623826  0
N  N107  1  0.24441660  0.96605187  0.86399584  1  0  -0.335987  0  3.348594  0  0  -0.259791  0  3.632532  0  0  -0.275178  0  3.645689  0  0  -0.328675  -0.249451  0  3.623828  0
N  N108  1  0.57517845  0.18493522  0.32593663  1  0  -0.372851  0  3.220396  0  0  -0.302189  0  3.520607  0  0  -0.320316  0  3.532582  0  0  -0.247802  -0.289967  0  3.512376  0
N  N109  1  0.07517751  0.31506418  0.67405992  1  0  -0.372797  0  3.220534  0  0  -0.302179  0  3.520769  0  0  -0.320306  0  3.532745  0  0  -0.247864  -0.289955  0  3.512536  0
N  N110  1  0.42482423  0.81506384  0.67406237  1  0  -0.372857  0  3.220518  0  0  -0.302246  0  3.520766  0  0  -0.320374  0  3.532742  0  0  -0.247831  -0.290025  0  3.512538  0
N  N111  1  0.92481937  0.68493808  0.32594018  1  0  -0.372944  0  3.220546  0  0  -0.302323  0  3.520809  0  0  -0.32045  0  3.532782  0  0  -0.247853  -0.290099  0  3.512576  0
N  N112  1  0.45695440  0.33826656  0.14928650  1  0  -0.13692  0  3.067661  0  0  -0.119698  0  3.362261  0  0  -0.110225  0  3.367681  0  0  -0.166352  -0.125195  0  3.358205  0
N  N113  1  0.95695516  0.16173197  0.85071048  1  0  -0.136908  0  3.067671  0  0  -0.119727  0  3.362273  0  0  -0.110253  0  3.367691  0  0  -0.166381  -0.125224  0  3.358216  0
N  N114  1  0.54304944  0.66173171  0.85071312  1  0  -0.137004  0  3.067676  0  0  -0.119792  0  3.362296  0  0  -0.110319  0  3.367716  0  0  -0.166397  -0.125288  0  3.358239  0
N  N115  1  0.04304057  0.83826547  0.14928545  1  0  -0.136984  0  3.067644  0  0  -0.119777  0  3.362253  0  0  -0.110304  0  3.367669  0  0  -0.166374  -0.125273  0  3.358196  0
N  N116  1  0.53050516  0.26303935  0.18329703  1  0  -0.258232  0  3.007772  0  0  -0.234531  0  3.303817  0  0  -0.240098  0  3.309631  0  0  -0.185763  -0.230822  0  3.299733  0
N  N117  1  0.03050778  0.23695705  0.81669838  1  0  -0.25821  0  3.007758  0  0  -0.234522  0  3.303793  0  0  -0.240087  0  3.309606  0  0  -0.185763  -0.230811  0  3.299703  0
N  N118  1  0.46949984  0.73696131  0.81670216  1  0  -0.258203  0  3.007811  0  0  -0.234503  0  3.303831  0  0  -0.240066  0  3.309641  0  0  -0.185741  -0.230795  0  3.299746  0
N  N119  1  0.96948678  0.76303881  0.18329879  1  0  -0.258301  0  3.007767  0  0  -0.234598  0  3.303811  0  0  -0.24016  0  3.309621  0  0  -0.185824  -0.230888  0  3.299726  0
N  N120  1  0.54069893  0.20753690  0.42112544  1  0  -0.094578  0  2.981818  0  0  -0.088768  0  3.273302  0  0  -0.088268  0  3.284845  0  0  -0.102572  -0.088909  0  3.265448  0
N  N121  1  0.04069669  0.29246425  0.57887199  1  0  -0.094669  0  2.982089  0  0  -0.08885  0  3.27359  0  0  -0.088351  0  3.285136  0  0  -0.102597  -0.088992  0  3.265735  0
N  N122  1  0.45930375  0.79246298  0.57887509  1  0  -0.094632  0  2.981969  0  0  -0.088814  0  3.27347  0  0  -0.088313  0  3.285015  0  0  -0.102606  -0.088955  0  3.265616  0
N  N123  1  0.95930367  0.70753959  0.42112758  1  0  -0.094582  0  2.981968  0  0  -0.088766  0  3.273473  0  0  -0.088267  0  3.285018  0  0  -0.102604  -0.088906  0  3.265615  0
N  N124  1  0.46410672  0.29853132  0.43474362  1  0  -0.085976  0  3.026099  0  0  -0.063158  0  3.323191  0  0  -0.064256  0  3.333727  0  0  -0.090643  -0.062078  0  3.315934  0
N  N125  1  0.96410491  0.20147115  0.56525241  1  0  -0.085937  0  3.026128  0  0  -0.063118  0  3.32322  0  0  -0.064216  0  3.333755  0  0  -0.090633  -0.062038  0  3.315962  0
N  N126  1  0.53589828  0.70147014  0.56525639  1  0  -0.085916  0  3.02606  0  0  -0.063094  0  3.323152  0  0  -0.064194  0  3.333692  0  0  -0.090611  -0.062014  0  3.315896  0
N  N127  1  0.03589661  0.79853266  0.43474356  1  0  -0.085851  0  3.026078  0  0  -0.063031  0  3.323186  0  0  -0.064131  0  3.333726  0  0  -0.090564  -0.061951  0  3.315928  0
N  N128  1  0.44632935  0.33778419  0.35007366  1  0  -0.352748  0  2.924612  0  0  -0.332046  0  3.203194  0  0  -0.342673  0  3.213969  0  0  -0.230136  -0.32498  0  3.195996  0
N  N129  1  0.94632937  0.16221596  0.64992134  1  0  -0.352742  0  2.924431  0  0  -0.332057  0  3.202998  0  0  -0.342683  0  3.213769  0  0  -0.23012  -0.324988  0  3.195799  0
N  N130  1  0.55367681  0.66221647  0.64992553  1  0  -0.352726  0  2.924447  0  0  -0.332042  0  3.203027  0  0  -0.342666  0  3.2138  0  0  -0.230117  -0.324974  0  3.195827  0
N  N131  1  0.05366752  0.83778625  0.35007372  1  0  -0.352814  0  2.924594  0  0  -0.332116  0  3.203172  0  0  -0.342742  0  3.213946  0  0  -0.230154  -0.325049  0  3.195975  0
N  N132  1  0.09029908  0.56386098  0.67792783  1  0  -0.625212  0  3.043293  0  0  -0.574042  0  3.286223  0  0  -0.591291  0  3.283983  0  0  -0.619034  -0.561999  0  3.287599  0
N  N133  1  0.59030002  0.93614158  0.32207289  1  0  -0.625192  0  3.043235  0  0  -0.574015  0  3.286134  0  0  -0.591265  0  3.283895  0  0  -0.619032  -0.561966  0  3.28752  0
N  N134  1  0.90970012  0.43613970  0.32207353  1  0  -0.6252  0  3.043488  0  0  -0.574001  0  3.286372  0  0  -0.591251  0  3.284134  0  0  -0.61902  -0.561953  0  3.287756  0
N  N135  1  0.40970150  0.06386230  0.67793028  1  0  -0.62522  0  3.043208  0  0  -0.574056  0  3.286155  0  0  -0.591305  0  3.283915  0  0  -0.619067  -0.562008  0  3.287536  0
N  N136  1  0.36021431  0.45996667  0.59752349  1  0  -0.616887  0  3.140033  0  0  -0.546741  0  3.396206  0  0  -0.566995  0  3.393119  0  0  -0.630971  -0.532635  0  3.398135  0
N  N137  1  0.86021802  0.04003467  0.40247297  1  0  -0.616955  0  3.139887  0  0  -0.546883  0  3.396165  0  0  -0.567137  0  3.393066  0  0  -0.631024  -0.532776  0  3.398098  0
N  N138  1  0.63978374  0.54003320  0.40247705  1  0  -0.61698  0  3.139887  0  0  -0.546872  0  3.396214  0  0  -0.567123  0  3.393113  0  0  -0.631013  -0.532766  0  3.398148  0
N  N139  1  0.13978582  0.95996760  0.59752785  1  0  -0.616969  0  3.139848  0  0  -0.546845  0  3.396116  0  0  -0.5671  0  3.393025  0  0  -0.630989  -0.532737  0  3.398045  0
O  O140  1  0.41700278  0.31322119  0.74966179  1  0  -0.547197  0  1.977249  0  0  -0.48636  0  2.207736  0  0  -0.512889  0  2.203164  0  0  -0.311353  -0.467869  0  2.210249  0
O  O141  1  0.91699995  0.18677515  0.25033631  1  0  -0.547167  0  1.977116  0  0  -0.486342  0  2.207619  0  0  -0.512872  0  2.203047  0  0  -0.311316  -0.467849  0  2.21013  0
O  O142  1  0.58299989  0.68677951  0.25034100  1  0  -0.547268  0  1.977109  0  0  -0.48643  0  2.207565  0  0  -0.512962  0  2.202994  0  0  -0.311364  -0.467936  0  2.210075  0
O  O143  1  0.08300041  0.81321911  0.74965923  1  0  -0.547203  0  1.977115  0  0  -0.48637  0  2.207568  0  0  -0.512902  0  2.203  0  0  -0.311341  -0.467876  0  2.210078  0
