# generated using pymatgen
data_TlH8C12N2ClO4
_symmetry_space_group_name_H-M   'P 1'
_cell_length_a   13.89524206
_cell_length_b   15.26910039
_cell_length_c   15.29785717
_cell_angle_alpha   90.00069440
_cell_angle_beta   90.00004516
_cell_angle_gamma   89.99987340
_symmetry_Int_Tables_number   1
_chemical_formula_structural   TlH8C12N2ClO4
_chemical_formula_sum   'Tl8 H64 C96 N16 Cl8 O32'
_cell_volume   3245.71340353
_cell_formula_units_Z   8
loop_
 _symmetry_equiv_pos_site_id
 _symmetry_equiv_pos_as_xyz
  1  'x, y, z'
loop_
 _atom_site_type_symbol
 _atom_site_label
 _atom_site_symmetry_multiplicity
 _atom_site_fract_x
 _atom_site_fract_y
 _atom_site_fract_z
 _atom_site_occupancy
 _atom_site_pbe_bader_charge
 _atom_site_pbe_bader_spin_density
 _atom_site_pbe_cm5_charge
 _atom_site_pbe_ddec_charge
 _atom_site_pbe_ddec_spin_density
 _atom_site_pbe_ddec_sum_bond_order
 _atom_site_pbe_magmom
Tl  Tl0  1  0.69459729  0.20170791  0.20133102  1  1.425163  0  0.645837  1.032351  0  2.68115  0
Tl  Tl1  1  0.19459236  0.20170832  0.29866798  1  1.42516  0  0.645843  1.032405  0  2.681206  0
Tl  Tl2  1  0.80539789  0.70170779  0.20132693  1  1.425432  0  0.645834  1.032337  0  2.681268  0
Tl  Tl3  1  0.69459303  0.29829159  0.70133301  1  1.425234  0  0.645823  1.032316  0  2.681151  0
Tl  Tl4  1  0.30540094  0.79828794  0.79866915  1  1.4255  0  0.645816  1.03235  0  2.681234  0
Tl  Tl5  1  0.80540802  0.79829278  0.70133219  1  1.425068  0  0.645826  1.032377  0  2.68115  0
Tl  Tl6  1  0.19460034  0.29829527  0.79866866  1  1.425313  0  0.645842  1.032374  0  2.681287  0
Tl  Tl7  1  0.30540519  0.70170820  0.29866585  1  1.425165  0  0.645815  1.032361  0  2.681266  0
H  H8  1  0.51354325  0.75818509  0.23698640  1  0.192269  0  0.118931  0.10242  0  1.040638  0
H  H9  1  0.01353398  0.75817786  0.26300357  1  0.192287  0  0.118925  0.102433  0  1.040695  0
H  H10  1  0.98645397  0.25818858  0.23698550  1  0.192295  0  0.11896  0.10242  0  1.040637  0
H  H11  1  0.51353770  0.74181516  0.73697724  1  0.192313  0  0.118917  0.102431  0  1.040627  0
H  H12  1  0.48645714  0.24181208  0.76301050  1  0.19235  0  0.11896  0.102454  0  1.040611  0
H  H13  1  0.98646137  0.24181668  0.73699333  1  0.192429  0  0.118881  0.102279  0  1.040604  0
H  H14  1  0.01353922  0.74181186  0.76301075  1  0.192316  0  0.11891  0.10233  0  1.04075  0
H  H15  1  0.48646197  0.25818332  0.26301574  1  0.192331  0  0.118928  0.102373  0  1.040704  0
H  H16  1  0.62382255  0.88632536  0.21773356  1  0.14966  0  0.110516  0.122732  0  1.042406  0
H  H17  1  0.12381761  0.88631247  0.28225808  1  0.149838  0  0.110482  0.122652  0  1.042464  0
H  H18  1  0.87617576  0.38632710  0.21773321  1  0.150078  0  0.110521  0.122705  0  1.042385  0
H  H19  1  0.62381949  0.61368034  0.71772675  1  0.150326  0  0.110532  0.122733  0  1.042403  0
H  H20  1  0.37617495  0.11367574  0.78226531  1  0.150068  0  0.11051  0.122666  0  1.042442  0
H  H21  1  0.87618565  0.11367356  0.71774340  1  0.149961  0  0.110501  0.122683  0  1.042422  0
H  H22  1  0.12382319  0.61367924  0.78226827  1  0.150051  0  0.110513  0.122673  0  1.042416  0
H  H23  1  0.37618162  0.38632076  0.28226885  1  0.150094  0  0.11054  0.122741  0  1.042383  0
H  H24  1  0.38909366  0.05390112  0.29785070  1  0.152978  0  0.114104  0.13387  0  1.033761  0
H  H25  1  0.88909715  0.05389942  0.20215384  1  0.153038  0  0.114099  0.133859  0  1.033839  0
H  H26  1  0.11089995  0.55390530  0.29784842  1  0.153229  0  0.114135  0.133925  0  1.033715  0
H  H27  1  0.38910270  0.44609946  0.79785319  1  0.153368  0  0.114096  0.133849  0  1.033792  0
H  H28  1  0.61090097  0.94609408  0.70214751  1  0.153192  0  0.114121  0.133917  0  1.033785  0
H  H29  1  0.11091547  0.94609578  0.79784895  1  0.152876  0  0.114066  0.133844  0  1.033772  0
H  H30  1  0.88909755  0.44609841  0.70214457  1  0.153259  0  0.114118  0.133919  0  1.033718  0
H  H31  1  0.61090776  0.55390163  0.20215417  1  0.153016  0  0.114086  0.133862  0  1.0338  0
H  H32  1  0.28602058  0.91952726  0.30828290  1  0.163087  0  0.124831  0.107172  0  1.009591  0
H  H33  1  0.78601831  0.91953264  0.19171646  1  0.163015  0  0.124828  0.10711  0  1.009591  0
H  H34  1  0.21397138  0.41953389  0.30828505  1  0.162856  0  0.124852  0.107117  0  1.009784  0
H  H35  1  0.28602696  0.58046576  0.80828615  1  0.162826  0  0.124862  0.107117  0  1.00971  0
H  H36  1  0.71397045  0.08046728  0.69171661  1  0.162913  0  0.124837  0.107087  0  1.009715  0
H  H37  1  0.21398352  0.08047108  0.80828241  1  0.162987  0  0.124805  0.107071  0  1.009694  0
H  H38  1  0.78602613  0.58046655  0.69171055  1  0.162796  0  0.124858  0.107138  0  1.009707  0
H  H39  1  0.71397846  0.41953075  0.19171794  1  0.163109  0  0.124826  0.107052  0  1.009715  0
H  H40  1  0.14250144  0.16996323  0.95712796  1  0.138781  0  0.124132  0.097718  0  1.005306  0
H  H41  1  0.64248466  0.16995503  0.54287145  1  0.138669  0  0.124156  0.097746  0  1.005413  0
H  H42  1  0.35750173  0.66995385  0.95712065  1  0.138488  0  0.124165  0.097663  0  1.005262  0
H  H43  1  0.14248521  0.33004956  0.45712100  1  0.138666  0  0.124141  0.097716  0  1.005303  0
H  H44  1  0.85750830  0.83004376  0.04287352  1  0.138654  0  0.124143  0.097762  0  1.005333  0
H  H45  1  0.35751069  0.83004017  0.45712219  1  0.138706  0  0.124155  0.097789  0  1.005366  0
H  H46  1  0.64250585  0.33004529  0.04287561  1  0.138501  0  0.12413  0.097681  0  1.005231  0
H  H47  1  0.85751877  0.66996071  0.54287656  1  0.138802  0  0.124154  0.097784  0  1.005366  0
H  H48  1  0.00226537  0.13292630  0.05544714  1  0.124278  0  0.119187  0.136627  0  0.983715  0
H  H49  1  0.50224314  0.13292292  0.44455805  1  0.124174  0  0.11909  0.136535  0  0.983739  0
H  H50  1  0.49773361  0.63291665  0.05544256  1  0.124568  0  0.119156  0.13653  0  0.983711  0
H  H51  1  0.00224727  0.36707997  0.55543952  1  0.124354  0  0.119123  0.136516  0  0.983703  0
H  H52  1  0.99774869  0.86707741  0.94455630  1  0.124333  0  0.11913  0.136494  0  0.983775  0
H  H53  1  0.49775077  0.86707293  0.55543951  1  0.124284  0  0.119165  0.136578  0  0.983692  0
H  H54  1  0.50226533  0.36707986  0.94455958  1  0.124316  0  0.119176  0.136554  0  0.983758  0
H  H55  1  0.99775671  0.63293357  0.44456000  1  0.124369  0  0.119107  0.136495  0  0.983816  0
H  H56  1  0.89150178  0.39169024  0.00635659  1  0.126851  0  0.11844  0.13349  0  0.976998  0
H  H57  1  0.39149988  0.39169364  0.49364489  1  0.126728  0  0.118434  0.133495  0  0.976947  0
H  H58  1  0.60849852  0.89168199  0.00635692  1  0.126986  0  0.118403  0.133484  0  0.976886  0
H  H59  1  0.89150089  0.10830982  0.50635626  1  0.126763  0  0.118465  0.133559  0  0.976974  0
H  H60  1  0.10849572  0.60830758  0.99364424  1  0.126641  0  0.118433  0.133457  0  0.977019  0
H  H61  1  0.60849907  0.60830352  0.50635789  1  0.126478  0  0.118437  0.133509  0  0.976982  0
H  H62  1  0.39150187  0.10831584  0.99364195  1  0.126931  0  0.118428  0.133501  0  0.976969  0
H  H63  1  0.10848870  0.89170176  0.49364065  1  0.126472  0  0.118445  0.133485  0  0.977023  0
H  H64  1  0.03505641  0.41825469  0.90956199  1  0.074093  0  0.120826  0.089041  0  1.015881  0
H  H65  1  0.53505694  0.41825230  0.59043580  1  0.074127  0  0.120852  0.089133  0  1.015926  0
H  H66  1  0.46494393  0.91825165  0.90955607  1  0.074106  0  0.120801  0.089029  0  1.015801  0
H  H67  1  0.03505377  0.08174725  0.40956245  1  0.074143  0  0.120862  0.089157  0  1.015864  0
H  H68  1  0.96493606  0.58174379  0.09043296  1  0.073976  0  0.12084  0.089002  0  1.015976  0
H  H69  1  0.46494633  0.58174225  0.40956307  1  0.074152  0  0.120827  0.089034  0  1.015894  0
H  H70  1  0.53505358  0.08174617  0.09043887  1  0.074213  0  0.120827  0.089086  0  1.01589  0
H  H71  1  0.96493870  0.91826498  0.59043641  1  0.074003  0  0.120849  0.089073  0  1.016003  0
C  C72  1  0.48889084  0.82489835  0.24825178  1  0.406486  0  0.04991  0.078705  0  3.937212  0
C  C73  1  0.98889005  0.82489200  0.25174071  1  0.406552  0  0.04991  0.078621  0  3.937356  0
C  C74  1  0.01110204  0.32490143  0.24825702  1  0.406527  0  0.049812  0.07863  0  3.937395  0
C  C75  1  0.48888906  0.67510405  0.74825030  1  0.406302  0  0.049846  0.07856  0  3.937243  0
C  C76  1  0.51110522  0.17510210  0.75174774  1  0.406398  0  0.049809  0.078585  0  3.937275  0
C  C77  1  0.01111609  0.17510124  0.74826012  1  0.406908  0  0.049997  0.078894  0  3.937342  0
C  C78  1  0.98889115  0.67510032  0.75174315  1  0.406437  0  0.049931  0.078712  0  3.937381  0
C  C79  1  0.51111132  0.32489574  0.25174137  1  0.406906  0  0.049889  0.078653  0  3.937452  0
C  C80  1  0.55011674  0.89622071  0.23928366  1  0.023224  0  -0.073553  -0.131142  0  3.930158  0
C  C81  1  0.05011323  0.89621673  0.26071260  1  0.022981  0  -0.073459  -0.130849  0  3.930565  0
C  C82  1  0.94988156  0.39622361  0.23927881  1  0.022708  0  -0.073494  -0.130968  0  3.93021  0
C  C83  1  0.55011587  0.60378212  0.73927085  1  0.022502  0  -0.073472  -0.130882  0  3.930055  0
C  C84  1  0.44987861  0.10377908  0.76071389  1  0.02239  0  -0.073405  -0.130817  0  3.930279  0
C  C85  1  0.94988932  0.10378175  0.73929018  1  0.022027  0  -0.073552  -0.131121  0  3.930089  0
C  C86  1  0.05011739  0.60377879  0.76071744  1  0.022791  0  -0.073441  -0.130873  0  3.930268  0
C  C87  1  0.44988596  0.39621832  0.26072278  1  0.022288  0  -0.073507  -0.130921  0  3.930292  0
C  C88  1  0.51480815  0.97988262  0.25715268  1  -0.06748  0  0.008216  0.022268  0  3.93923  0
C  C89  1  0.01480894  0.97987515  0.24284524  1  -0.067212  0  0.008153  0.022001  0  3.93972  0
C  C90  1  0.98519139  0.47988350  0.25715177  1  -0.067634  0  0.008272  0.022312  0  3.939242  0
C  C91  1  0.51481325  0.52012049  0.75714996  1  -0.06744  0  0.008149  0.022076  0  3.93926  0
C  C92  1  0.48518576  0.02011913  0.74284684  1  -0.066944  0  0.008157  0.022095  0  3.939394  0
C  C93  1  0.98519792  0.02011612  0.75715624  1  -0.066534  0  0.00817  0.022172  0  3.939029  0
C  C94  1  0.01481116  0.52011891  0.74284775  1  -0.067349  0  0.008181  0.022219  0  3.939341  0
C  C95  1  0.48519433  0.47987865  0.24284956  1  -0.067226  0  0.008155  0.022004  0  3.939485  0
C  C96  1  0.41861911  0.98960773  0.28264581  1  0.007159  0  -0.067076  -0.124114  0  3.886256  0
C  C97  1  0.91861613  0.98960425  0.21735713  1  0.007242  0  -0.06707  -0.124157  0  3.886213  0
C  C98  1  0.08137482  0.48960807  0.28265111  1  0.006927  0  -0.067117  -0.124238  0  3.886513  0
C  C99  1  0.41862711  0.51039259  0.78264624  1  0.006746  0  -0.067033  -0.124089  0  3.886416  0
C  C100  1  0.58138056  0.01039009  0.71735306  1  0.006862  0  -0.067058  -0.124173  0  3.886259  0
C  C101  1  0.08138497  0.01039227  0.78264827  1  0.007321  0  -0.067014  -0.124021  0  3.886354  0
C  C102  1  0.91862341  0.51039172  0.71734514  1  0.007418  0  -0.067093  -0.1242  0  3.88622  0
C  C103  1  0.58138191  0.48960392  0.21735655  1  0.007252  0  -0.067046  -0.12415  0  3.886429  0
C  C104  1  0.36125209  0.91505792  0.28874553  1  0.422778  0  0.057079  0.086167  0  3.915106  0
C  C105  1  0.86125415  0.91505174  0.21124664  1  0.422918  0  0.057045  0.086291  0  3.915126  0
C  C106  1  0.13874347  0.41505880  0.28873715  1  0.423255  0  0.056993  0.08626  0  3.915413  0
C  C107  1  0.36125630  0.58493865  0.78874230  1  0.423242  0  0.057004  0.086214  0  3.915305  0
C  C108  1  0.63873894  0.08494187  0.71125660  1  0.423191  0  0.056975  0.086231  0  3.915586  0
C  C109  1  0.13875128  0.08493822  0.78874764  1  0.422604  0  0.057  0.086106  0  3.915429  0
C  C110  1  0.86125619  0.58494099  0.71125518  1  0.422692  0  0.057015  0.08617  0  3.91529  0
C  C111  1  0.63874697  0.41505458  0.21125657  1  0.422863  0  0.057068  0.086354  0  3.915278  0
C  C112  1  0.57862182  0.05836455  0.24551864  1  1.544109  0  0.208604  0.534829  0  4.233163  0
C  C113  1  0.07862693  0.05835394  0.25448309  1  1.544093  0  0.208587  0.534849  0  4.232899  0
C  C114  1  0.92137232  0.55836290  0.24551595  1  1.544056  0  0.208596  0.53483  0  4.232948  0
C  C115  1  0.57863087  0.44164094  0.74551650  1  1.544289  0  0.208567  0.534813  0  4.232875  0
C  C116  1  0.42137281  0.94164113  0.75448480  1  1.543989  0  0.20847  0.53469  0  4.232878  0
C  C117  1  0.92138281  0.94163602  0.74552101  1  1.54372  0  0.20856  0.534865  0  4.233054  0
C  C118  1  0.07862231  0.44164016  0.75448487  1  1.543727  0  0.20847  0.534638  0  4.233026  0
C  C119  1  0.42137455  0.55836015  0.25447844  1  1.543742  0  0.208697  0.535161  0  4.232846  0
C  C120  1  0.08442827  0.21638718  0.96916128  1  0.450701  0  0.056845  0.086853  0  3.937886  0
C  C121  1  0.58442083  0.21638866  0.53084388  1  0.451041  0  0.056848  0.086796  0  3.938401  0
C  C122  1  0.41556831  0.71638423  0.96916120  1  0.450872  0  0.056845  0.086992  0  3.937763  0
C  C123  1  0.08442727  0.28361407  0.46917009  1  0.450917  0  0.05695  0.086929  0  3.937919  0
C  C124  1  0.91557500  0.78361195  0.03083759  1  0.450875  0  0.056852  0.086738  0  3.938067  0
C  C125  1  0.41558171  0.78361571  0.46916348  1  0.450838  0  0.05684  0.086821  0  3.938168  0
C  C126  1  0.58442847  0.28362014  0.03083897  1  0.450792  0  0.056812  0.086883  0  3.937845  0
C  C127  1  0.91557599  0.71639750  0.53083988  1  0.450972  0  0.056899  0.086814  0  3.938249  0
C  C128  1  0.00700143  0.19618589  0.02305803  1  0.022491  0  -0.062303  -0.114037  0  3.892636  0
C  C129  1  0.50699433  0.19618159  0.47694337  1  0.022281  0  -0.062235  -0.1139  0  3.892569  0
C  C130  1  0.49299521  0.69618017  0.02305867  1  0.021969  0  -0.062323  -0.113902  0  3.892621  0
C  C131  1  0.00698853  0.30381802  0.52305093  1  0.022084  0  -0.06231  -0.113857  0  3.892822  0
C  C132  1  0.99300543  0.80381717  0.97694737  1  0.022248  0  -0.062307  -0.113844  0  3.89274  0
C  C133  1  0.49300965  0.80380903  0.52305419  1  0.022384  0  -0.062339  -0.114022  0  3.893  0
C  C134  1  0.50700446  0.30381634  0.97693889  1  0.022313  0  -0.062336  -0.113984  0  3.892747  0
C  C135  1  0.99300826  0.69619487  0.47694532  1  0.022665  0  -0.062307  -0.113941  0  3.892769  0
C  C136  1  0.93504637  0.25898184  0.03529906  1  -0.034608  0  0.014554  0.031184  0  3.923736  0
C  C137  1  0.43503796  0.25897965  0.46470606  1  -0.034217  0  0.014509  0.030916  0  3.924251  0
C  C138  1  0.56494854  0.75897301  0.03530132  1  -0.034575  0  0.014538  0.031108  0  3.924027  0
C  C139  1  0.93503866  0.24102307  0.53529905  1  -0.034692  0  0.01453  0.030865  0  3.924161  0
C  C140  1  0.06495906  0.74102122  0.96470372  1  -0.034328  0  0.014549  0.03103  0  3.92384  0
C  C141  1  0.56496170  0.74101293  0.53529934  1  -0.03435  0  0.014494  0.031079  0  3.923852  0
C  C142  1  0.43504537  0.24102285  0.96470016  1  -0.034609  0  0.014558  0.031137  0  3.923911  0
C  C143  1  0.06495885  0.75898785  0.46469851  1  -0.034371  0  0.014578  0.031148  0  3.923732  0
C  C144  1  0.94574165  0.34124195  0.99644856  1  0.036326  0  -0.069419  -0.119631  0  3.922973  0
C  C145  1  0.44573218  0.34124078  0.50355188  1  0.035788  0  -0.069295  -0.119319  0  3.923031  0
C  C146  1  0.55425880  0.84123707  0.99644558  1  0.03628  0  -0.069349  -0.119626  0  3.922971  0
C  C147  1  0.94573378  0.15875603  0.49645193  1  0.036212  0  -0.069401  -0.11946  0  3.922892  0
C  C148  1  0.05425946  0.65875522  0.00355095  1  0.036473  0  -0.069438  -0.11955  0  3.922877  0
C  C149  1  0.55426820  0.65875115  0.49644045  1  0.036032  0  -0.069347  -0.119583  0  3.922898  0
C  C150  1  0.44573942  0.15876337  0.00355525  1  0.03629  0  -0.069382  -0.119581  0  3.923146  0
C  C151  1  0.05426229  0.84125489  0.50354432  1  0.035983  0  -0.069412  -0.119428  0  3.922675  0
C  C152  1  0.02467381  0.35593230  0.94269042  1  0.484816  0  0.05525  0.091654  0  3.943756  0
C  C153  1  0.52466496  0.35593148  0.55731443  1  0.485201  0  0.055098  0.091278  0  3.943832  0
C  C154  1  0.47532599  0.85592727  0.94268451  1  0.484908  0  0.05529  0.091762  0  3.943653  0
C  C155  1  0.02466670  0.14406941  0.44268838  1  0.484814  0  0.055148  0.091326  0  3.943883  0
C  C156  1  0.97532729  0.64406552  0.05730779  1  0.484891  0  0.055208  0.091643  0  3.943609  0
C  C157  1  0.47532751  0.64406569  0.44268966  1  0.485105  0  0.055199  0.091637  0  3.943742  0
C  C158  1  0.52467871  0.14406793  0.05730781  1  0.484873  0  0.055197  0.091545  0  3.943813  0
C  C159  1  0.97533369  0.85594151  0.55731048  1  0.484917  0  0.055193  0.091458  0  3.943832  0
C  C160  1  0.84746751  0.23920570  0.08919535  1  1.562818  0  0.214396  0.548724  0  4.201075  0
C  C161  1  0.34745547  0.23921138  0.41081012  1  1.562219  0  0.214181  0.548539  0  4.201393  0
C  C162  1  0.65252748  0.73920391  0.08920029  1  1.562742  0  0.214334  0.548545  0  4.20138  0
C  C163  1  0.84746047  0.26079151  0.58919818  1  1.562202  0  0.214247  0.548577  0  4.201059  0
C  C164  1  0.15254007  0.76078884  0.91080548  1  1.562673  0  0.214188  0.548459  0  4.201273  0
C  C165  1  0.65253916  0.76078709  0.58919790  1  1.562124  0  0.214273  0.548584  0  4.201187  0
C  C166  1  0.34746643  0.26079588  0.91080315  1  1.562763  0  0.214403  0.548654  0  4.201284  0
C  C167  1  0.15254207  0.73921745  0.41080460  1  1.562001  0  0.214207  0.54844  0  4.201192  0
N  N168  1  0.39636924  0.83452259  0.27212181  1  -1.203812  0  -0.2939  -0.223524  0  3.525286  0
N  N169  1  0.89636483  0.83451988  0.22787529  1  -1.204158  0  -0.293857  -0.223481  0  3.525383  0
N  N170  1  0.10362291  0.33452222  0.27212125  1  -1.203856  0  -0.29383  -0.223576  0  3.525364  0
N  N171  1  0.39636749  0.66547503  0.77211760  1  -1.203878  0  -0.293833  -0.223462  0  3.525206  0
N  N172  1  0.60362826  0.16547523  0.72787836  1  -1.203776  0  -0.293795  -0.223435  0  3.525331  0
N  N173  1  0.10363627  0.16547794  0.77212619  1  -1.203801  0  -0.293829  -0.223427  0  3.525342  0
N  N174  1  0.89636884  0.66547560  0.72787435  1  -1.203793  0  -0.293906  -0.223492  0  3.525322  0
N  N175  1  0.60363578  0.33451952  0.22788519  1  -1.204097  0  -0.293862  -0.223481  0  3.525355  0
N  N176  1  0.09137441  0.29398220  0.92790238  1  -1.201953  0  -0.29206  -0.216254  0  3.490506  0
N  N177  1  0.59137205  0.29398221  0.57209654  1  -1.201979  0  -0.292054  -0.216139  0  3.490841  0
N  N178  1  0.40862625  0.79397468  0.92789511  1  -1.201906  0  -0.292091  -0.216416  0  3.49067  0
N  N179  1  0.09136354  0.20602379  0.42789848  1  -1.201731  0  -0.292086  -0.216194  0  3.490625  0
N  N180  1  0.90862597  0.70601824  0.07209910  1  -1.201903  0  -0.292014  -0.216158  0  3.490414  0
N  N181  1  0.40863122  0.70602020  0.42790102  1  -1.201752  0  -0.292037  -0.216274  0  3.490588  0
N  N182  1  0.59137629  0.20602511  0.07209787  1  -1.201866  0  -0.292011  -0.216259  0  3.490537  0
N  N183  1  0.90863540  0.79399237  0.57210104  1  -1.201871  0  -0.292035  -0.216207  0  3.490967  0
Cl  Cl184  1  0.79426238  0.20921397  0.33512893  1  -0.52642  0  -0.261609  -0.449783  0  0.986266  0
Cl  Cl185  1  0.29425807  0.20922129  0.16487874  1  -0.526423  0  -0.261584  -0.449776  0  0.986434  0
Cl  Cl186  1  0.70573647  0.70922060  0.33512999  1  -0.526422  0  -0.261602  -0.449779  0  0.986258  0
Cl  Cl187  1  0.79426174  0.29078629  0.83513083  1  -0.526365  0  -0.261598  -0.449765  0  0.986244  0
Cl  Cl188  1  0.20573369  0.79077468  0.66487320  1  -0.526447  0  -0.261592  -0.44978  0  0.986286  0
Cl  Cl189  1  0.70574303  0.79077719  0.83512666  1  -0.52637  0  -0.261583  -0.449774  0  0.986327  0
Cl  Cl190  1  0.29426175  0.29077919  0.66487541  1  -0.526399  0  -0.261593  -0.449788  0  0.986379  0
Cl  Cl191  1  0.20573720  0.70922856  0.16487457  1  -0.526333  0  -0.26158  -0.449767  0  0.986357  0
O  O192  1  0.65690401  0.04811541  0.20246617  1  -1.107757  0  -0.285308  -0.503581  0  2.153512  0
O  O193  1  0.15690700  0.04810794  0.29754007  1  -1.10795  0  -0.285294  -0.503569  0  2.153181  0
O  O194  1  0.84309156  0.54812046  0.20245950  1  -1.107928  0  -0.285316  -0.503544  0  2.153455  0
O  O195  1  0.65691088  0.45188614  0.70246089  1  -1.108064  0  -0.285249  -0.50352  0  2.153324  0
O  O196  1  0.34308774  0.95188700  0.79754381  1  -1.108018  0  -0.285227  -0.5035  0  2.153083  0
O  O197  1  0.84309915  0.95188792  0.70247252  1  -1.107708  0  -0.285252  -0.503561  0  2.153557  0
O  O198  1  0.15690955  0.45188588  0.79754002  1  -1.107856  0  -0.285264  -0.503523  0  2.153306  0
O  O199  1  0.34309311  0.54811430  0.29753274  1  -1.107745  0  -0.285322  -0.50369  0  2.153505  0
O  O200  1  0.55081941  0.13177772  0.27476173  1  -1.128278  0  -0.283836  -0.519568  0  2.213924  0
O  O201  1  0.05081803  0.13176742  0.22524610  1  -1.128087  0  -0.28385  -0.519578  0  2.213886  0
O  O202  1  0.94917312  0.63177733  0.27476103  1  -1.128333  0  -0.283831  -0.519616  0  2.213786  0
O  O203  1  0.55082650  0.36822687  0.77475608  1  -1.128271  0  -0.283864  -0.5196  0  2.213802  0
O  O204  1  0.44916586  0.86822469  0.72524301  1  -1.128454  0  -0.283815  -0.519535  0  2.213823  0
O  O205  1  0.94918739  0.86822124  0.77476126  1  -1.128227  0  -0.283842  -0.519625  0  2.213781  0
O  O206  1  0.05082655  0.36822312  0.72524045  1  -1.128195  0  -0.283779  -0.519482  0  2.213746  0
O  O207  1  0.44918181  0.63177423  0.22524344  1  -1.128097  0  -0.283913  -0.519745  0  2.213784  0
O  O208  1  0.83003000  0.15999620  0.10954803  1  -1.099534  0  -0.28212  -0.500516  0  2.161767  0
O  O209  1  0.33000931  0.16000163  0.39045972  1  -1.100068  0  -0.281916  -0.500401  0  2.161983  0
O  O210  1  0.66996881  0.65999044  0.10955037  1  -1.099505  0  -0.282154  -0.500509  0  2.16185  0
O  O211  1  0.83001628  0.34000194  0.60954269  1  -1.099801  0  -0.281958  -0.50039  0  2.161959  0
O  O212  1  0.16998406  0.83999769  0.89045672  1  -1.100088  0  -0.28196  -0.500405  0  2.16202  0
O  O213  1  0.66998316  0.84000012  0.60954241  1  -1.100083  0  -0.281952  -0.500457  0  2.161878  0
O  O214  1  0.33003013  0.34001000  0.89044980  1  -1.099502  0  -0.282152  -0.500494  0  2.161758  0
O  O215  1  0.16997979  0.66000832  0.39045225  1  -1.100175  0  -0.281903  -0.500357  0  2.162048  0
O  O216  1  0.79464288  0.30328040  0.11302258  1  -1.138298  0  -0.290507  -0.533678  0  2.203332  0
O  O217  1  0.29463370  0.30328579  0.38697840  1  -1.137192  0  -0.29044  -0.533495  0  2.203186  0
O  O218  1  0.70535628  0.80327326  0.11302038  1  -1.138134  0  -0.290366  -0.533461  0  2.20357  0
O  O219  1  0.79463241  0.19671785  0.61302921  1  -1.137053  0  -0.290463  -0.533517  0  2.202948  0
O  O220  1  0.20536254  0.69671415  0.88697628  1  -1.137755  0  -0.290395  -0.533428  0  2.203204  0
O  O221  1  0.70536596  0.69671596  0.61302047  1  -1.137165  0  -0.290474  -0.533523  0  2.203229  0
O  O222  1  0.29464338  0.19672325  0.88698176  1  -1.13823  0  -0.290408  -0.533537  0  2.203547  0
O  O223  1  0.20537085  0.80328914  0.38697619  1  -1.136932  0  -0.290498  -0.533544  0  2.203143  0
