# generated using pymatgen
data_Cd2H10C17O12
_symmetry_space_group_name_H-M   'P 1'
_cell_length_a   10.25885102
_cell_length_b   10.25879279
_cell_length_c   20.56333933
_cell_angle_alpha   101.46751471
_cell_angle_beta   101.46782122
_cell_angle_gamma   90.43026792
_symmetry_Int_Tables_number   1
_chemical_formula_structural   Cd2H10C17O12
_chemical_formula_sum   'Cd8 H40 C68 O48'
_cell_volume   2076.11879066
_cell_formula_units_Z   4
loop_
 _symmetry_equiv_pos_site_id
 _symmetry_equiv_pos_as_xyz
  1  'x, y, z'
loop_
 _atom_site_type_symbol
 _atom_site_label
 _atom_site_symmetry_multiplicity
 _atom_site_fract_x
 _atom_site_fract_y
 _atom_site_fract_z
 _atom_site_occupancy
 _atom_site_pbe_bader_charge
 _atom_site_pbe_bader_spin_density
 _atom_site_pbe_cm5_charge
 _atom_site_pbe_ddec_charge
 _atom_site_pbe_ddec_spin_density
 _atom_site_pbe_ddec_sum_bond_order
 _atom_site_pbe_magmom
Cd  Cd0  1  0.34447530  0.49439619  0.32283063  1  1.333613  0  0.762547  1.041197  0  2.051776  0
Cd  Cd1  1  0.50554704  0.65554893  0.17717677  1  1.334104  0  0.762585  1.041106  0  2.051734  0
Cd  Cd2  1  0.65553025  0.50559458  0.67717096  1  1.333742  0  0.762558  1.041197  0  2.051791  0
Cd  Cd3  1  0.49445614  0.34445858  0.82282529  1  1.334145  0  0.762629  1.041174  0  2.051718  0
Cd  Cd4  1  0.23863344  0.32324728  0.57361382  1  1.330987  0  0.823238  1.074726  0  1.896981  0
Cd  Cd5  1  0.67671448  0.76130902  0.92636368  1  1.330884  0  0.823135  1.074615  0  1.897044  0
Cd  Cd6  1  0.76136694  0.67675208  0.42638568  1  1.330952  0  0.82322  1.074649  0  1.897021  0
Cd  Cd7  1  0.32328123  0.23871883  0.07364405  1  1.330844  0  0.823164  1.074641  0  1.897001  0
H  H8  1  0.46423178  0.59103114  0.45993656  1  0.637374  0  0.29043  0.383019  0  0.958535  0
H  H9  1  0.40896677  0.53578318  0.04006375  1  0.637558  0  0.290349  0.382758  0  0.958853  0
H  H10  1  0.53576376  0.40896090  0.54006465  1  0.637325  0  0.290391  0.38295  0  0.958652  0
H  H11  1  0.59104011  0.46423654  0.95993942  1  0.637318  0  0.290374  0.382953  0  0.958631  0
H  H12  1  0.37850889  0.45988218  0.45780736  1  0.649932  0  0.29115  0.384318  0  0.955883  0
H  H13  1  0.54010477  0.62152822  0.04221214  1  0.650226  0  0.291074  0.384125  0  0.956071  0
H  H14  1  0.62148867  0.54010901  0.54219397  1  0.650049  0  0.291082  0.384134  0  0.956124  0
H  H15  1  0.45989708  0.37849312  0.95779312  1  0.650088  0  0.291049  0.384142  0  0.956079  0
H  H16  1  0.14067258  0.30005348  0.69111711  1  0.641199  0  0.341239  0.437649  0  0.827441  0
H  H17  1  0.69997797  0.85940432  0.80890988  1  0.641285  0  0.341209  0.437578  0  0.827666  0
H  H18  1  0.85934289  0.69993898  0.30888954  1  0.641107  0  0.341251  0.437657  0  0.827405  0
H  H19  1  0.30002752  0.14058943  0.19109103  1  0.641213  0  0.341263  0.437675  0  0.82747  0
H  H20  1  0.29083778  0.25685079  0.69001917  1  0.657911  0  0.29495  0.39453  0  0.948557  0
H  H21  1  0.74317258  0.70922189  0.80997251  1  0.658024  0  0.294855  0.394507  0  0.948531  0
H  H22  1  0.70917470  0.74314349  0.30997569  1  0.65797  0  0.294979  0.394644  0  0.94842  0
H  H23  1  0.25681994  0.29077091  0.19003285  1  0.658024  0  0.294892  0.394599  0  0.948369  0
H  H24  1  0.57094274  0.29538189  0.44013424  1  0.092194  0  0.104412  0.104007  0  1.034668  0
H  H25  1  0.70458273  0.42905927  0.05986739  1  0.091959  0  0.104418  0.104036  0  1.034604  0
H  H26  1  0.42904890  0.70460689  0.55986382  1  0.09234  0  0.104438  0.104001  0  1.034696  0
H  H27  1  0.29541850  0.57094713  0.94012901  1  0.09196  0  0.104395  0.103979  0  1.034623  0
H  H28  1  0.32627089  0.93675559  0.41080681  1  0.130976  0  0.114812  0.126842  0  0.988224  0
H  H29  1  0.06322365  0.67371975  0.08920550  1  0.131014  0  0.114856  0.126994  0  0.988212  0
H  H30  1  0.67373683  0.06322736  0.58919714  1  0.130652  0  0.114808  0.126883  0  0.988283  0
H  H31  1  0.93677950  0.32628875  0.91079714  1  0.131111  0  0.114881  0.12704  0  0.988199  0
H  H32  1  0.85226314  0.47501234  0.31836965  1  0.078503  0  0.09648  0.08914  0  1.066766  0
H  H33  1  0.52496923  0.14778890  0.18166461  1  0.07959  0  0.096455  0.089064  0  1.066816  0
H  H34  1  0.14773419  0.52498877  0.68163313  1  0.078552  0  0.096469  0.089125  0  1.066777  0
H  H35  1  0.47503703  0.85221385  0.81834118  1  0.079654  0  0.09644  0.089069  0  1.066852  0
H  H36  1  0.65289463  0.93899658  0.30832170  1  0.098107  0  0.107817  0.108967  0  1.037414  0
H  H37  1  0.06095876  0.34708302  0.19168108  1  0.098166  0  0.107849  0.109021  0  1.037354  0
H  H38  1  0.34710491  0.06099575  0.69167847  1  0.098139  0  0.107825  0.108985  0  1.037361  0
H  H39  1  0.93903658  0.65291897  0.80831576  1  0.098071  0  0.107833  0.109002  0  1.037368  0
H  H40  1  0.86886385  0.02843881  0.37635943  1  0.068152  0  0.105448  0.116132  0  0.998252  0
H  H41  1  0.97146315  0.13111396  0.12359058  1  0.068297  0  0.105449  0.116013  0  0.99823  0
H  H42  1  0.13113367  0.97155539  0.62363538  1  0.06819  0  0.105437  0.116114  0  0.998285  0
H  H43  1  0.02853512  0.86889124  0.87640298  1  0.068342  0  0.105409  0.116012  0  0.998216  0
H  H44  1  0.07227363  0.13502806  0.35629104  1  0.115763  0  0.107946  0.118793  0  0.99083  0
H  H45  1  0.86486247  0.92771035  0.14366877  1  0.114947  0  0.107998  0.118999  0  0.991038  0
H  H46  1  0.92772477  0.86497016  0.64370913  1  0.115708  0  0.107951  0.118807  0  0.990818  0
H  H47  1  0.13514079  0.07229420  0.85632959  1  0.114826  0  0.108003  0.118942  0  0.990999  0
C  C48  1  0.61514368  0.39346678  0.33618892  1  1.544623  0  0.210236  0.599846  0  4.185988  0
C  C49  1  0.60654675  0.38492356  0.16385907  1  1.545883  0  0.210257  0.599663  0  4.186216  0
C  C50  1  0.38485478  0.60652845  0.66381485  1  1.544603  0  0.210267  0.599856  0  4.185806  0
C  C51  1  0.39345436  0.61508679  0.83614404  1  1.545916  0  0.210262  0.599775  0  4.18629  0
C  C52  1  0.54712858  0.19144991  0.41548876  1  0.009243  0  -0.069159  -0.103447  0  3.878806  0
C  C53  1  0.80851435  0.45287723  0.08450847  1  0.009179  0  -0.069119  -0.103285  0  3.878242  0
C  C54  1  0.45286602  0.80854108  0.58450787  1  0.008947  0  -0.06915  -0.103421  0  3.878624  0
C  C55  1  0.19148497  0.54712505  0.91548734  1  0.009292  0  -0.069097  -0.103188  0  3.878385  0
C  C56  1  0.74399251  0.19142991  0.35898702  1  0.007105  0  0.000725  0.05707  0  3.9481  0
C  C57  1  0.80852600  0.25601508  0.14101374  1  0.005695  0  0.000795  0.057363  0  3.948595  0
C  C58  1  0.25600191  0.80856802  0.64101272  1  0.007204  0  0.000756  0.057242  0  3.948227  0
C  C59  1  0.19147227  0.74399011  0.85898079  1  0.006178  0  0.000811  0.057282  0  3.948848  0
C  C60  1  0.40912510  0.98972584  0.39990817  1  0.023764  0  -0.0635  -0.080978  0  3.890948  0
C  C61  1  0.01024888  0.59086195  0.10009608  1  0.023363  0  -0.063512  -0.081264  0  3.890934  0
C  C62  1  0.59087550  0.01026358  0.60009182  1  0.023905  0  -0.063487  -0.081053  0  3.890849  0
C  C63  1  0.98975343  0.40914054  0.89990101  1  0.023226  0  -0.063572  -0.081313  0  3.891007  0
C  C64  1  0.43850039  0.12479480  0.42870382  1  -0.044564  0  -0.01377  -0.028534  0  3.984091  0
C  C65  1  0.87518399  0.56150070  0.07129919  1  -0.044382  0  -0.013719  -0.028441  0  3.98404  0
C  C66  1  0.56149820  0.87519547  0.57129557  1  -0.044493  0  -0.013744  -0.02841  0  3.983878  0
C  C67  1  0.12481624  0.43850462  0.92870284  1  -0.044468  0  -0.013748  -0.028539  0  3.98419  0
C  C68  1  0.62643234  0.12520833  0.37259598  1  -0.036304  0  -0.003278  0.071555  0  3.99986  0
C  C69  1  0.87475268  0.37356925  0.12740363  1  -0.036438  0  -0.003398  0.071292  0  3.999852  0
C  C70  1  0.37356031  0.87478054  0.62739976  1  -0.036561  0  -0.003229  0.071465  0  4.000079  0
C  C71  1  0.12524851  0.62643813  0.87259578  1  -0.036923  0  -0.003306  0.071437  0  3.999895  0
C  C72  1  0.74054903  0.31908899  0.34293338  1  -0.002127  0  -0.021556  -0.086817  0  3.965746  0
C  C73  1  0.68088583  0.25948477  0.15707948  1  -0.000468  0  -0.021782  -0.087372  0  3.966336  0
C  C74  1  0.25945035  0.68091030  0.65706699  1  -0.002159  0  -0.021587  -0.086887  0  3.965697  0
C  C75  1  0.31911446  0.74051856  0.84292042  1  -0.000922  0  -0.021749  -0.087477  0  3.966569  0
C  C76  1  0.85610103  0.37863847  0.33313490  1  -0.067295  0  -0.094873  -0.143086  0  4.01041  0
C  C77  1  0.62132392  0.14393924  0.16688571  1  -0.06826  0  -0.094879  -0.142765  0  4.010086  0
C  C78  1  0.14389932  0.62136187  0.66686665  1  -0.067095  0  -0.094859  -0.143073  0  4.010411  0
C  C79  1  0.37867838  0.85606324  0.83311381  1  -0.06828  0  -0.094845  -0.142701  0  4.010116  0
C  C80  1  0.59453191  0.99099687  0.34324147  1  0.062286  0  -0.069501  -0.106638  0  3.890709  0
C  C81  1  0.00896231  0.40544532  0.15675906  1  0.061995  0  -0.069383  -0.10653  0  3.890769  0
C  C82  1  0.40546173  0.00899206  0.65675486  1  0.06235  0  -0.069431  -0.106507  0  3.890678  0
C  C83  1  0.99103910  0.59455313  0.84323754  1  0.06233  0  -0.069385  -0.10654  0  3.890678  0
C  C84  1  0.48782604  0.92291907  0.35703806  1  -0.077488  0  -0.020493  -0.043338  0  3.996477  0
C  C85  1  0.07704230  0.51215549  0.14297376  1  -0.076945  0  -0.020639  -0.043239  0  3.995807  0
C  C86  1  0.51217451  0.07707234  0.64296358  1  -0.077223  0  -0.0206  -0.043454  0  3.996371  0
C  C87  1  0.92295507  0.48784466  0.85702358  1  -0.076668  0  -0.020657  -0.043331  0  3.995921  0
C  C88  1  0.46149073  0.77781485  0.32678936  1  1.550537  0  0.211316  0.582768  0  4.192153  0
C  C89  1  0.22214826  0.53849435  0.17321976  1  1.55041  0  0.211283  0.582651  0  4.192147  0
C  C90  1  0.53850091  0.22217493  0.67320540  1  1.550486  0  0.211247  0.582686  0  4.191831  0
C  C91  1  0.77785209  0.46150601  0.82678033  1  1.550384  0  0.211308  0.582681  0  4.192081  0
C  C92  1  0.97594618  0.31374850  0.33796346  1  -0.013683  0  -0.024127  -0.030589  0  3.984998  0
C  C93  1  0.68617662  0.02407159  0.16202712  1  -0.01375  0  -0.024096  -0.030474  0  3.985527  0
C  C94  1  0.02405521  0.68624993  0.66203800  1  -0.013946  0  -0.024126  -0.03047  0  3.985022  0
C  C95  1  0.31382368  0.97593175  0.83797131  1  -0.013178  0  -0.024168  -0.030611  0  3.985345  0
C  C96  1  0.35805339  0.19766747  0.47519593  1  1.500537  0  0.210616  0.578078  0  4.163534  0
C  C97  1  0.80231668  0.64193097  0.02479453  1  1.500309  0  0.210511  0.578032  0  4.16315  0
C  C98  1  0.64194228  0.80231961  0.52480285  1  1.500649  0  0.210553  0.578063  0  4.163412  0
C  C99  1  0.19768750  0.35807663  0.97520424  1  1.500193  0  0.210615  0.578229  0  4.163456  0
C  C100  1  0.86479880  0.12649012  0.36324104  1  -0.029608  0  -0.084515  -0.119917  0  3.951813  0
C  C101  1  0.87343021  0.13517969  0.13672726  1  -0.030368  0  -0.084582  -0.119799  0  3.951755  0
C  C102  1  0.13519863  0.87350804  0.63675416  1  -0.030012  0  -0.084459  -0.11989  0  3.951471  0
C  C103  1  0.12656808  0.86482451  0.86326815  1  -0.030398  0  -0.084672  -0.119919  0  3.951856  0
C  C104  1  0.97904547  0.18591372  0.35253047  1  -0.044712  0  -0.080877  -0.081064  0  3.958796  0
C  C105  1  0.81400161  0.02094224  0.14745000  1  -0.042988  0  -0.080823  -0.081431  0  3.959302  0
C  C106  1  0.02095099  0.81408237  0.64746929  1  -0.044215  0  -0.080937  -0.081214  0  3.958498  0
C  C107  1  0.18599670  0.97906096  0.85254725  1  -0.043596  0  -0.080738  -0.081184  0  3.959025  0
C  C108  1  0.91665998  0.39873314  0.52878798  1  2.157403  0  0.386873  0.766807  0  4.078535  0
C  C109  1  0.60133400  0.08334514  0.97126607  1  2.157375  0  0.3871  0.76717  0  4.078553  0
C  C110  1  0.08334550  0.60126264  0.47120196  1  2.157227  0  0.386805  0.766687  0  4.078496  0
C  C111  1  0.39865215  0.91666715  0.02872552  1  2.157985  0  0.386889  0.766866  0  4.078822  0
C  C112  1  0.09936679  0.38324954  0.32971581  1  1.531054  0  0.17943  0.550288  0  4.261312  0
C  C113  1  0.61664664  0.90066340  0.17027026  1  1.526982  0  0.179323  0.550027  0  4.262381  0
C  C114  1  0.90063470  0.61674493  0.67028234  1  1.530502  0  0.17938  0.550159  0  4.261468  0
C  C115  1  0.38336253  0.09934355  0.82973429  1  1.526941  0  0.179398  0.550052  0  4.262227  0
O  O116  1  0.37691061  0.54319066  0.44043458  1  -1.255438  0  -0.592788  -0.757525  0  2.101702  0
O  O117  1  0.45678575  0.62311329  0.05957122  1  -1.255959  0  -0.592712  -0.75707  0  2.10201  0
O  O118  1  0.62308793  0.45680159  0.55956695  1  -1.255574  0  -0.592731  -0.757332  0  2.101858  0
O  O119  1  0.54321419  0.37690494  0.94043110  1  -1.25559  0  -0.592696  -0.757327  0  2.101758  0
O  O120  1  0.97710086  0.30890536  0.54469128  1  -1.076718  0  -0.163151  -0.358478  0  2.242669  0
O  O121  1  0.69114931  0.02288640  0.95537844  1  -1.07701  0  -0.163319  -0.358644  0  2.243015  0
O  O122  1  0.02291262  0.69109002  0.45529553  1  -1.076616  0  -0.163069  -0.358356  0  2.242668  0
O  O123  1  0.30883192  0.97712153  0.04462049  1  -1.077112  0  -0.163196  -0.358508  0  2.242775  0
O  O124  1  0.85985772  0.48723479  0.50984621  1  -1.094302  0  -0.162364  -0.370651  0  2.321995  0
O  O125  1  0.51281764  0.14017642  0.99018426  1  -1.09389  0  -0.162408  -0.370873  0  2.321582  0
O  O126  1  0.14013678  0.51276017  0.49015130  1  -1.094226  0  -0.162397  -0.370651  0  2.321904  0
O  O127  1  0.48716434  0.85984454  0.00980390  1  -1.094411  0  -0.162306  -0.370695  0  2.321947  0
O  O128  1  0.50747973  0.33818736  0.29993837  1  -1.136731  0  -0.303232  -0.512706  0  2.181812  0
O  O129  1  0.66185902  0.49257763  0.20010600  1  -1.137312  0  -0.303354  -0.512932  0  2.182333  0
O  O130  1  0.49252071  0.66180901  0.70006327  1  -1.136806  0  -0.303261  -0.512761  0  2.181777  0
O  O131  1  0.33815015  0.50742831  0.79990088  1  -1.137184  0  -0.303313  -0.512918  0  2.182356  0
O  O132  1  0.61944945  0.51380648  0.36998655  1  -1.165259  0  -0.340937  -0.611376  0  2.407449  0
O  O133  1  0.48619979  0.38066035  0.13006334  1  -1.166196  0  -0.340866  -0.611116  0  2.407122  0
O  O134  1  0.38054498  0.48619045  0.63001650  1  -1.165321  0  -0.340935  -0.611372  0  2.407469  0
O  O135  1  0.51380225  0.61935305  0.86994016  1  -1.166315  0  -0.340893  -0.611175  0  2.407158  0
O  O136  1  0.20020230  0.31365412  0.32142165  1  -1.159062  0  -0.344206  -0.569395  0  2.147347  0
O  O137  1  0.68623143  0.79981355  0.17855050  1  -1.15703  0  -0.343883  -0.56894  0  2.147736  0
O  O138  1  0.79979832  0.68633431  0.67857873  1  -1.158695  0  -0.344142  -0.569347  0  2.147368  0
O  O139  1  0.31377382  0.20019114  0.82144905  1  -1.156999  0  -0.343929  -0.569012  0  2.147545  0
O  O140  1  0.19602184  0.24851731  0.66292504  1  -1.21728  0  -0.558486  -0.741549  0  2.055706  0
O  O141  1  0.75149726  0.80401796  0.83708795  1  -1.21768  0  -0.558301  -0.741335  0  2.056019  0
O  O142  1  0.80398458  0.75147950  0.33707530  1  -1.217256  0  -0.558498  -0.741615  0  2.055565  0
O  O143  1  0.24849924  0.19597613  0.16291501  1  -1.217664  0  -0.558408  -0.741533  0  2.055732  0
O  O144  1  0.26784322  0.13813260  0.49465650  1  -1.120611  0  -0.314337  -0.533456  0  2.127385  0
O  O145  1  0.86186080  0.73212660  0.00533046  1  -1.121142  0  -0.314347  -0.533447  0  2.12727  0
O  O146  1  0.73215843  0.86185390  0.50534670  1  -1.120815  0  -0.314353  -0.533484  0  2.127508  0
O  O147  1  0.13814508  0.26789303  0.99467600  1  -1.120891  0  -0.314388  -0.533502  0  2.12739  0
O  O148  1  0.54658380  0.71905576  0.29380957  1  -1.195339  0  -0.336754  -0.622072  0  2.415907  0
O  O149  1  0.28090915  0.45338721  0.20619757  1  -1.194928  0  -0.336671  -0.622088  0  2.415859  0
O  O150  1  0.45341175  0.28093628  0.70619067  1  -1.195289  0  -0.336719  -0.622014  0  2.415633  0
O  O151  1  0.71908930  0.54660903  0.79380241  1  -1.194934  0  -0.336693  -0.622061  0  2.415846  0
O  O152  1  0.36022992  0.71959802  0.33640422  1  -1.141202  0  -0.309376  -0.513896  0  2.234324  0
O  O153  1  0.28035917  0.63977593  0.16363210  1  -1.140785  0  -0.309306  -0.513807  0  2.234806  0
O  O154  1  0.63977059  0.28039437  0.66359995  1  -1.140986  0  -0.30935  -0.513861  0  2.234217  0
O  O155  1  0.71964217  0.36022449  0.83636858  1  -1.140807  0  -0.309293  -0.513779  0  2.234769  0
O  O156  1  0.38274719  0.32434511  0.49814813  1  -1.191973  0  -0.321001  -0.585448  0  2.324019  0
O  O157  1  0.67563021  0.61725858  0.00185317  1  -1.191381  0  -0.320907  -0.585495  0  2.323911  0
O  O158  1  0.61725240  0.67564523  0.50185137  1  -1.191933  0  -0.320977  -0.585465  0  2.323951  0
O  O159  1  0.32436679  0.38275644  0.99815243  1  -1.191489  0  -0.320992  -0.58562  0  2.324186  0
O  O160  1  0.09947578  0.50837522  0.33285841  1  -1.151458  0  -0.347345  -0.584672  0  2.125422  0
O  O161  1  0.49153393  0.90060511  0.16714260  1  -1.150379  0  -0.347538  -0.584747  0  2.125355  0
O  O162  1  0.90053162  0.49162266  0.66714116  1  -1.151322  0  -0.347392  -0.584642  0  2.125516  0
O  O163  1  0.50847227  0.09940062  0.83286299  1  -1.15032  0  -0.347555  -0.584662  0  2.125451  0
