# generated using pymatgen
data_ZnH18PtC18(N3O)2
_symmetry_space_group_name_H-M   'P 1'
_cell_length_a   8.14884771
_cell_length_b   8.20994181
_cell_length_c   9.02903325
_cell_angle_alpha   105.77654365
_cell_angle_beta   115.20993311
_cell_angle_gamma   99.50702134
_symmetry_Int_Tables_number   1
_chemical_formula_structural   ZnH18PtC18(N3O)2
_chemical_formula_sum   'Zn1 H18 Pt1 C18 N6 O2'
_cell_volume   497.79550083
_cell_formula_units_Z   1
loop_
 _symmetry_equiv_pos_site_id
 _symmetry_equiv_pos_as_xyz
  1  'x, y, z'
loop_
 _atom_site_type_symbol
 _atom_site_label
 _atom_site_symmetry_multiplicity
 _atom_site_fract_x
 _atom_site_fract_y
 _atom_site_fract_z
 _atom_site_occupancy
 _atom_site_hle17_bader_spin_density
 _atom_site_hle17_ddec_charge
 _atom_site_hle17_ddec_spin_density
 _atom_site_hle17_ddec_sum_bond_order
 _atom_site_hle17_magmom
 _atom_site_hse06_10hf_bader_spin_density
 _atom_site_hse06_10hf_ddec_charge
 _atom_site_hse06_10hf_ddec_spin_density
 _atom_site_hse06_10hf_ddec_sum_bond_order
 _atom_site_hse06_10hf_magmom
 _atom_site_hse06_bader_spin_density
 _atom_site_hse06_ddec_charge
 _atom_site_hse06_ddec_spin_density
 _atom_site_hse06_ddec_sum_bond_order
 _atom_site_hse06_magmom
 _atom_site_pbe_bader_spin_density
 _atom_site_pbe_cm5_charge
 _atom_site_pbe_ddec_charge
 _atom_site_pbe_ddec_spin_density
 _atom_site_pbe_ddec_sum_bond_order
 _atom_site_pbe_magmom
Zn  Zn0  1  0.99999860  0.49999975  0.49999777  1  0  1.013493  0  1.92106  0  0  0.830113  0  2.370369  0  0  0.873525  0  2.322109  0  0  0.716255  0.800179  0  2.403155  0
H  H1  1  0.67312844  0.21966823  0.39451166  1  0  0.376607  0  0.931836  0  0  0.343866  0  1.013559  0  0  0.355249  0  0.997175  0  0  0.2931  0.335905  0  1.023823  0
H  H2  1  0.32687075  0.78033233  0.60548758  1  0  0.37656  0  0.931863  0  0  0.34379  0  1.013649  0  0  0.355173  0  0.997266  0  0  0.293072  0.335838  0  1.023896  0
H  H3  1  0.75016948  0.12548814  0.62652810  1  0  0.046321  0  0.926891  0  0  0.060471  0  0.992241  0  0  0.060467  0  0.992688  0  0  0.095848  0.060445  0  0.991951  0
H  H4  1  0.24983062  0.87451508  0.37347327  1  0  0.046306  0  0.926906  0  0  0.060458  0  0.992258  0  0  0.060453  0  0.992706  0  0  0.095857  0.060432  0  0.991966  0
H  H5  1  0.88724853  0.06715694  0.52331431  1  0  0.039815  0  0.922266  0  0  0.054605  0  0.986008  0  0  0.055273  0  0.985701  0  0  0.091669  0.054008  0  0.986384  0
H  H6  1  0.11275112  0.93284495  0.47668544  1  0  0.03979  0  0.922292  0  0  0.054581  0  0.986032  0  0  0.055247  0  0.985724  0  0  0.091644  0.053983  0  0.986406  0
H  H7  1  0.38754501  0.51265650  0.54883731  1  0  0.073909  0  0.96722  0  0  0.081909  0  1.035657  0  0  0.083963  0  1.033794  0  0  0.11593  0.080375  0  1.037044  0
H  H8  1  0.61245554  0.48734405  0.45116245  1  0  0.073928  0  0.967209  0  0  0.081927  0  1.035651  0  0  0.083979  0  1.033787  0  0  0.115943  0.080392  0  1.037039  0
H  H9  1  0.02933351  0.42013811  0.83623979  1  0  0.10433  0  0.927515  0  0  0.12346  0  0.981106  0  0  0.12439  0  0.981746  0  0  0.102829  0.122804  0  0.980655  0
H  H10  1  0.97066615  0.57986378  0.16375885  1  0  0.104314  0  0.927572  0  0  0.123458  0  0.981149  0  0  0.124389  0  0.981789  0  0  0.102814  0.122801  0  0.980699  0
H  H11  1  0.06455997  0.22151595  0.86679607  1  0  0.070715  0  1.006675  0  0  0.067278  0  1.104356  0  0  0.071175  0  1.099479  0  0  0.073704  0.064492  0  1.107734  0
H  H12  1  0.93543969  0.77848594  0.13320368  1  0  0.070714  0  1.00668  0  0  0.067269  0  1.104379  0  0  0.071167  0  1.099503  0  0  0.073694  0.064482  0  1.107755  0
H  H13  1  0.67042608  0.42368135  0.70733299  1  0  0.107646  0  0.963508  0  0  0.116548  0  1.02552  0  0  0.119489  0  1.025198  0  0  0.105875  0.114363  0  1.026038  0
H  H14  1  0.32957401  0.57631787  0.29266516  1  0  0.107657  0  0.963469  0  0  0.116551  0  1.025495  0  0  0.119488  0  1.025179  0  0  0.105875  0.114367  0  1.026012  0
H  H15  1  0.36519926  0.20016704  0.93468723  1  0  0.112205  0  0.959872  0  0  0.120803  0  1.021736  0  0  0.123403  0  1.022081  0  0  0.104429  0.118957  0  1.021643  0
H  H16  1  0.63479813  0.79983219  0.06530876  1  0  0.112178  0  0.959849  0  0  0.120784  0  1.021706  0  0  0.123384  0  1.022052  0  0  0.104413  0.118937  0  1.021613  0
H  H17  1  0.65760209  0.26102738  0.90620704  1  0  0.09548  0  0.946483  0  0  0.107362  0  1.004124  0  0  0.109025  0  1.003588  0  0  0.1058  0.106126  0  1.004545  0
H  H18  1  0.34239754  0.73897049  0.09379169  1  0  0.095439  0  0.94653  0  0  0.107323  0  1.00418  0  0  0.108987  0  1.003642  0  0  0.10576  0.106087  0  1.004601  0
Pt  Pt19  1  0.00000109  0.99999550  0.00000302  1  0  0.083003  0  4.147819  0  0  0.136655  0  4.697226  0  0  0.123301  0  4.673546  0  0  0.559914  0.147669  0  4.711907  0
C  C20  1  0.28124323  0.07458657  0.15387955  1  0  0.068343  0  3.641299  0  0  0.034684  0  3.990878  0  0  0.046003  0  3.999479  0  0  -0.004298  0.02663  0  3.984772  0
C  C21  1  0.71874186  0.92540460  0.84611519  1  0  0.06829  0  3.642167  0  0  0.034636  0  3.991724  0  0  0.045944  0  4.000329  0  0  -0.004208  0.026587  0  3.985616  0
C  C22  1  0.01430390  0.80060318  0.82997173  1  0  0.105025  0  3.586064  0  0  0.069685  0  3.924994  0  0  0.083857  0  3.932456  0  0  0.005768  0.059543  0  3.919862  0
C  C23  1  0.98569659  0.19939333  0.17003142  1  0  0.105128  0  3.58607  0  0  0.0698  0  3.924981  0  0  0.08397  0  3.932442  0  0  0.00583  0.059662  0  3.919847  0
C  C24  1  0.86374354  0.18087480  0.60118806  1  0  0.171478  0  3.615094  0  0  0.113771  0  3.886525  0  0  0.121393  0  3.89217  0  0  -0.070778  0.108613  0  3.882548  0
C  C25  1  0.13625611  0.81912708  0.39881169  1  0  0.171525  0  3.615183  0  0  0.113825  0  3.886623  0  0  0.121451  0  3.892264  0  0  -0.070769  0.108669  0  3.882639  0
C  C26  1  0.38977513  0.44455360  0.63723957  1  0  0.137373  0  3.712792  0  0  0.104513  0  3.963707  0  0  0.111727  0  3.983227  0  0  0.044443  0.09997  0  3.950313  0
C  C27  1  0.61022315  0.55544428  0.36275754  1  0  0.137359  0  3.712809  0  0  0.104508  0  3.963714  0  0  0.111726  0  3.983228  0  0  0.044437  0.099964  0  3.950323  0
C  C28  1  0.22442219  0.32837370  0.76079460  1  0  0.267221  0  3.704283  0  0  0.269353  0  3.946268  0  0  0.277321  0  3.968111  0  0  0.121596  0.264113  0  3.931403  0
C  C29  1  0.77557429  0.67162685  0.23920358  1  0  0.267154  0  3.704312  0  0  0.269302  0  3.946297  0  0  0.277272  0  3.96814  0  0  0.121558  0.264064  0  3.931431  0
C  C30  1  0.04704853  0.29282011  0.77666388  1  0  -0.234855  0  3.716196  0  0  -0.276786  0  3.970747  0  0  -0.280903  0  3.98232  0  0  -0.167073  -0.273784  0  3.96265  0
C  C31  1  0.95295248  0.70718178  0.22333639  1  0  -0.234848  0  3.716222  0  0  -0.27682  0  3.970832  0  0  -0.280939  0  3.982405  0  0  -0.167064  -0.273818  0  3.962733  0
C  C32  1  0.54679487  0.39409275  0.72578163  1  0  -0.130915  0  3.726849  0  0  -0.142667  0  3.977813  0  0  -0.151136  0  4.000175  0  0  -0.087894  -0.137252  0  3.962821  0
C  C33  1  0.45320658  0.60590647  0.27421814  1  0  -0.13095  0  3.726881  0  0  -0.142707  0  3.977861  0  0  -0.151174  0  4.000225  0  0  -0.087888  -0.137292  0  3.96287  0
C  C34  1  0.37572667  0.27042305  0.85099037  1  0  -0.165299  0  3.69517  0  0  -0.180331  0  3.937764  0  0  -0.189111  0  3.960429  0  0  -0.084918  -0.174729  0  3.922586  0
C  C35  1  0.62427343  0.72957617  0.14900778  1  0  -0.165307  0  3.695059  0  0  -0.180347  0  3.93765  0  0  -0.189129  0  3.960319  0  0  -0.084913  -0.174744  0  3.922472  0
C  C36  1  0.53917370  0.30473401  0.83484404  1  0  0.015133  0  3.723116  0  0  -0.004318  0  3.971477  0  0  0.000628  0  3.990025  0  0  -0.06434  -0.007238  0  3.958703  0
C  C37  1  0.46082502  0.69526520  0.16515578  1  0  0.015227  0  3.723004  0  0  -0.004222  0  3.971354  0  0  0.000724  0  3.989901  0  0  -0.064298  -0.007142  0  3.958581  0
N  N38  1  0.44786406  0.11692283  0.24144242  1  0  -0.41758  0  2.877936  0  0  -0.366905  0  3.133231  0  0  -0.382431  0  3.144663  0  0  -0.34293  -0.356234  0  3.125239  0
N  N39  1  0.55215503  0.88308039  0.75856740  1  0  -0.417442  0  2.878962  0  0  -0.366752  0  3.134247  0  0  -0.38227  0  3.14568  0  0  -0.342962  -0.356084  0  3.126259  0
N  N40  1  0.02342345  0.68216738  0.73010818  1  0  -0.433385  0  3.041136  0  0  -0.370571  0  3.341599  0  0  -0.389017  0  3.350245  0  0  -0.359121  -0.358074  0  3.335779  0
N  N41  1  0.97657438  0.31782917  0.26988731  1  0  -0.433451  0  3.041222  0  0  -0.37064  0  3.341679  0  0  -0.389086  0  3.350323  0  0  -0.359145  -0.358145  0  3.335863  0
N  N42  1  0.23282530  0.41495442  0.65479969  1  0  -0.367896  0  3.210147  0  0  -0.291736  0  3.462982  0  0  -0.310949  0  3.480122  0  0  -0.317945  -0.278779  0  3.451159  0
N  N43  1  0.76717436  0.58504747  0.34520006  1  0  -0.367797  0  3.210112  0  0  -0.291644  0  3.462942  0  0  -0.310856  0  3.48008  0  0  -0.317903  -0.278687  0  3.451118  0
O  O44  1  0.80300967  0.29089094  0.50325515  1  0  -0.589969  0  2.229058  0  0  -0.518439  0  2.49302  0  0  -0.53829  0  2.47557  0  0  -0.399816  -0.50424  0  2.503633  0
O  O45  1  0.19698953  0.70910962  0.49674298  1  0  -0.589969  0  2.229195  0  0  -0.518401  0  2.49315  0  0  -0.538251  0  2.4757  0  0  -0.399794  -0.504214  0  2.503725  0
