# generated using pymatgen
data_Cu3H18C8S2(N2O)6
_symmetry_space_group_name_H-M   'P 1'
_cell_length_a   8.35596189
_cell_length_b   8.55152349
_cell_length_c   9.42925817
_cell_angle_alpha   90.36070994
_cell_angle_beta   112.24577636
_cell_angle_gamma   115.86390626
_symmetry_Int_Tables_number   1
_chemical_formula_structural   Cu3H18C8S2(N2O)6
_chemical_formula_sum   'Cu3 H18 C8 S2 N12 O6'
_cell_volume   549.14304853
_cell_formula_units_Z   1
loop_
 _symmetry_equiv_pos_site_id
 _symmetry_equiv_pos_as_xyz
  1  'x, y, z'
loop_
 _atom_site_type_symbol
 _atom_site_label
 _atom_site_symmetry_multiplicity
 _atom_site_fract_x
 _atom_site_fract_y
 _atom_site_fract_z
 _atom_site_occupancy
 _atom_site_hle17_ddec_charge
 _atom_site_hle17_ddec_spin_density
 _atom_site_hle17_ddec_sum_bond_order
 _atom_site_hle17_magmom
 _atom_site_hse06_10hf_ddec_charge
 _atom_site_hse06_10hf_ddec_spin_density
 _atom_site_hse06_10hf_ddec_sum_bond_order
 _atom_site_hse06_10hf_magmom
 _atom_site_hse06_ddec_charge
 _atom_site_hse06_ddec_spin_density
 _atom_site_hse06_ddec_sum_bond_order
 _atom_site_hse06_magmom
 _atom_site_pbe_cm5_charge
 _atom_site_pbe_ddec_charge
 _atom_site_pbe_ddec_spin_density
 _atom_site_pbe_ddec_sum_bond_order
 _atom_site_pbe_magmom
Cu  Cu0  1  0.18201325  0.18704156  0.06181933  1  0.864753  -0.617739  1.915964  -0.426  0.875134  -0.740047  2.338807  -0.569  0.971905  -0.830836  2.255824  -0.666  0.748691  0.820687  -0.670391  2.391504  -0.502
Cu  Cu1  1  0.81813828  0.81316884  0.93844399  1  0.864695  -0.617423  1.915307  -0.426  0.874759  -0.739707  2.338265  -0.569  0.971468  -0.83046  2.255408  -0.665  0.74888  0.820289  -0.670009  2.390944  -0.502
Cu  Cu2  1  0.50005861  0.50019090  0.99979610  1  0.91053  0.670612  1.859652  0.454  0.920139  0.777095  2.260457  0.59  1.017531  0.885812  2.181185  0.69  0.734489  0.8633  0.684119  2.313845  0.51
H  H3  1  0.91157441  0.19507861  0.20998465  1  0.138332  0.000127  0.953365  0.0  0.148324  0.000282  1.028708  0.0  0.150916  0.000297  1.025892  0.0  0.098253  0.146066  0.000248  1.031392  0.0
H  H4  1  0.08776591  0.80377603  0.78948517  1  0.138016  0.000122  0.953644  0.0  0.148313  0.00028  1.028698  0.0  0.150887  0.000295  1.025901  0.0  0.098357  0.146078  0.000245  1.031367  0.0
H  H5  1  0.82537946  0.19809603  0.35708220  1  0.149635  -4.3e-05  0.946947  0.0  0.171289  -0.000128  1.001244  0.0  0.173618  -9.5e-05  1.000347  0.0  0.105538  0.169703  -0.000156  1.001827  0.0
H  H6  1  0.17434817  0.80170484  0.64247218  1  0.149961  -4.3e-05  0.947486  0.0  0.171702  -0.000129  1.001765  0.0  0.173995  -9.6e-05  1.000912  0.0  0.105689  0.170132  -0.000157  1.002337  0.0
H  H7  1  0.66874678  0.17241422  0.15239257  1  0.166352  -1.6e-05  0.948936  0.0  0.184079  -1e-06  1.002285  0.0  0.187309  1e-06  1.001233  0.0  0.102629  0.181776  -3e-06  1.002994  0.0
H  H8  1  0.33066984  0.82660138  0.84705329  1  0.166274  -1.6e-05  0.948401  0.0  0.183921  -1e-06  1.001963  0.0  0.187147  0.0  1.000895  0.0  0.102525  0.18164  -4e-06  1.002647  0.0
H  H9  1  0.38699458  0.91369096  0.15879066  1  0.1587  8e-05  0.934788  0.0  0.176588  3.9e-05  0.989972  0.0  0.178713  4.2e-05  0.990072  0.0  0.104014  0.175155  3.8e-05  0.989792  0.0
H  H10  1  0.61254907  0.08573734  0.84141257  1  0.158153  8e-05  0.935654  0.0  0.176239  4e-05  0.990531  0.0  0.178351  4.3e-05  0.990648  0.0  0.104066  0.174804  3.8e-05  0.990348  0.0
H  H11  1  0.51737914  0.91773292  0.36328991  1  0.147372  -0.000409  0.954865  0.0  0.163971  -0.000421  1.016477  0.0  0.16625  -0.000348  1.015077  0.0  0.102642  0.162454  -0.000494  1.017405  0.0
H  H12  1  0.48243246  0.08253758  0.63710296  1  0.147239  -0.000415  0.954011  0.0  0.163765  -0.000424  1.015619  0.0  0.166019  -0.000351  1.014241  0.0  0.102668  0.162254  -0.000498  1.016552  0.0
H  H13  1  0.38579827  0.71351158  0.22022272  1  0.149388  -0.000244  0.955769  0.0  0.166434  -0.000143  1.016693  0.0  0.169542  -9.2e-05  1.015585  0.0  0.101207  0.164337  -0.000169  1.017479  0.0
H  H14  1  0.61392951  0.28628796  0.78074648  1  0.149644  -0.000255  0.955374  0.0  0.166322  -0.000149  1.016684  0.0  0.169441  -9.6e-05  1.015568  0.0  0.100955  0.164227  -0.000178  1.017461  0.0
H  H15  1  0.29801666  0.42206085  0.45756672  1  0.152042  -0.000162  0.930662  0.0  0.173104  -0.000104  0.984883  0.0  0.17499  -5.2e-05  0.985181  0.0  0.10493  0.171778  -0.000153  0.984584  0.0
H  H16  1  0.70318539  0.57941606  0.54196115  1  0.150967  -0.000164  0.931401  0.0  0.172709  -0.000104  0.984987  0.0  0.1746  -5.2e-05  0.985287  0.0  0.104839  0.1714  -0.000153  0.98466  0.0
H  H17  1  0.33080990  0.64256214  0.45829926  1  0.136798  0.001338  0.961579  0.002  0.152107  0.000879  1.027339  0.001  0.15304  0.000606  1.027877  0.001  0.096652  0.151589  0.001093  1.026701  0.001
H  H18  1  0.67001943  0.35879713  0.54182000  1  0.137104  0.001336  0.961446  0.002  0.152282  0.000878  1.027245  0.001  0.153241  0.000605  1.02776  0.001  0.096448  0.151753  0.001092  1.026611  0.001
H  H19  1  0.14218883  0.48044444  0.50433027  1  0.137713  -0.001206  0.947674  -0.001  0.156635  -0.000823  1.0078  -0.001  0.157656  -0.000548  1.008224  -0.001  0.099939  0.155941  -0.001013  1.007365  -0.001
H  H20  1  0.85845744  0.52021848  0.49510099  1  0.13725  -0.001207  0.948215  -0.001  0.156348  -0.000822  1.008286  -0.001  0.157387  -0.000547  1.008707  -0.001  0.09981  0.15565  -0.001012  1.007845  -0.001
C  C21  1  0.78192558  0.14381538  0.23490522  1  -0.436277  -0.000129  3.566304  0.0  -0.503628  3.3e-05  3.804696  0.0  -0.507697  6.7e-05  3.809198  0.0  -0.239444  -0.500312  5e-06  3.801429  0.0
C  C22  1  0.21754135  0.85537887  0.76472960  1  -0.436137  -0.000135  3.566095  0.0  -0.50395  3e-05  3.804735  0.0  -0.507948  6.6e-05  3.809289  0.0  -0.239748  -0.500693  -1e-06  3.801441  0.0
C  C23  1  0.47070006  0.85846338  0.24184575  1  -0.428797  -0.00067  3.553051  -0.001  -0.495349  -0.000578  3.788672  -0.001  -0.498848  -0.000382  3.792014  0.0  -0.23788  -0.492559  -0.00079  3.785825  -0.001
C  C24  1  0.52896371  0.14129189  0.75866655  1  -0.428514  -0.000691  3.553069  -0.001  -0.494475  -0.000591  3.78807  -0.001  -0.497983  -0.000391  3.791497  0.0  -0.237817  -0.491669  -0.000809  3.785182  -0.001
C  C25  1  0.29245501  0.53009213  0.51604123  1  -0.455996  0.000222  3.648733  0.0  -0.533116  -0.00071  3.873796  -0.001  -0.541867  -0.000378  3.879184  -0.001  -0.243123  -0.526183  -0.001271  3.868957  -0.002
C  C26  1  0.70837056  0.47095867  0.48373447  1  -0.454151  0.000263  3.649035  0.0  -0.53216  -0.000698  3.874068  -0.001  -0.540898  -0.000368  3.87935  -0.001  -0.242348  -0.525219  -0.001255  3.869258  -0.002
C  C27  1  0.43281865  0.58052022  0.68651528  1  0.759929  0.000752  3.774661  0.001  0.737088  0.000446  4.052948  0.001  0.777625  0.000492  4.047408  0.001  0.22492  0.709639  0.000368  4.055828  0.001
C  C28  1  0.56764575  0.42003225  0.31329137  1  0.75808  0.000767  3.7743  0.001  0.735656  0.000464  4.052456  0.001  0.77619  0.000506  4.046898  0.001  0.224489  0.708174  0.000386  4.055354  0.001
S  S29  1  0.68706448  0.90804494  0.21373223  1  0.700478  0.000221  3.583559  0.0  0.678936  6.3e-05  4.031427  0.0  0.695138  5.9e-05  4.030084  0.0  0.272592  0.66781  4.9e-05  4.032312  0.0
S  S30  1  0.31243555  0.09124955  0.78664625  1  0.700174  0.000217  3.585092  0.0  0.678706  6.6e-05  4.03328  0.0  0.694859  6.3e-05  4.031907  0.0  0.272546  0.667599  4.6e-05  4.034206  0.0
N  N31  1  0.92969568  0.04798783  0.87206827  1  -0.593228  -0.094438  2.955426  -0.113  -0.62603  -0.066101  3.348312  -0.084  -0.679934  -0.050893  3.354844  -0.07  -0.372804  -0.596462  -0.073185  3.34765  -0.088
N  N32  1  0.06986191  0.95254835  0.12856102  1  -0.593311  -0.093981  2.956274  -0.112  -0.625726  -0.065917  3.34884  -0.084  -0.679626  -0.050797  3.355461  -0.07  -0.372484  -0.596185  -0.072934  3.348127  -0.088
N  N33  1  0.87851449  0.06921938  0.73799583  1  0.40905  0.031347  4.157523  0.045  0.455543  0.005553  4.452685  0.014  0.476938  0.011145  4.484157  0.021  0.100577  0.442209  0.000482  4.432579  0.008
N  N34  1  0.12152136  0.93088791  0.26246185  1  0.409232  0.031222  4.156587  0.045  0.455785  0.005541  4.451375  0.014  0.477175  0.011126  4.482732  0.021  0.100662  0.442463  0.000483  4.431353  0.008
N  N35  1  0.82453454  0.08782075  0.60972596  1  -0.296433  -0.125648  2.358969  -0.137  -0.302063  -0.074945  2.581156  -0.086  -0.305245  -0.067519  2.58833  -0.082  -0.131623  -0.301355  -0.079601  2.576809  -0.088
N  N36  1  0.17580618  0.91192034  0.39061914  1  -0.297437  -0.12496  2.358449  -0.136  -0.302798  -0.074603  2.580497  -0.086  -0.3059  -0.067253  2.587572  -0.082  -0.132226  -0.30215  -0.079185  2.576216  -0.087
N  N37  1  0.24428233  0.42722890  0.01456931  1  -0.565179  -0.01715  2.944284  -0.021  -0.625411  -0.005171  3.357837  -0.007  -0.685823  -0.001907  3.372839  -0.004  -0.373933  -0.59127  -0.007595  3.352181  -0.01
N  N38  1  0.75587058  0.57276472  0.98509291  1  -0.564315  -0.016922  2.944029  -0.021  -0.624342  -0.005131  3.357311  -0.007  -0.684725  -0.001899  3.372314  -0.004  -0.373364  -0.590222  -0.007504  3.351659  -0.01
N  N39  1  0.11724835  0.45173434  0.91604235  1  0.40035  0.004959  4.117266  0.007  0.446877  0.000529  4.429509  0.001  0.468537  0.00015  4.466343  0.0  0.097275  0.433323  0.00069  4.40616  0.001
N  N40  1  0.88267745  0.54804921  0.08369397  1  0.39889  0.00484  4.119385  0.007  0.445382  0.000544  4.431731  0.001  0.467045  0.00017  4.468556  0.0  0.096397  0.431824  0.000704  4.408402  0.001
N  N41  1  0.99773897  0.48012474  0.82706729  1  -0.251071  -0.012532  2.367331  -0.015  -0.26396  -0.001231  2.599978  -0.002  -0.273933  0.000185  2.613787  -0.001  -0.115302  -0.258886  -0.001513  2.59133  -0.002
N  N42  1  0.00191185  0.51937200  0.17267439  1  -0.250071  -0.012007  2.368289  -0.014  -0.263038  -0.001153  2.601064  -0.002  -0.272971  0.000214  2.614856  -0.001  -0.114823  -0.258013  -0.001337  2.592435  -0.002
O  O43  1  0.60321139  0.71304722  0.72697431  1  -0.591992  -0.082422  2.049107  -0.104  -0.557743  -0.059411  2.313158  -0.084  -0.604631  -0.046389  2.305269  -0.07  -0.320321  -0.527463  -0.066864  2.318282  -0.09
O  O44  1  0.39729563  0.28760326  0.27319320  1  -0.590948  -0.082434  2.048808  -0.104  -0.556971  -0.059341  2.312269  -0.084  -0.603876  -0.046311  2.304411  -0.07  -0.319805  -0.526648  -0.066829  2.317374  -0.09
O  O45  1  0.36859484  0.48538987  0.77554687  1  -0.613132  0.079133  2.112159  0.098  -0.5844  0.053717  2.388452  0.075  -0.630365  0.043414  2.381912  0.063  -0.3226  -0.553699  0.058912  2.392363  0.079
O  O46  1  0.63164174  0.51474263  0.22397075  1  -0.61304  0.079142  2.1124  0.098  -0.584399  0.053708  2.388425  0.075  -0.630459  0.0434  2.382111  0.063  -0.323121  -0.55371  0.058904  2.392431  0.079
O  O47  1  0.60989383  0.83556505  0.03815732  1  -0.693752  -0.001665  1.976565  -0.002  -0.654321  -0.000803  2.277299  -0.001  -0.682466  -0.000352  2.264604  0.0  -0.370002  -0.635653  -0.001418  2.286426  -0.002
O  O48  1  0.38932939  0.16307764  0.96229690  1  -0.693318  -0.001652  1.976354  -0.002  -0.654258  -0.000801  2.276911  -0.001  -0.682319  -0.000347  2.264188  0.0  -0.369909  -0.635704  -0.001423  2.286202  -0.002
