# generated using pymatgen
data_GaH5C8O5
_symmetry_space_group_name_H-M   'P 1'
_cell_length_a   6.72524288
_cell_length_b   10.44606156
_cell_length_c   10.45066061
_cell_angle_alpha   36.10508819
_cell_angle_beta   77.95787239
_cell_angle_gamma   77.98735308
_symmetry_Int_Tables_number   1
_chemical_formula_structural   GaH5C8O5
_chemical_formula_sum   'Ga2 H10 C16 O10'
_cell_volume   422.11194142
_cell_formula_units_Z   2
loop_
 _symmetry_equiv_pos_site_id
 _symmetry_equiv_pos_as_xyz
  1  'x, y, z'
loop_
 _atom_site_type_symbol
 _atom_site_label
 _atom_site_symmetry_multiplicity
 _atom_site_fract_x
 _atom_site_fract_y
 _atom_site_fract_z
 _atom_site_occupancy
 _atom_site_pbe_bader_charge
 _atom_site_pbe_bader_spin_density
 _atom_site_pbe_cm5_charge
 _atom_site_pbe_ddec_charge
 _atom_site_pbe_ddec_spin_density
 _atom_site_pbe_ddec_sum_bond_order
 _atom_site_pbe_magmom
Ga  Ga0  1  0.00241690  0.00284739  0.99249825  1  1.961245  0  0.582834  1.438922  0  2.784841  0
Ga  Ga1  1  0.50239079  0.99243641  0.00294696  1  1.961727  0  0.582851  1.439093  0  2.785949  0
H  H2  1  0.69691493  0.50296638  0.17179031  1  0.108191  0  0.113608  0.122911  0  0.989681  0
H  H3  1  0.80157745  0.82460145  0.49603502  1  0.091622  0  0.105584  0.108368  0  1.006605  0
H  H4  1  0.30208585  0.49632585  0.82418067  1  0.092312  0  0.105438  0.108112  0  1.006202  0
H  H5  1  0.19738705  0.17150673  0.50316693  1  0.108646  0  0.113498  0.122885  0  0.989696  0
H  H6  1  0.13872154  0.64822023  0.92325022  1  0.08964  0  0.106603  0.110896  0  1.01822  0
H  H7  1  0.36128089  0.07260708  0.35044059  1  0.086923  0  0.104322  0.108307  0  1.020047  0
H  H8  1  0.86104562  0.35036413  0.07275248  1  0.087975  0  0.104212  0.108081  0  1.020639  0
H  H9  1  0.63858923  0.92347773  0.64816831  1  0.08848  0  0.106508  0.11073  0  1.018655  0
H  H10  1  0.24213486  0.29609710  0.75865830  1  0.621061  0  0.340387  0.425536  0  0.856277  0
H  H11  1  0.74160497  0.75871376  0.29611102  1  0.621082  0  0.340539  0.425714  0  0.856531  0
C  C12  1  0.31792650  0.69424001  0.09252682  1  1.557249  0  0.253638  0.614704  0  4.117237  0
C  C13  1  0.18253888  0.89947684  0.30765868  1  1.536873  0  0.243104  0.607096  0  4.137723  0
C  C14  1  0.68279717  0.30789793  0.89919771  1  1.53824  0  0.243726  0.608055  0  4.136269  0
C  C15  1  0.81826862  0.09222554  0.69457371  1  1.553658  0  0.253445  0.614534  0  4.116791  0
C  C16  1  0.40793181  0.58249360  0.05499063  1  -0.079719  0  -0.006153  -0.034346  0  3.949605  0
C  C17  1  0.09165506  0.94143340  0.41541553  1  -0.041099  0  -0.012115  -0.039363  0  3.956782  0
C  C18  1  0.59182899  0.41553118  0.94127406  1  -0.042408  0  -0.011984  -0.039885  0  3.956892  0
C  C19  1  0.90811462  0.05487981  0.58266383  1  -0.07783  0  -0.005964  -0.034029  0  3.948599  0
C  C20  1  0.61163303  0.49849788  0.09761444  1  0.016294  0  -0.074222  -0.084389  0  3.944886  0
C  C21  1  0.88752027  0.89985803  0.49878348  1  -0.00554  0  -0.079348  -0.088588  0  3.96604  0
C  C22  1  0.38784127  0.49897032  0.89957638  1  -0.008213  0  -0.078938  -0.087628  0  3.965239  0
C  C23  1  0.11188174  0.09748815  0.49862948  1  0.015868  0  -0.074269  -0.084833  0  3.944696  0
C  C24  1  0.29629241  0.58170241  0.95627488  1  0.008604  0  -0.079074  -0.092074  0  3.966267  0
C  C25  1  0.20331455  0.04039964  0.41612931  1  -0.052412  0  -0.079928  -0.091474  0  3.965017  0
C  C26  1  0.70321616  0.41616332  0.04038269  1  -0.052342  0  -0.080027  -0.091461  0  3.96566  0
C  C27  1  0.79617726  0.95651125  0.58157022  1  0.006468  0  -0.078902  -0.091396  0  3.966529  0
O  O28  1  0.13400997  0.77294848  0.04521063  1  -1.163021  0  -0.249387  -0.532133  0  2.322731  0
O  O29  1  0.37079088  0.93346903  0.24028391  1  -1.172718  0  -0.262523  -0.564391  0  2.321501  0
O  O30  1  0.87095702  0.24056823  0.93322165  1  -1.173109  0  -0.262615  -0.564429  0  2.32016  0
O  O31  1  0.63426355  0.04492702  0.77332783  1  -1.16282  0  -0.249506  -0.532254  0  2.323847  0
O  O32  1  0.25471091  0.14543166  0.85018162  1  -1.209045  0  -0.467075  -0.858698  0  2.181784  0
O  O33  1  0.75447667  0.85001099  0.14561299  1  -1.209095  0  -0.46741  -0.858944  0  2.181452  0
O  O34  1  0.43282688  0.71122414  0.16080675  1  -1.174006  0  -0.266853  -0.564542  0  2.330729  0
O  O35  1  0.06457108  0.83945837  0.28339179  1  -1.177869  0  -0.273429  -0.58715  0  2.333008  0
O  O36  1  0.56506703  0.28346305  0.83923518  1  -1.179368  0  -0.274053  -0.587738  0  2.332895  0
O  O37  1  0.93324628  0.16056859  0.71146394  1  -1.171543  0  -0.26652  -0.564199  0  2.330366  0
