# generated using pymatgen
data_Cu3BH22WC17S5N8
_symmetry_space_group_name_H-M   'P 1'
_cell_length_a   10.52512896
_cell_length_b   12.24941017
_cell_length_c   12.59195492
_cell_angle_alpha   80.48209310
_cell_angle_beta   70.46457931
_cell_angle_gamma   66.91313747
_symmetry_Int_Tables_number   1
_chemical_formula_structural   Cu3BH22WC17S5N8
_chemical_formula_sum   'Cu6 B2 H44 W2 C34 S10 N16'
_cell_volume   1406.35295043
_cell_formula_units_Z   2
loop_
 _symmetry_equiv_pos_site_id
 _symmetry_equiv_pos_as_xyz
  1  'x, y, z'
loop_
 _atom_site_type_symbol
 _atom_site_label
 _atom_site_symmetry_multiplicity
 _atom_site_fract_x
 _atom_site_fract_y
 _atom_site_fract_z
 _atom_site_occupancy
 _atom_site_hle17_bader_spin_density
 _atom_site_hle17_ddec_charge
 _atom_site_hle17_ddec_spin_density
 _atom_site_hle17_ddec_sum_bond_order
 _atom_site_hle17_magmom
 _atom_site_hse06_10hf_bader_spin_density
 _atom_site_hse06_10hf_ddec_charge
 _atom_site_hse06_10hf_ddec_spin_density
 _atom_site_hse06_10hf_ddec_sum_bond_order
 _atom_site_hse06_10hf_magmom
 _atom_site_hse06_bader_spin_density
 _atom_site_hse06_ddec_charge
 _atom_site_hse06_ddec_spin_density
 _atom_site_hse06_ddec_sum_bond_order
 _atom_site_hse06_magmom
 _atom_site_pbe_bader_spin_density
 _atom_site_pbe_cm5_charge
 _atom_site_pbe_ddec_charge
 _atom_site_pbe_ddec_spin_density
 _atom_site_pbe_ddec_sum_bond_order
 _atom_site_pbe_magmom
Cu  Cu0  1  0.72444335  0.77590342  0.01160165  1  0  0.437969  0  2.447698  0  0  0.393729  0  2.923597  0  0  0.392356  0  2.889057  0  0  0.480712  0.395803  0  2.946536  0
Cu  Cu1  1  0.27555314  0.22409672  0.98838965  1  0  0.4379  0  2.447883  0  0  0.393662  0  2.923798  0  0  0.392274  0  2.889265  0  0  0.480642  0.395728  0  2.946676  0
Cu  Cu2  1  0.65838990  0.93060970  0.18390260  1  0  0.258665  0  2.54861  0  0  0.221604  0  3.011257  0  0  0.215808  0  2.983082  0  0  0.353656  0.225523  0  3.030398  0
Cu  Cu3  1  0.34160674  0.06939225  0.81609949  1  0  0.258653  0  2.548658  0  0  0.221591  0  3.011313  0  0  0.215796  0  2.983132  0  0  0.35363  0.225504  0  3.030421  0
Cu  Cu4  1  0.94578762  0.80684510  0.07353015  1  0  0.419008  0  2.434441  0  0  0.369441  0  2.908695  0  0  0.368355  0  2.876565  0  0  0.473149  0.371665  0  2.929514  0
Cu  Cu5  1  0.05421992  0.19315503  0.92646685  1  0  0.419085  0  2.434561  0  0  0.369544  0  2.90883  0  0  0.368456  0  2.876696  0  0  0.473189  0.371765  0  2.929649  0
B  B6  1  0.82390110  0.43107766  0.35899106  1  0  0.504127  0  3.229424  0  0  0.313754  0  3.566962  0  0  0.332288  0  3.568529  0  0  -0.069199  0.301119  0  3.565992  0
B  B7  1  0.17609934  0.56892250  0.64101027  1  0  0.504039  0  3.229464  0  0  0.313644  0  3.567068  0  0  0.332172  0  3.56865  0  0  -0.069197  0.301024  0  3.566076  0
H  H8  1  0.46669861  0.68451328  0.64542107  1  0  0.12872  0  1.000738  0  0  0.137144  0  1.067629  0  0  0.139779  0  1.068212  0  0  0.100921  0.135357  0  1.067123  0
H  H9  1  0.53330167  0.31548955  0.35458066  1  0  0.128699  0  1.000768  0  0  0.137122  0  1.067663  0  0  0.139751  0  1.068264  0  0  0.100902  0.13534  0  1.067148  0
H  H10  1  0.59360147  0.89426496  0.44706308  1  0  0.124176  0  0.954898  0  0  0.146091  0  1.014932  0  0  0.147747  0  1.014555  0  0  0.087445  0.144879  0  1.015314  0
H  H11  1  0.40640324  0.10573697  0.55293837  1  0  0.124168  0  0.954899  0  0  0.146119  0  1.014891  0  0  0.147777  0  1.014511  0  0  0.087462  0.144906  0  1.015271  0
H  H12  1  0.42396693  0.88795494  0.53359383  1  0  0.121555  0  0.944228  0  0  0.14791  0  0.995262  0  0  0.149219  0  0.995117  0  0  0.092286  0.146899  0  0.995484  0
H  H13  1  0.57603776  0.11204700  0.46640922  1  0  0.121575  0  0.944214  0  0  0.14794  0  0.995247  0  0  0.14925  0  0.995101  0  0  0.092278  0.14693  0  0.995468  0
H  H14  1  0.47097024  0.88546833  0.38422895  1  0  0.118028  0  0.986832  0  0  0.136832  0  1.051077  0  0  0.138942  0  1.050199  0  0  0.079304  0.135351  0  1.051624  0
H  H15  1  0.52903345  0.11453362  0.61577438  1  0  0.118004  0  0.986772  0  0  0.136814  0  1.05103  0  0  0.138924  0  1.050153  0  0  0.079284  0.135332  0  1.051579  0
H  H16  1  0.67187170  0.32265530  0.09414772  1  0  0.142629  0  0.954979  0  0  0.156034  0  1.007848  0  0  0.158769  0  1.008218  0  0  0.109364  0.15426  0  1.007459  0
H  H17  1  0.32812684  0.67734929  0.90584945  1  0  0.142604  0  0.955018  0  0  0.156004  0  1.007894  0  0  0.158737  0  1.008263  0  0  0.109347  0.15423  0  1.007505  0
H  H18  1  0.54905565  0.44705518  0.69017297  1  0  0.124671  0  0.952613  0  0  0.143518  0  1.014576  0  0  0.144745  0  1.015221  0  0  0.094735  0.142524  0  1.014333  0
H  H19  1  0.45094456  0.55294321  0.30982791  1  0  0.124665  0  0.952656  0  0  0.143511  0  1.014611  0  0  0.144737  0  1.015259  0  0  0.094747  0.142517  0  1.014367  0
H  H20  1  0.73726184  0.37879570  0.62057794  1  0  0.120997  0  0.941811  0  0  0.14375  0  0.999069  0  0  0.145156  0  0.998785  0  0  0.099511  0.142579  0  0.999594  0
H  H21  1  0.26273924  0.62120535  0.37942148  1  0  0.120996  0  0.941797  0  0  0.143742  0  0.999059  0  0  0.145148  0  0.998776  0  0  0.099515  0.14257  0  0.999585  0
H  H22  1  0.60799076  0.36239554  0.56960517  1  0  0.124293  0  0.957071  0  0  0.141548  0  1.022176  0  0  0.143273  0  1.02225  0  0  0.095718  0.140505  0  1.021886  0
H  H23  1  0.39200994  0.63760639  0.43039263  1  0  0.124336  0  0.957041  0  0  0.141559  0  1.022173  0  0  0.143293  0  1.022235  0  0  0.095727  0.140516  0  1.021883  0
H  H24  1  0.52852081  0.65347335  0.06852810  1  0  0.128606  0  0.956134  0  0  0.150486  0  1.013499  0  0  0.152503  0  1.012589  0  0  0.087998  0.148861  0  1.014404  0
H  H25  1  0.47148013  0.34653036  0.93147014  1  0  0.128619  0  0.956172  0  0  0.150492  0  1.013534  0  0  0.152506  0  1.012633  0  0  0.088002  0.148865  0  1.014443  0
H  H26  1  0.58268869  0.52472206  0.99219675  1  0  0.112788  0  0.969762  0  0  0.136737  0  1.025583  0  0  0.137699  0  1.026072  0  0  0.094194  0.136  0  1.025245  0
H  H27  1  0.41731503  0.47527986  0.00780181  1  0  0.112834  0  0.969713  0  0  0.136788  0  1.025516  0  0  0.137749  0  1.026007  0  0  0.094205  0.136051  0  1.025179  0
H  H28  1  0.70010854  0.60285299  0.96569908  1  0  0.124301  0  0.967941  0  0  0.1434  0  1.031904  0  0  0.146439  0  1.029861  0  0  0.087358  0.140859  0  1.033932  0
H  H29  1  0.29989455  0.39714805  0.03430059  1  0  0.124308  0  0.967913  0  0  0.143406  0  1.031875  0  0  0.146461  0  1.029813  0  0  0.087374  0.140868  0  1.033897  0
H  H30  1  0.29832932  0.41361308  0.29625659  1  0  0.132206  0  0.979837  0  0  0.144459  0  1.038974  0  0  0.147294  0  1.03951  0  0  0.103581  0.143244  0  1.036952  0
H  H31  1  0.70167203  0.58638266  0.70374760  1  0  0.132153  0  0.97992  0  0  0.144458  0  1.039004  0  0  0.147305  0  1.039523  0  0  0.103582  0.143243  0  1.036982  0
H  H32  1  0.17457491  0.64537933  0.08473845  1  0  0.115057  0  0.996768  0  0  0.13469  0  1.062145  0  0  0.136729  0  1.061494  0  0  0.085003  0.133154  0  1.062766  0
H  H33  1  0.82542747  0.35461640  0.91526227  1  0  0.115029  0  0.996765  0  0  0.134666  0  1.062134  0  0  0.136708  0  1.061481  0  0  0.084971  0.13313  0  1.062759  0
H  H34  1  0.29649619  0.59694352  0.16670507  1  0  0.115771  0  0.945848  0  0  0.141388  0  0.999694  0  0  0.142287  0  1.000229  0  0  0.09536  0.140858  0  0.999125  0
H  H35  1  0.70350644  0.40305398  0.83329530  1  0  0.115703  0  0.945886  0  0  0.141328  0  0.99973  0  0  0.142226  0  1.000269  0  0  0.095317  0.140798  0  0.999161  0
H  H36  1  0.13059458  0.71821795  0.20932069  1  0  0.126594  0  0.951817  0  0  0.148715  0  1.00783  0  0  0.150591  0  1.006926  0  0  0.089025  0.147364  0  1.0085  0
H  H37  1  0.86940703  0.28177955  0.79067996  1  0  0.126567  0  0.951781  0  0  0.148718  0  1.007774  0  0  0.150593  0  1.006871  0  0  0.089027  0.147365  0  1.008446  0
H  H38  1  0.94083783  0.17174634  0.24875723  1  0  0.130266  0  0.92104  0  0  0.152824  0  0.976039  0  0  0.155088  0  0.974805  0  0  0.102293  0.151394  0  0.976644  0
H  H39  1  0.05915676  0.82825116  0.75123900  1  0  0.130262  0  0.921076  0  0  0.152859  0  0.976026  0  0  0.155125  0  0.97479  0  0  0.102286  0.151427  0  0.976637  0
H  H40  1  0.79144775  0.14915997  0.23343658  1  0  0.125976  0  0.950506  0  0  0.144665  0  1.014427  0  0  0.146015  0  1.014725  0  0  0.093338  0.14372  0  1.014226  0
H  H41  1  0.20854313  0.85084374  0.76655886  1  0  0.126037  0  0.95043  0  0  0.144678  0  1.014391  0  0  0.146025  0  1.014698  0  0  0.093358  0.143733  0  1.014189  0
H  H42  1  0.77814127  0.20207479  0.36233321  1  0  0.118725  0  0.945649  0  0  0.138705  0  1.006239  0  0  0.14074  0  1.005369  0  0  0.096817  0.137303  0  1.00681  0
H  H43  1  0.22185448  0.79792005  0.63766472  1  0  0.118742  0  0.945695  0  0  0.13874  0  1.006259  0  0  0.140774  0  1.005391  0  0  0.096813  0.137337  0  1.00683  0
H  H44  1  0.03573692  0.30323288  0.51386941  1  0  0.123452  0  0.931096  0  0  0.144307  0  0.989405  0  0  0.14637  0  0.98867  0  0  0.095405  0.143031  0  0.98982  0
H  H45  1  0.96427049  0.69676284  0.48613310  1  0  0.123545  0  0.931052  0  0  0.144301  0  0.989465  0  0  0.146368  0  0.988725  0  0  0.095388  0.143028  0  0.989873  0
H  H46  1  0.21787388  0.24000272  0.42885308  1  0  0.119605  0  0.963664  0  0  0.138701  0  1.026932  0  0  0.139907  0  1.027948  0  0  0.09001  0.137972  0  1.025909  0
H  H47  1  0.78213084  0.75999920  0.57114599  1  0  0.11968  0  0.963643  0  0  0.138769  0  1.026897  0  0  0.139975  0  1.027911  0  0  0.090063  0.13804  0  1.025876  0
H  H48  1  0.07799898  0.21412553  0.39998452  1  0  0.122137  0  0.932169  0  0  0.144157  0  0.987524  0  0  0.145921  0  0.986884  0  0  0.100111  0.142931  0  0.987889  0
H  H49  1  0.92200920  0.78586842  0.60001887  1  0  0.12209  0  0.932282  0  0  0.144122  0  0.987606  0  0  0.145885  0  0.986968  0  0  0.10009  0.142895  0  0.987973  0
H  H50  1  0.83451633  0.34108250  0.41565384  1  0  -0.195064  0  0.938459  0  0  -0.141766  0  1.01737  0  0  -0.146623  0  1.017752  0  0  0.079322  -0.138505  0  1.017019  0
H  H51  1  0.16548349  0.65891679  0.58434860  1  0  -0.195009  0  0.938443  0  0  -0.141718  0  1.017362  0  0  -0.146581  0  1.01775  0  0  0.079339  -0.138466  0  1.017016  0
W  W52  1  0.78397646  0.68873067  0.20165514  1  0  0.964287  0  4.511665  0  0  0.93907  0  5.063438  0  0  1.001586  0  5.044047  0  0  1.080405  0.898785  0  5.075441  0
W  W53  1  0.21602527  0.31127125  0.79834079  1  0  0.964262  0  4.511607  0  0  0.939054  0  5.063377  0  0  1.001571  0  5.043976  0  0  1.080376  0.898774  0  5.075324  0
C  C54  1  0.57591300  0.72305746  0.46722071  1  0  0.284645  0  3.74281  0  0  0.285193  0  4.00673  0  0  0.298066  0  4.023945  0  0  0.097868  0.276932  0  3.994785  0
C  C55  1  0.42409070  0.27694447  0.53278023  1  0  0.28458  0  3.743003  0  0  0.285124  0  4.006943  0  0  0.297994  0  4.024158  0  0  0.097842  0.276872  0  3.994987  0
C  C56  1  0.54125305  0.65296292  0.56402832  1  0  -0.34414  0  3.728563  0  0  -0.371732  0  3.987371  0  0  -0.383122  0  4.004914  0  0  -0.123195  -0.364477  0  3.975381  0
C  C57  1  0.45874739  0.34703724  0.43597301  1  0  -0.344076  0  3.728645  0  0  -0.37166  0  3.987435  0  0  -0.38305  0  4.004972  0  0  -0.123158  -0.364409  0  3.975445  0
C  C58  1  0.11585814  0.54457621  0.23799202  1  0  0.276631  0  3.742564  0  0  0.278532  0  4.006408  0  0  0.290609  0  4.024736  0  0  0.094029  0.270784  0  3.993805  0
C  C59  1  0.88414245  0.45542131  0.76201049  1  0  0.276716  0  3.742441  0  0  0.278576  0  4.006337  0  0  0.290633  0  4.024694  0  0  0.09405  0.270838  0  3.993719  0
C  C60  1  0.62363065  0.53523415  0.53608301  1  0  0.283115  0  3.723839  0  0  0.270912  0  3.98932  0  0  0.283776  0  4.003931  0  0  0.11896  0.262603  0  3.979347  0
C  C61  1  0.37636879  0.46476602  0.46391781  1  0  0.283049  0  3.723773  0  0  0.270851  0  3.989235  0  0  0.28372  0  4.003837  0  0  0.118949  0.262542  0  3.979265  0
C  C62  1  0.59481527  0.85345009  0.81919365  1  0  0.297215  0  3.948204  0  0  0.288537  0  4.238875  0  0  0.306885  0  4.254688  0  0  0.158172  0.276114  0  4.227943  0
C  C63  1  0.40516527  0.14654037  0.18080680  1  0  0.297482  0  3.94814  0  0  0.288794  0  4.238803  0  0  0.307143  0  4.254618  0  0  0.158347  0.27637  0  4.227859  0
C  C64  1  0.68410479  0.49381308  0.11893921  1  0  0.275901  0  3.741729  0  0  0.277108  0  4.006508  0  0  0.289388  0  4.024503  0  0  0.093384  0.269236  0  3.993905  0
C  C65  1  0.31589551  0.50618974  0.88106094  1  0  0.275992  0  3.741502  0  0  0.277187  0  4.006316  0  0  0.289469  0  4.024309  0  0  0.093391  0.269304  0  3.993731  0
C  C66  1  0.82984133  0.08285907  0.98947503  1  0  0.300738  0  3.949228  0  0  0.291538  0  4.24258  0  0  0.309907  0  4.254666  0  0  0.153139  0.27908  0  4.234345  0
C  C67  1  0.17015330  0.91714289  0.01052602  1  0  0.300676  0  3.949962  0  0  0.291455  0  4.243303  0  0  0.309818  0  4.25539  0  0  0.153141  0.278999  0  4.235053  0
C  C68  1  0.51293677  0.85446713  0.45702415  1  0  -0.375945  0  3.74401  0  0  -0.457407  0  3.978296  0  0  -0.46124  0  3.984988  0  0  -0.249623  -0.454606  0  3.973562  0
C  C69  1  0.48706932  0.14553391  0.54297787  1  0  -0.375913  0  3.74395  0  0  -0.457424  0  3.97824  0  0  -0.461261  0  3.984932  0  0  -0.24959  -0.454625  0  3.973505  0
C  C70  1  0.70149823  0.37344518  0.13820444  1  0  -0.338839  0  3.720314  0  0  -0.366551  0  3.976574  0  0  -0.377983  0  3.994182  0  0  -0.123632  -0.359047  0  3.964295  0
C  C71  1  0.29849787  0.62656032  0.86179722  1  0  -0.338869  0  3.720192  0  0  -0.366565  0  3.976467  0  0  -0.377994  0  3.994069  0  0  -0.123644  -0.359059  0  3.96419  0
C  C72  1  0.08857340  0.38821945  0.35029790  1  0  0.288273  0  3.722128  0  0  0.277955  0  3.983744  0  0  0.290666  0  3.998997  0  0  0.117  0.269535  0  3.973474  0
C  C73  1  0.91142984  0.61177893  0.64970295  1  0  0.288278  0  3.722116  0  0  0.277979  0  3.983703  0  0  0.29069  0  3.998957  0  0  0.117047  0.269583  0  3.973406  0
C  C74  1  0.63022130  0.42471456  0.60770230  1  0  -0.355897  0  3.702736  0  0  -0.435113  0  3.945136  0  0  -0.43787  0  3.951009  0  0  -0.232889  -0.433209  0  3.941176  0
C  C75  1  0.36978056  0.57528471  0.39229719  1  0  -0.355886  0  3.702683  0  0  -0.43506  0  3.945086  0  0  -0.437824  0  3.950947  0  0  -0.232896  -0.433158  0  3.941127  0
C  C76  1  0.62014340  0.57371769  0.03276025  1  0  -0.365667  0  3.716339  0  0  -0.446239  0  3.948827  0  0  -0.449694  0  3.953902  0  0  -0.24655  -0.443651  0  3.945655  0
C  C77  1  0.37985970  0.42628334  0.96723862  1  0  -0.365757  0  3.716323  0  0  -0.446304  0  3.948818  0  0  -0.44977  0  3.953871  0  0  -0.246568  -0.443715  0  3.945655  0
C  C78  1  0.18741916  0.44331418  0.29511534  1  0  -0.335835  0  3.72231  0  0  -0.363369  0  3.975354  0  0  -0.375284  0  3.994299  0  0  -0.125448  -0.355449  0  3.961469  0
C  C79  1  0.81258066  0.55668510  0.70488630  1  0  -0.335816  0  3.722318  0  0  -0.363397  0  3.97537  0  0  -0.375317  0  3.994312  0  0  -0.125458  -0.355488  0  3.961475  0
C  C80  1  0.76913546  0.33022041  0.22250091  1  0  0.281136  0  3.72643  0  0  0.273698  0  3.987953  0  0  0.28635  0  4.002963  0  0  0.116901  0.265528  0  3.977808  0
C  C81  1  0.23085817  0.66978155  0.77749962  1  0  0.281122  0  3.726461  0  0  0.273655  0  3.988017  0  0  0.28631  0  4.003023  0  0  0.116912  0.265489  0  3.977863  0
C  C82  1  0.18177623  0.63112203  0.17114144  1  0  -0.368801  0  3.73482  0  0  -0.449991  0  3.96722  0  0  -0.453174  0  3.973349  0  0  -0.247048  -0.447495  0  3.962572  0
C  C83  1  0.81822741  0.36887546  0.82885865  1  0  -0.368692  0  3.734739  0  0  -0.449902  0  3.967158  0  0  -0.453082  0  3.973298  0  0  -0.246976  -0.447408  0  3.96251  0
C  C84  1  0.82214325  0.20676115  0.27006549  1  0  -0.360645  0  3.718772  0  0  -0.440476  0  3.956048  0  0  -0.443558  0  3.961612  0  0  -0.229223  -0.438269  0  3.951949  0
C  C85  1  0.17785094  0.79323724  0.72993229  1  0  -0.360754  0  3.718858  0  0  -0.440577  0  3.956136  0  0  -0.443657  0  3.961696  0  0  -0.229251  -0.438365  0  3.952032  0
C  C86  1  0.10539439  0.28056409  0.42722628  1  0  -0.353755  0  3.722346  0  0  -0.430772  0  3.958212  0  0  -0.434086  0  3.964264  0  0  -0.229194  -0.42824  0  3.953539  0
C  C87  1  0.89460986  0.71943429  0.57277429  1  0  -0.353867  0  3.722473  0  0  -0.430789  0  3.958312  0  0  -0.434106  0  3.964359  0  0  -0.229217  -0.428265  0  3.95363  0
S  S88  1  0.55713531  0.79860302  0.18133451  1  0  -0.420126  0  2.298485  0  0  -0.425412  0  2.713228  0  0  -0.432726  0  2.699107  0  0  -0.381133  -0.420773  0  2.722681  0
S  S89  1  0.44286579  0.20139801  0.81866173  1  0  -0.42013  0  2.298504  0  0  -0.4254  0  2.713222  0  0  -0.432713  0  2.699099  0  0  -0.381122  -0.420748  0  2.722625  0
S  S90  1  0.93787624  0.64718399  0.01890142  1  0  -0.406476  0  2.378175  0  0  -0.418189  0  2.837651  0  0  -0.425331  0  2.821234  0  0  -0.381841  -0.414779  0  2.849503  0
S  S91  1  0.06212449  0.35281792  0.98109319  1  0  -0.406422  0  2.378183  0  0  -0.418176  0  2.837734  0  0  -0.425317  0  2.821313  0  0  -0.381814  -0.414747  0  2.849529  0
S  S92  1  0.83985024  0.83003208  0.26006994  1  0  -0.435925  0  2.267704  0  0  -0.438717  0  2.675119  0  0  -0.445825  0  2.659074  0  0  -0.391094  -0.434561  0  2.686173  0
S  S93  1  0.16015047  0.16996985  0.73992785  1  0  -0.435891  0  2.267682  0  0  -0.438695  0  2.675113  0  0  -0.445799  0  2.659062  0  0  -0.391069  -0.434536  0  2.686145  0
S  S94  1  0.50048260  0.89665685  0.72995494  1  0  -0.245641  0  2.397552  0  0  -0.222203  0  2.75117  0  0  -0.236143  0  2.744102  0  0  -0.13256  -0.213627  0  2.755441  0
S  S95  1  0.49949233  0.10333718  0.27004886  1  0  -0.245679  0  2.397413  0  0  -0.222227  0  2.751009  0  0  -0.236164  0  2.743941  0  0  -0.132632  -0.213646  0  2.75528  0
S  S96  1  0.72391646  0.01693997  0.98622547  1  0  -0.286409  0  2.379734  0  0  -0.269304  0  2.731989  0  0  -0.275219  0  2.715341  0  0  -0.154571  -0.265404  0  2.743057  0
S  S97  1  0.27608365  0.98306553  0.01377906  1  0  -0.286523  0  2.379482  0  0  -0.269403  0  2.731735  0  0  -0.275318  0  2.715086  0  0  -0.154648  -0.265496  0  2.742777  0
N  N98  1  0.97799749  0.55070390  0.25603799  1  0  -0.267691  0  3.113921  0  0  -0.230627  0  3.374272  0  0  -0.249182  0  3.399345  0  0  -0.2613  -0.218464  0  3.357277  0
N  N99  1  0.02200414  0.44929359  0.74396107  1  0  -0.267813  0  3.113989  0  0  -0.230724  0  3.374355  0  0  -0.249274  0  3.399433  0  0  -0.261335  -0.21856  0  3.357345  0
N  N100  1  0.96456884  0.45397163  0.32448020  1  0  -0.185025  0  3.46067  0  0  -0.099313  0  3.700369  0  0  -0.111829  0  3.722201  0  0  -0.13504  -0.091358  0  3.685935  0
N  N101  1  0.03543277  0.54602587  0.67552045  1  0  -0.184951  0  3.460634  0  0  -0.099246  0  3.70033  0  0  -0.111759  0  3.722159  0  0  -0.135053  -0.091304  0  3.685888  0
N  N102  1  0.67636075  0.65072697  0.38293835  1  0  -0.263615  0  3.159342  0  0  -0.225942  0  3.421193  0  0  -0.245303  0  3.447864  0  0  -0.272252  -0.213267  0  3.403384  0
N  N103  1  0.32364234  0.34927407  0.61706211  1  0  -0.263581  0  3.159409  0  0  -0.225924  0  3.421288  0  0  -0.245272  0  3.447947  0  0  -0.272268  -0.213253  0  3.403471  0
N  N104  1  0.70375088  0.53622139  0.42679317  1  0  -0.184839  0  3.427264  0  0  -0.098292  0  3.664752  0  0  -0.111044  0  3.687207  0  0  -0.134071  -0.089995  0  3.649808  0
N  N105  1  0.29625018  0.46377967  0.57320864  1  0  -0.184784  0  3.427204  0  0  -0.098232  0  3.664692  0  0  -0.110989  0  3.687144  0  0  -0.134047  -0.089938  0  3.649747  0
N  N106  1  0.73782082  0.52357043  0.18997043  1  0  -0.26899  0  3.139485  0  0  -0.231423  0  3.402382  0  0  -0.250111  0  3.4283  0  0  -0.264192  -0.219194  0  3.384599  0
N  N107  1  0.26217744  0.47643241  0.81003187  1  0  -0.269056  0  3.139572  0  0  -0.231521  0  3.402513  0  0  -0.250209  0  3.428426  0  0  -0.264235  -0.21929  0  3.384725  0
N  N108  1  0.78667457  0.42287693  0.25370478  1  0  -0.1876  0  3.433745  0  0  -0.102501  0  3.673375  0  0  -0.115471  0  3.696071  0  0  -0.137117  -0.093946  0  3.657843  0
N  N109  1  0.21332246  0.57712414  0.74629655  1  0  -0.187508  0  3.43386  0  0  -0.102377  0  3.673464  0  0  -0.115345  0  3.696156  0  0  -0.137094  -0.093822  0  3.657924  0
N  N110  1  0.66249574  0.82238121  0.88381689  1  0  -0.454696  0  3.166483  0  0  -0.409842  0  3.479613  0  0  -0.424092  0  3.482126  0  0  -0.435925  -0.400791  0  3.477997  0
N  N111  1  0.33749211  0.17761099  0.11617967  1  0  -0.454904  0  3.166563  0  0  -0.410038  0  3.479678  0  0  -0.424287  0  3.482193  0  0  -0.43602  -0.400986  0  3.47803  0
N  N112  1  0.90711663  0.13183834  0.98881975  1  0  -0.470744  0  3.153288  0  0  -0.422069  0  3.464461  0  0  -0.436459  0  3.468054  0  0  -0.439401  -0.412784  0  3.461747  0
N  N113  1  0.09289102  0.86817067  0.01118054  1  0  -0.470474  0  3.154214  0  0  -0.421769  0  3.465337  0  0  -0.436158  0  3.468935  0  0  -0.439276  -0.412488  0  3.46261  0
