# generated using pymatgen
data_PrH17(CO)10
_symmetry_space_group_name_H-M   'P 1'
_cell_length_a   8.79289998
_cell_length_b   9.43889459
_cell_length_c   11.56557645
_cell_angle_alpha   103.27338274
_cell_angle_beta   97.19117666
_cell_angle_gamma   111.27415102
_symmetry_Int_Tables_number   1
_chemical_formula_structural   PrH17(CO)10
_chemical_formula_sum   'Pr2 H34 C20 O20'
_cell_volume   847.26752388
_cell_formula_units_Z   2
loop_
 _symmetry_equiv_pos_site_id
 _symmetry_equiv_pos_as_xyz
  1  'x, y, z'
loop_
 _atom_site_type_symbol
 _atom_site_label
 _atom_site_symmetry_multiplicity
 _atom_site_fract_x
 _atom_site_fract_y
 _atom_site_fract_z
 _atom_site_occupancy
 _atom_site_hle17_bader_spin_density
 _atom_site_hle17_ddec_charge
 _atom_site_hle17_ddec_spin_density
 _atom_site_hle17_ddec_sum_bond_order
 _atom_site_hle17_magmom
 _atom_site_hse06_10hf_bader_spin_density
 _atom_site_hse06_10hf_ddec_charge
 _atom_site_hse06_10hf_ddec_spin_density
 _atom_site_hse06_10hf_ddec_sum_bond_order
 _atom_site_hse06_10hf_magmom
 _atom_site_hse06_bader_spin_density
 _atom_site_hse06_ddec_charge
 _atom_site_hse06_ddec_spin_density
 _atom_site_hse06_ddec_sum_bond_order
 _atom_site_hse06_magmom
 _atom_site_pbe_bader_spin_density
 _atom_site_pbe_cm5_charge
 _atom_site_pbe_ddec_charge
 _atom_site_pbe_ddec_spin_density
 _atom_site_pbe_ddec_sum_bond_order
 _atom_site_pbe_magmom
Pr  Pr0  1  0.25532089  0.51195679  0.01637069  1  0  2.345415  0  1.539765  0  0  2.228522  0  1.900852  0  0  2.269922  0  1.858656  0  0  1.496939  2.148272  0  2.0227  0
Pr  Pr1  1  0.74468456  0.48802928  0.98362022  1  0  2.345378  0  1.539926  0  0  2.228457  0  1.901041  0  0  2.269857  0  1.858842  0  0  1.496922  2.148179  0  2.022936  0
H  H2  1  0.20703679  0.52784541  0.45205777  1  0  0.141634  0  0.943725  0  0  0.161277  0  1.002224  0  0  0.163417  0  1.001955  0  0  0.103449  0.159653  0  1.002746  0
H  H3  1  0.79299077  0.47217028  0.54795977  1  0  0.141586  0  0.943741  0  0  0.161189  0  1.002314  0  0  0.163333  0  1.002038  0  0  0.103323  0.159562  0  1.002835  0
H  H4  1  0.42829190  0.58242773  0.46695232  1  0  0.138956  0  0.951265  0  0  0.159318  0  1.008457  0  0  0.161448  0  1.008021  0  0  0.102663  0.15766  0  1.009106  0
H  H5  1  0.57173546  0.41761362  0.53303805  1  0  0.138958  0  0.951209  0  0  0.159251  0  1.00848  0  0  0.161378  0  1.008046  0  0  0.102635  0.157593  0  1.009127  0
H  H6  1  0.28519082  0.37987428  0.41084356  1  0  0.153654  0  0.924268  0  0  0.173179  0  0.981329  0  0  0.176038  0  0.979832  0  0  0.108935  0.171034  0  0.982727  0
H  H7  1  0.71485458  0.62016382  0.58917745  1  0  0.15361  0  0.9241  0  0  0.173113  0  0.981196  0  0  0.175961  0  0.97971  0  0  0.10897  0.17097  0  0.982592  0
H  H8  1  0.41519512  0.37595501  0.68398024  1  0  0.411826  0  0.881883  0  0  0.381067  0  0.958218  0  0  0.39422  0  0.9405  0  0  0.305862  0.371683  0  0.967967  0
H  H9  1  0.58479076  0.62402822  0.31599710  1  0  0.41167  0  0.882317  0  0  0.381051  0  0.958396  0  0  0.394235  0  0.940522  0  0  0.305842  0.371639  0  0.968205  0
H  H10  1  0.01161292  0.88959734  0.20506527  1  0  0.135134  0  0.966756  0  0  0.154207  0  1.025404  0  0  0.156228  0  1.025518  0  0  0.100854  0.152889  0  1.025115  0
H  H11  1  0.98839941  0.11039668  0.79496215  1  0  0.135073  0  0.96689  0  0  0.154202  0  1.025463  0  0  0.156219  0  1.025583  0  0  0.100797  0.152883  0  1.025175  0
H  H12  1  0.23206731  0.01855609  0.25053808  1  0  0.124968  0  0.946978  0  0  0.144432  0  1.005854  0  0  0.146305  0  1.005327  0  0  0.091728  0.142975  0  1.006459  0
H  H13  1  0.76794122  0.98143184  0.74948543  1  0  0.124918  0  0.946985  0  0  0.144406  0  1.00585  0  0  0.146279  0  1.005324  0  0  0.091751  0.142955  0  1.006449  0
H  H14  1  0.11019554  0.97859546  0.10178649  1  0  0.163619  0  0.936137  0  0  0.182648  0  0.994015  0  0  0.186029  0  0.992001  0  0  0.109935  0.179505  0  0.996873  0
H  H15  1  0.88981008  0.02142515  0.89824790  1  0  0.163627  0  0.935972  0  0  0.182653  0  0.993902  0  0  0.186035  0  0.991887  0  0  0.109947  0.179508  0  0.996763  0
H  H16  1  0.44258699  0.07607982  0.90748568  1  0  0.141734  0  0.983674  0  0  0.158217  0  1.046094  0  0  0.161336  0  1.044479  0  0  0.100669  0.156071  0  1.047109  0
H  H17  1  0.55741866  0.92390935  0.09251784  1  0  0.141693  0  0.983691  0  0  0.15818  0  1.046137  0  0  0.161298  0  1.044522  0  0  0.1006  0.156035  0  1.047153  0
H  H18  1  0.34864797  0.01563078  0.02568237  1  0  0.141972  0  0.957882  0  0  0.163143  0  1.016863  0  0  0.164432  0  1.01832  0  0  0.105613  0.162319  0  1.015923  0
H  H19  1  0.65134113  0.98436513  0.97433014  1  0  0.141988  0  0.957992  0  0  0.163208  0  1.016898  0  0  0.164499  0  1.018349  0  0  0.105647  0.162384  0  1.01596  0
H  H20  1  0.21736284  0.97965190  0.88456945  1  0  0.140536  0  0.924241  0  0  0.163212  0  0.975617  0  0  0.165551  0  0.974851  0  0  0.103469  0.161268  0  0.976654  0
H  H21  1  0.78262878  0.02034976  0.11544074  1  0  0.140545  0  0.924157  0  0  0.163239  0  0.975527  0  0  0.165569  0  0.974772  0  0  0.103524  0.161295  0  0.976565  0
H  H22  1  0.37092973  0.75751490  0.62468173  1  0  0.137314  0  0.947833  0  0  0.155834  0  1.005781  0  0  0.158132  0  1.005077  0  0  0.099441  0.154078  0  1.006435  0
H  H23  1  0.62905319  0.24246689  0.37533059  1  0  0.137452  0  0.947597  0  0  0.15599  0  1.005505  0  0  0.158286  0  1.004802  0  0  0.099483  0.154236  0  1.006159  0
H  H24  1  0.49827749  0.72792197  0.74392552  1  0  0.153166  0  0.92742  0  0  0.172821  0  0.981785  0  0  0.175363  0  0.981459  0  0  0.110274  0.170865  0  0.982329  0
H  H25  1  0.50172783  0.27206648  0.25608565  1  0  0.153259  0  0.927561  0  0  0.172942  0  0.981866  0  0  0.175481  0  0.98154  0  0  0.110346  0.17099  0  0.982408  0
H  H26  1  0.46541113  0.90587915  0.76859164  1  0  0.160701  0  0.950806  0  0  0.176872  0  1.013217  0  0  0.180057  0  1.011635  0  0  0.110972  0.174486  0  1.014624  0
H  H27  1  0.53457780  0.09410590  0.23141744  1  0  0.160808  0  0.950663  0  0  0.176991  0  1.013067  0  0  0.180176  0  1.011485  0  0  0.110993  0.174602  0  1.014478  0
H  H28  1  0.01136334  0.60442921  0.73780882  1  0  0.408051  0  0.881438  0  0  0.377461  0  0.957806  0  0  0.390607  0  0.944255  0  0  0.306721  0.368099  0  0.967432  0
H  H29  1  0.98864174  0.39560322  0.26220486  1  0  0.408112  0  0.881351  0  0  0.377489  0  0.957773  0  0  0.390636  0  0.944223  0  0  0.306705  0.368126  0  0.967399  0
H  H30  1  0.00590236  0.28552414  0.51406752  1  0  0.146276  0  0.947007  0  0  0.161053  0  1.012319  0  0  0.164308  0  1.010296  0  0  0.101028  0.158581  0  1.014037  0
H  H31  1  0.99412286  0.71448346  0.48589228  1  0  0.146476  0  0.946799  0  0  0.161161  0  1.01219  0  0  0.164416  0  1.010167  0  0  0.101065  0.158695  0  1.013903  0
H  H32  1  0.91872194  0.28202825  0.64684607  1  0  0.151434  0  0.940559  0  0  0.17091  0  0.994399  0  0  0.173401  0  0.994194  0  0  0.10784  0.169004  0  0.994816  0
H  H33  1  0.08127291  0.71797803  0.35310284  1  0  0.151527  0  0.940685  0  0  0.17103  0  0.994429  0  0  0.173508  0  0.994238  0  0  0.10787  0.169125  0  0.994844  0
H  H34  1  0.95691854  0.11690654  0.56839239  1  0  0.144465  0  0.923631  0  0  0.165012  0  0.978459  0  0  0.167095  0  0.97803  0  0  0.108088  0.16347  0  0.978915  0
H  H35  1  0.04305220  0.88309181  0.43155558  1  0  0.144658  0  0.9236  0  0  0.165184  0  0.978409  0  0  0.167269  0  0.977976  0  0  0.10823  0.163643  0  0.978868  0
C  C36  1  0.17620780  0.31683354  0.67884649  1  0  0.785567  0  3.736396  0  0  0.748206  0  4.029732  0  0  0.781356  0  4.019716  0  0  0.249711  0.725023  0  4.035752  0
C  C37  1  0.82378502  0.68315508  0.32112370  1  0  0.785992  0  3.735928  0  0  0.748334  0  4.029664  0  0  0.781479  0  4.019656  0  0  0.249774  0.725151  0  4.035678  0
C  C38  1  0.30321093  0.50147846  0.41102982  1  0  -0.47009  0  3.654211  0  0  -0.545782  0  3.883169  0  0  -0.553146  0  3.886398  0  0  -0.241507  -0.54103  0  3.88159  0
C  C39  1  0.69681375  0.49854372  0.58897634  1  0  -0.469965  0  3.654082  0  0  -0.545548  0  3.883024  0  0  -0.552903  0  3.886283  0  0  -0.241421  -0.540809  0  3.88147  0
C  C40  1  0.28572857  0.50942683  0.28210607  1  0  0.759039  0  3.814346  0  0  0.717317  0  4.112147  0  0  0.750591  0  4.104039  0  0  0.22273  0.695354  0  4.112595  0
C  C41  1  0.71427457  0.49058021  0.71789827  1  0  0.75896  0  3.814504  0  0  0.717247  0  4.112291  0  0  0.750518  0  4.104186  0  0  0.222709  0.695283  0  4.112737  0
C  C42  1  0.25672423  0.70226522  0.77249622  1  0  0.788662  0  3.736408  0  0  0.751175  0  4.029609  0  0  0.784579  0  4.019591  0  0  0.251692  0.727909  0  4.035185  0
C  C43  1  0.74327529  0.29773358  0.22752813  1  0  0.789053  0  3.734741  0  0  0.751498  0  4.028054  0  0  0.784909  0  4.018031  0  0  0.251892  0.728229  0  4.033633  0
C  C44  1  0.12977180  0.92747142  0.17577301  1  0  -0.462237  0  3.648944  0  0  -0.538333  0  3.87795  0  0  -0.545515  0  3.88062  0  0  -0.244456  -0.533192  0  3.876974  0
C  C45  1  0.87023458  0.07253516  0.82424455  1  0  -0.462097  0  3.649009  0  0  -0.538282  0  3.878043  0  0  -0.545462  0  3.880717  0  0  -0.244359  -0.533144  0  3.877066  0
C  C46  1  0.33560466  0.06397700  0.94922724  1  0  -0.455819  0  3.631011  0  0  -0.531368  0  3.85631  0  0  -0.539029  0  3.859881  0  0  -0.241848  -0.526438  0  3.854315  0
C  C47  1  0.66439126  0.93602664  0.05077762  1  0  -0.455796  0  3.630917  0  0  -0.531462  0  3.856183  0  0  -0.539115  0  3.859753  0  0  -0.241903  -0.526527  0  3.854173  0
C  C48  1  0.40604025  0.77685118  0.72288850  1  0  -0.471986  0  3.632532  0  0  -0.547518  0  3.858967  0  0  -0.555265  0  3.861059  0  0  -0.237328  -0.542115  0  3.858205  0
C  C49  1  0.59395785  0.22314696  0.27712435  1  0  -0.47248  0  3.632538  0  0  -0.548011  0  3.858963  0  0  -0.555755  0  3.861046  0  0  -0.237492  -0.542609  0  3.858199  0
C  C50  1  0.00372003  0.24760417  0.59682571  1  0  -0.466276  0  3.645349  0  0  -0.54197  0  3.874207  0  0  -0.549389  0  3.876528  0  0  -0.235749  -0.536752  0  3.873175  0
C  C51  1  0.99627734  0.75238430  0.40312326  1  0  -0.467057  0  3.645477  0  0  -0.542538  0  3.874333  0  0  -0.549947  0  3.876654  0  0  -0.236008  -0.537325  0  3.873315  0
C  C52  1  0.32694614  0.22265714  0.99284823  1  0  0.775542  0  3.840974  0  0  0.740087  0  4.136251  0  0  0.773691  0  4.126055  0  0  0.209766  0.717916  0  4.13667  0
C  C53  1  0.67303784  0.77732969  0.00714940  1  0  0.775669  0  3.840886  0  0  0.740404  0  4.135891  0  0  0.774007  0  4.125691  0  0  0.209961  0.718233  0  4.136313  0
C  C54  1  0.16976318  0.78589331  0.12804183  1  0  0.779531  0  3.8213  0  0  0.742855  0  4.119352  0  0  0.776536  0  4.109212  0  0  0.211479  0.719943  0  4.120645  0
C  C55  1  0.83022790  0.21409665  0.87197082  1  0  0.779367  0  3.82167  0  0  0.742707  0  4.119696  0  0  0.776378  0  4.109568  0  0  0.211323  0.719796  0  4.120989  0
O  O56  1  0.27074316  0.68648439  0.87615785  1  0  -0.663225  0  2.01795  0  0  -0.623741  0  2.261062  0  0  -0.64587  0  2.252286  0  0  -0.34075  -0.602932  0  2.26864  0
O  O57  1  0.72925913  0.31351808  0.12384916  1  0  -0.663429  0  2.016717  0  0  -0.62394  0  2.259921  0  0  -0.646065  0  2.251121  0  0  -0.340844  -0.603124  0  2.267498  0
O  O58  1  0.20183949  0.36182944  0.79166601  1  0  -0.672424  0  2.033446  0  0  -0.632279  0  2.27495  0  0  -0.653698  0  2.265117  0  0  -0.339719  -0.611642  0  2.283357  0
O  O59  1  0.79812718  0.63816492  0.20831384  1  0  -0.672487  0  2.03353  0  0  -0.63216  0  2.275097  0  0  -0.653577  0  2.265268  0  0  -0.33971  -0.611522  0  2.283499  0
O  O60  1  0.29805526  0.32407793  0.62118775  1  0  -0.574529  0  2.033743  0  0  -0.520659  0  2.23707  0  0  -0.54477  0  2.220226  0  0  -0.330306  -0.504097  0  2.247127  0
O  O61  1  0.70194092  0.67590529  0.37879231  1  0  -0.574577  0  2.033616  0  0  -0.520726  0  2.236925  0  0  -0.544853  0  2.219982  0  0  -0.330391  -0.504147  0  2.247014  0
O  O62  1  0.14172399  0.47292472  0.21605643  1  0  -0.669641  0  2.03631  0  0  -0.619932  0  2.269204  0  0  -0.644523  0  2.259628  0  0  -0.322192  -0.59811  0  2.274253  0
O  O63  1  0.85828225  0.52709200  0.78395232  1  0  -0.669695  0  2.036296  0  0  -0.619991  0  2.269134  0  0  -0.644582  0  2.25956  0  0  -0.322206  -0.598162  0  2.274182  0
O  O64  1  0.41469690  0.54980832  0.23638466  1  0  -0.682427  0  2.038148  0  0  -0.632481  0  2.271011  0  0  -0.657124  0  2.259219  0  0  -0.336535  -0.610344  0  2.277544  0
O  O65  1  0.58530153  0.45018266  0.76360721  1  0  -0.682438  0  2.038142  0  0  -0.632455  0  2.271087  0  0  -0.657077  0  2.259335  0  0  -0.336511  -0.610328  0  2.277604  0
O  O66  1  0.20145382  0.23289645  0.03176659  1  0  -0.695673  0  1.916111  0  0  -0.65261  0  2.143046  0  0  -0.676691  0  2.135334  0  0  -0.373499  -0.631323  0  2.149192  0
O  O67  1  0.79853794  0.76709767  0.96823638  1  0  -0.695623  0  1.91612  0  0  -0.652637  0  2.142989  0  0  -0.676715  0  2.135274  0  0  -0.373475  -0.631349  0  2.149134  0
O  O68  1  0.31912180  0.79608897  0.15313218  1  0  -0.707425  0  1.907444  0  0  -0.664461  0  2.133442  0  0  -0.688109  0  2.123818  0  0  -0.368623  -0.643359  0  2.140772  0
O  O69  1  0.68087899  0.20389178  0.84688774  1  0  -0.707295  0  1.907784  0  0  -0.664302  0  2.133719  0  0  -0.687946  0  2.124098  0  0  -0.368522  -0.643189  0  2.141031  0
O  O70  1  0.10936831  0.65509274  0.69710375  1  0  -0.575971  0  2.029165  0  0  -0.523065  0  2.235528  0  0  -0.547087  0  2.221624  0  0  -0.329425  -0.506472  0  2.245459  0
O  O71  1  0.89064605  0.34493209  0.30292434  1  0  -0.576059  0  2.028498  0  0  -0.523159  0  2.235012  0  0  -0.547183  0  2.221105  0  0  -0.329431  -0.506566  0  2.244942  0
O  O72  1  0.44492601  0.34873068  0.98704713  1  0  -0.832465  0  2.099458  0  0  -0.789246  0  2.364424  0  0  -0.811906  0  2.349967  0  0  -0.438972  -0.762381  0  2.372586  0
O  O73  1  0.55504603  0.65124190  0.01292637  1  0  -0.832696  0  2.099715  0  0  -0.789515  0  2.364552  0  0  -0.812197  0  2.350135  0  0  -0.439155  -0.762648  0  2.372714  0
O  O74  1  0.05264793  0.65372779  0.05946204  1  0  -0.828845  0  2.101693  0  0  -0.785301  0  2.367002  0  0  -0.808451  0  2.353253  0  0  -0.438889  -0.757776  0  2.375095  0
O  O75  1  0.94734043  0.34627167  0.94055010  1  0  -0.828847  0  2.101706  0  0  -0.785278  0  2.366926  0  0  -0.808423  0  2.353172  0  0  -0.438939  -0.757759  0  2.375029  0
