# generated using pymatgen
data_Zn2H21C20(NO4)3
_symmetry_space_group_name_H-M   'P 1'
_cell_length_a   9.70432617
_cell_length_b   10.93592043
_cell_length_c   11.17836303
_cell_angle_alpha   89.83607343
_cell_angle_beta   87.00919832
_cell_angle_gamma   91.21633178
_symmetry_Int_Tables_number   1
_chemical_formula_structural   Zn2H21C20(NO4)3
_chemical_formula_sum   'Zn2 H21 C20 N3 O12'
_cell_volume   1184.41988808
_cell_formula_units_Z   1
loop_
 _symmetry_equiv_pos_site_id
 _symmetry_equiv_pos_as_xyz
  1  'x, y, z'
loop_
 _atom_site_type_symbol
 _atom_site_label
 _atom_site_symmetry_multiplicity
 _atom_site_fract_x
 _atom_site_fract_y
 _atom_site_fract_z
 _atom_site_occupancy
 _atom_site_pbe_bader_charge
 _atom_site_pbe_bader_spin_density
 _atom_site_pbe_cm5_charge
 _atom_site_pbe_ddec_charge
 _atom_site_pbe_ddec_spin_density
 _atom_site_pbe_ddec_sum_bond_order
 _atom_site_pbe_magmom
Zn  Zn0  1  0.63722500  0.50651172  0.49358070  1  1.267194  0  0.658841  0.836873  0  2.469086  0
Zn  Zn1  1  0.35719704  0.50050192  0.50599756  1  1.271009  0  0.660946  0.836619  0  2.447123  0
H  H2  1  0.71658659  0.89066168  0.44687880  1  0.031261  0  0.089367  0.091156  0  0.986918  0
H  H3  1  0.31508883  0.11697476  0.60186655  1  0.055249  0  0.106208  0.059165  0  0.961315  0
H  H4  1  0.31924348  0.08843934  0.39670824  1  0.090136  0  0.10886  0.105132  0  0.982248  0
H  H5  1  0.28987331  0.49092638  0.11728286  1  0.062643  0  0.106126  0.104659  0  0.983933  0
H  H6  1  0.60501047  0.52932401  0.09151862  1  0.111849  0  0.107169  0.125559  0  0.988897  0
H  H7  1  0.29548288  0.52000207  0.89674446  1  0.085277  0  0.105514  0.105945  0  0.986554  0
H  H8  1  0.59993724  0.44644463  0.89813498  1  0.07805  0  0.106045  0.122731  0  0.990878  0
H  H9  1  0.86861654  0.32880437  0.43100666  1  0.187261  0  0.148509  0.123883  0  0.942793  0
H  H10  1  0.90353613  0.58634635  0.49566433  1  0.434007  0  0.318054  0.279319  0  0.915087  0
H  H11  1  0.13242588  0.35999966  0.38373414  1  0.170977  0  0.149887  0.124907  0  0.931462  0
H  H12  1  0.68035620  0.91065134  0.60109596  1  0.027231  0  0.088337  0.086737  0  0.983705  0
H  H13  1  0.08880725  0.53860588  0.57595431  1  0.422736  0  0.31996  0.282876  0  0.910037  0
H  H14  1  0.70418770  0.12282826  0.56483411  1  0.039339  0  0.091163  0.092734  0  0.990899  0
H  H15  1  0.70583953  0.10084442  0.40893994  1  0.061404  0  0.089188  0.094248  0  1.004474  0
H  H16  1  0.53591706  0.91070951  0.31024417  1  0.073686  0  0.114275  0.113746  0  0.961151  0
H  H17  1  0.29800794  0.90446617  0.59209337  1  0.053777  0  0.090115  0.103155  0  1.005381  0
H  H18  1  0.43665663  0.89806008  0.68825133  1  0.033134  0  0.093794  0.096457  0  0.988237  0
H  H19  1  0.13251585  0.84900494  0.34620444  1  0.610013  0  0.339238  0.372486  0  0.867407  0
H  H20  1  0.43812664  0.26132441  0.16350810  1  0.613073  0  0.329468  0.365078  0  0.891419  0
H  H21  1  0.55968116  0.08007094  0.73837707  1  0.385492  0  0.280172  0.261809  0  0.983523  0
H  H22  1  0.40748748  0.12978230  0.78315638  1  0.396947  0  0.285185  0.270252  0  0.970685  0
C  C23  1  0.49871382  0.48403512  0.73224984  1  1.553757  0  0.204931  0.630454  0  4.189365  0
C  C24  1  0.50283684  0.12323978  0.49266733  1  0.006122  0  -0.007677  -0.027749  0  3.73707  0
C  C25  1  0.42931053  0.06891722  0.38288637  1  -0.022378  0  -0.075977  -0.158107  0  3.766124  0
C  C26  1  0.41776312  0.07730242  0.60612465  1  0.365083  0  0.003548  0.166709  0  3.810891  0
C  C27  1  0.39016098  0.49824841  0.06818474  1  -0.050422  0  -0.07408  -0.027198  0  3.990521  0
C  C28  1  0.50229004  0.51314286  0.13369225  1  -0.05215  0  -0.089686  -0.225005  0  3.879575  0
C  C29  1  0.39158874  0.49822173  0.93830516  1  -0.063633  0  -0.077918  -0.037973  0  4.000792  0
C  C30  1  0.50155372  0.47335122  0.86420712  1  -0.004287  0  -0.089472  -0.218434  0  3.884795  0
C  C31  1  0.92261490  0.41454757  0.45240904  1  0.722759  0  0.129816  0.174404  0  3.827335  0
C  C32  1  0.07571650  0.41909646  0.44734859  1  0.643693  0  0.127713  0.173309  0  3.832235  0
C  C33  1  0.49649788  0.74330890  0.50674615  1  1.516747  0  0.219594  0.588599  0  4.101268  0
C  C34  1  0.49511487  0.51410765  0.26639534  1  1.55177  0  0.203827  0.62845  0  4.191488  0
C  C35  1  0.49979538  0.26338117  0.48955834  1  1.598667  0  0.217637  0.589672  0  4.129703  0
C  C36  1  0.64632775  0.93577830  0.51213396  1  -0.037161  0  -0.165908  -0.181177  0  3.896898  0
C  C37  1  0.65031840  0.07573549  0.49374474  1  -0.03883  0  -0.170992  -0.188404  0  3.899597  0
C  C38  1  0.45146890  0.92853302  0.37683058  1  0.00362  0  -0.072376  -0.154155  0  3.74661  0
C  C39  1  0.40497165  0.93527873  0.60259496  1  -0.081754  0  -0.166221  -0.25949  0  3.854005  0
C  C40  1  0.49907003  0.88338939  0.50049675  1  0.097588  0  -0.009381  0.030976  0  3.764711  0
C  C41  1  0.32645820  0.86271125  0.32925137  1  1.491875  0  0.227622  0.602121  0  4.062887  0
C  C42  1  0.48182504  0.13041152  0.26688581  1  1.511174  0  0.229679  0.602072  0  4.053923  0
N  N43  1  0.84900129  0.50687785  0.47977028  1  -1.170115  0  -0.427331  -0.363304  0  3.254478  0
N  N44  1  0.14585913  0.48810992  0.51460968  1  -1.166323  0  -0.427639  -0.365272  0  3.25423  0
N  N45  1  0.47835450  0.12972055  0.71261089  1  -1.11827  0  -0.632878  -0.635434  0  3.192893  0
O  O46  1  0.61550226  0.47644774  0.67475806  1  -1.155854  0  -0.328774  -0.557074  0  2.274306  0
O  O47  1  0.38325894  0.50225327  0.68609172  1  -1.168491  0  -0.327143  -0.559741  0  2.294146  0
O  O48  1  0.61066879  0.69082988  0.51878482  1  -1.164589  0  -0.318889  -0.545145  0  2.324019  0
O  O49  1  0.37940805  0.68984797  0.50002570  1  -1.164677  0  -0.316022  -0.546536  0  2.320885  0
O  O50  1  0.61048018  0.53216017  0.31449991  1  -1.157254  0  -0.330287  -0.56067  0  2.274216  0
O  O51  1  0.37855677  0.49621597  0.32239493  1  -1.157418  0  -0.322168  -0.560605  0  2.325621  0
O  O52  1  0.61423375  0.32043693  0.46868231  1  -1.1672  0  -0.315459  -0.550878  0  2.3432  0
O  O53  1  0.38274780  0.31211085  0.50631090  1  -1.170644  0  -0.317968  -0.55719  0  2.339527  0
O  O54  1  0.33000570  0.79292366  0.24438984  1  -1.121584  0  -0.298515  -0.4896  0  2.075537  0
O  O55  1  0.20411994  0.89499088  0.38664929  1  -1.118967  0  -0.345793  -0.496112  0  2.233595  0
O  O56  1  0.59006843  0.10841831  0.21119409  1  -1.14421  0  -0.302566  -0.495028  0  2.055934  0
O  O57  1  0.39356292  0.21719644  0.23231842  1  -1.128388  0  -0.339669  -0.482012  0  2.250822  0
