# generated using pymatgen
data_Hg3H22C16(N5Cl3)2
_symmetry_space_group_name_H-M   'P 1'
_cell_length_a   7.33664314
_cell_length_b   13.91436504
_cell_length_c   14.16118505
_cell_angle_alpha   70.97617679
_cell_angle_beta   90.00356614
_cell_angle_gamma   90.01078267
_symmetry_Int_Tables_number   1
_chemical_formula_structural   Hg3H22C16(N5Cl3)2
_chemical_formula_sum   'Hg6 H44 C32 N20 Cl12'
_cell_volume   1366.68435878
_cell_formula_units_Z   2
loop_
 _symmetry_equiv_pos_site_id
 _symmetry_equiv_pos_as_xyz
  1  'x, y, z'
loop_
 _atom_site_type_symbol
 _atom_site_label
 _atom_site_symmetry_multiplicity
 _atom_site_fract_x
 _atom_site_fract_y
 _atom_site_fract_z
 _atom_site_occupancy
 _atom_site_hle17_bader_spin_density
 _atom_site_hle17_ddec_charge
 _atom_site_hle17_ddec_spin_density
 _atom_site_hle17_ddec_sum_bond_order
 _atom_site_hle17_magmom
 _atom_site_hse06_10hf_bader_spin_density
 _atom_site_hse06_10hf_ddec_charge
 _atom_site_hse06_10hf_ddec_spin_density
 _atom_site_hse06_10hf_ddec_sum_bond_order
 _atom_site_hse06_10hf_magmom
 _atom_site_hse06_bader_spin_density
 _atom_site_hse06_ddec_charge
 _atom_site_hse06_ddec_spin_density
 _atom_site_hse06_ddec_sum_bond_order
 _atom_site_hse06_magmom
 _atom_site_pbe_bader_spin_density
 _atom_site_pbe_cm5_charge
 _atom_site_pbe_ddec_charge
 _atom_site_pbe_ddec_spin_density
 _atom_site_pbe_ddec_sum_bond_order
 _atom_site_pbe_magmom
Hg  Hg0  1  0.00000000  0.00000000  0.00000070  1  0  0.823114  0  2.024607  0  0  0.671131  0  2.486034  0  0  0.718271  0  2.456942  0  0  0.598833  0.638206  0  2.505612  0
Hg  Hg1  1  0.48695374  0.84328737  0.05927321  1  0  0.755814  0  2.143567  0  0  0.627892  0  2.658819  0  0  0.672098  0  2.622491  0  0  0.446925  0.597301  0  2.683431  0
Hg  Hg2  1  0.51304626  0.15671297  0.94072741  1  0  0.755811  0  2.143584  0  0  0.627891  0  2.658841  0  0  0.672095  0  2.622514  0  0  0.446929  0.597297  0  2.683459  0
Hg  Hg3  1  0.50000123  0.50000000  0.00000073  1  0  0.822794  0  2.023257  0  0  0.670366  0  2.484459  0  0  0.71755  0  2.455373  0  0  0.598612  0.637412  0  2.504027  0
Hg  Hg4  1  0.98713793  0.65672070  0.94093512  1  0  0.755446  0  2.143752  0  0  0.627596  0  2.659087  0  0  0.67179  0  2.622748  0  0  0.447081  0.597004  0  2.683716  0
Hg  Hg5  1  0.01286344  0.34328039  0.05906385  1  0  0.755449  0  2.143801  0  0  0.627593  0  2.659148  0  0  0.671788  0  2.62281  0  0  0.447083  0.597  0  2.683777  0
H  H6  1  0.94480456  0.79033102  0.58703096  1  0  0.336962  0  0.888503  0  0  0.322429  0  0.946399  0  0  0.328967  0  0.941516  0  0  0.302624  0.317828  0  0.949847  0
H  H7  1  0.05519271  0.20966932  0.41296825  1  0  0.336921  0  0.888537  0  0  0.322386  0  0.94644  0  0  0.328925  0  0.941555  0  0  0.30262  0.317786  0  0.949887  0
H  H8  1  0.97750756  0.92127413  0.56576836  1  0  0.324529  0  0.944687  0  0  0.293876  0  1.030791  0  0  0.303089  0  1.022671  0  0  0.290542  0.28739  0  1.036429  0
H  H9  1  0.02249108  0.07872697  0.43423061  1  0  0.324529  0  0.944687  0  0  0.293877  0  1.030793  0  0  0.30309  0  1.022671  0  0  0.290527  0.287392  0  1.036428  0
H  H10  1  0.55387100  0.29050161  0.58707113  1  0  0.336668  0  0.889384  0  0  0.322217  0  0.947224  0  0  0.32877  0  0.942316  0  0  0.302343  0.317611  0  0.950675  0
H  H11  1  0.44612900  0.70949875  0.41293231  1  0  0.336676  0  0.889413  0  0  0.322228  0  0.947246  0  0  0.328779  0  0.942342  0  0  0.302332  0.317621  0  0.950697  0
H  H12  1  0.52206358  0.42148215  0.56581335  1  0  0.324468  0  0.944701  0  0  0.29385  0  1.030691  0  0  0.303063  0  1.022586  0  0  0.290546  0.28738  0  1.0363  0
H  H13  1  0.47793506  0.57851590  0.43418660  1  0  0.324453  0  0.944675  0  0  0.293882  0  1.03057  0  0  0.303095  0  1.022463  0  0  0.290564  0.287411  0  1.036181  0
H  H14  1  0.92463079  0.76012753  0.10677531  1  0  0.097052  0  0.981327  0  0  0.105034  0  1.051443  0  0  0.107075  0  1.047913  0  0  0.114495  0.103341  0  1.054153  0
H  H15  1  0.07536921  0.23987509  0.89322386  1  0  0.09702  0  0.981347  0  0  0.105026  0  1.051464  0  0  0.107069  0  1.047931  0  0  0.114474  0.103335  0  1.054173  0
H  H16  1  0.02314100  0.06528897  0.22957150  1  0  0.088135  0  0.962253  0  0  0.0914  0  1.038031  0  0  0.094054  0  1.034331  0  0  0.101811  0.089381  0  1.040715  0
H  H17  1  0.97686036  0.93471213  0.77042746  1  0  0.088107  0  0.962344  0  0  0.091374  0  1.038117  0  0  0.094027  0  1.034418  0  0  0.101788  0.089357  0  1.040802  0
H  H18  1  0.80804363  0.61139762  0.24846168  1  0  0.073361  0  0.943958  0  0  0.088499  0  1.010334  0  0  0.088451  0  1.010969  0  0  0.10008  0.088364  0  1.010055  0
H  H19  1  0.19195637  0.38860347  0.75153658  1  0  0.073362  0  0.943923  0  0  0.088493  0  1.010295  0  0  0.088444  0  1.010932  0  0  0.100079  0.088359  0  1.010017  0
H  H20  1  0.78924560  0.62353320  0.36922263  1  0  0.084454  0  0.925979  0  0  0.097064  0  0.992242  0  0  0.098643  0  0.991361  0  0  0.111245  0.095904  0  0.992881  0
H  H21  1  0.21075440  0.37646637  0.63077612  1  0  0.084442  0  0.926013  0  0  0.097044  0  0.992276  0  0  0.098622  0  0.991395  0  0  0.111237  0.095884  0  0.992915  0
H  H22  1  0.14635670  0.58487467  0.27431563  1  0  0.062585  0  0.963837  0  0  0.078005  0  1.03269  0  0  0.078112  0  1.033739  0  0  0.075271  0.077823  0  1.032073  0
H  H23  1  0.85364331  0.41512642  0.72568333  1  0  0.062592  0  0.963809  0  0  0.07801  0  1.032667  0  0  0.078116  0  1.033715  0  0  0.075264  0.077818  0  1.032059  0
H  H24  1  0.12463509  0.59214626  0.39579266  1  0  0.066013  0  0.950222  0  0  0.082252  0  1.014869  0  0  0.083564  0  1.01491  0  0  0.086009  0.081251  0  1.014942  0
H  H25  1  0.87536218  0.40785330  0.60420609  1  0  0.066017  0  0.950254  0  0  0.082243  0  1.014915  0  0  0.083552  0  1.014956  0  0  0.086018  0.081244  0  1.014983  0
H  H26  1  0.12959241  0.40995610  0.40441730  1  0  0.098878  0  0.95988  0  0  0.117229  0  1.024759  0  0  0.118868  0  1.024645  0  0  0.081405  0.115987  0  1.024938  0
H  H27  1  0.87040623  0.59004499  0.59558096  1  0  0.098887  0  0.959844  0  0  0.11724  0  1.02472  0  0  0.11888  0  1.024606  0  0  0.081427  0.116002  0  1.024896  0
H  H28  1  0.94607624  0.43072609  0.31860110  1  0  0.085672  0  0.964813  0  0  0.102895  0  1.034177  0  0  0.103542  0  1.03549  0  0  0.072859  0.102346  0  1.033358  0
H  H29  1  0.05392240  0.56927424  0.68139740  1  0  0.085682  0  0.964827  0  0  0.10291  0  1.034183  0  0  0.103556  0  1.035499  0  0  0.072873  0.102363  0  1.033365  0
H  H30  1  0.91089092  0.43823937  0.44033052  1  0  0.091649  0  0.967011  0  0  0.114351  0  1.026205  0  0  0.115583  0  1.026724  0  0  0.08131  0.11342  0  1.025888  0
H  H31  1  0.08910908  0.56176019  0.55966823  1  0  0.091658  0  0.967078  0  0  0.114355  0  1.026283  0  0  0.115586  0  1.026802  0  0  0.081316  0.113425  0  1.025964  0
H  H32  1  0.47646969  0.56546322  0.22952084  1  0  0.088495  0  0.96155  0  0  0.091366  0  1.037729  0  0  0.09409  0  1.033976  0  0  0.101777  0.089318  0  1.040449  0
H  H33  1  0.52352622  0.43453714  0.77048119  1  0  0.088475  0  0.961588  0  0  0.091343  0  1.037771  0  0  0.094067  0  1.034019  0  0  0.101779  0.089295  0  1.040491  0
H  H34  1  0.57554880  0.26003624  0.10701596  1  0  0.097229  0  0.980869  0  0  0.10547  0  1.050785  0  0  0.107545  0  1.047234  0  0  0.114505  0.103713  0  1.053545  0
H  H35  1  0.42445120  0.73996107  0.89298636  1  0  0.097224  0  0.980882  0  0  0.105459  0  1.050817  0  0  0.107536  0  1.047261  0  0  0.114489  0.103677  0  1.053604  0
H  H36  1  0.70804849  0.12394349  0.37069189  1  0  0.08465  0  0.925506  0  0  0.097021  0  0.991872  0  0  0.098655  0  0.990914  0  0  0.111229  0.09572  0  0.9927  0
H  H37  1  0.29195287  0.87605381  0.62931043  1  0  0.084644  0  0.925484  0  0  0.096991  0  0.991889  0  0  0.098637  0  0.990915  0  0  0.111233  0.095699  0  0.992688  0
H  H38  1  0.69344692  0.11138981  0.24994970  1  0  0.073846  0  0.943949  0  0  0.088412  0  1.010726  0  0  0.088348  0  1.011359  0  0  0.100271  0.088288  0  1.010419  0
H  H39  1  0.30655581  0.88860826  0.75005237  1  0  0.073851  0  0.943972  0  0  0.088415  0  1.010745  0  0  0.088351  0  1.01138  0  0  0.100264  0.088289  0  1.01044  0
H  H40  1  0.36945605  0.91018292  0.40520264  1  0  0.099135  0  0.959877  0  0  0.117361  0  1.025006  0  0  0.119009  0  1.024857  0  0  0.08163  0.116141  0  1.025176  0
H  H41  1  0.63054395  0.08981589  0.59479635  1  0  0.099153  0  0.959863  0  0  0.117389  0  1.024985  0  0  0.119038  0  1.024832  0  0  0.081639  0.116168  0  1.025155  0
H  H42  1  0.58603432  0.93957364  0.44292426  1  0  0.091746  0  0.966785  0  0  0.114961  0  1.025699  0  0  0.116088  0  1.026352  0  0  0.081645  0.11407  0  1.025351  0
H  H43  1  0.41396568  0.06042517  0.55707474  1  0  0.091722  0  0.966835  0  0  0.114939  0  1.025747  0  0  0.116066  0  1.026402  0  0  0.081621  0.114049  0  1.025398  0
H  H44  1  0.55630797  0.92983292  0.32165993  1  0  0.085677  0  0.965703  0  0  0.103295  0  1.034448  0  0  0.103937  0  1.035767  0  0  0.073111  0.102755  0  1.033618  0
H  H45  1  0.44369203  0.07016665  0.67833882  1  0  0.0857  0  0.965683  0  0  0.103317  0  1.034433  0  0  0.103959  0  1.035753  0  0  0.073128  0.102776  0  1.033605  0
H  H46  1  0.35535573  0.08383251  0.27274274  1  0  0.063013  0  0.96406  0  0  0.078111  0  1.033061  0  0  0.078205  0  1.034115  0  0  0.075009  0.077895  0  1.032487  0
H  H47  1  0.64464564  0.91616858  0.72725693  1  0  0.062986  0  0.964124  0  0  0.078082  0  1.033113  0  0  0.078191  0  1.034151  0  0  0.075005  0.077865  0  1.03254  0
H  H48  1  0.37140657  0.09308166  0.39370884  1  0  0.0651  0  0.952034  0  0  0.081061  0  1.017351  0  0  0.082401  0  1.01729  0  0  0.085386  0.080074  0  1.017425  0
H  H49  1  0.62859343  0.90691716  0.60629228  1  0  0.065121  0  0.952044  0  0  0.081084  0  1.017341  0  0  0.082422  0  1.01728  0  0  0.085405  0.080097  0  1.017414  0
C  C50  1  0.93568672  0.79527525  0.16445850  1  0  0.205122  0  3.653368  0  0  0.134334  0  3.928832  0  0  0.153079  0  3.939981  0  0  0.153733  0.122089  0  3.921178  0
C  C51  1  0.06431328  0.20472661  0.83554162  1  0  0.205192  0  3.653301  0  0  0.134376  0  3.928737  0  0  0.153124  0  3.939875  0  0  0.153761  0.122129  0  3.921086  0
C  C52  1  0.97121240  0.90660451  0.24188560  1  0  0.013063  0  3.823844  0  0  0.008105  0  4.080552  0  0  0.002694  0  4.106304  0  0  0.069161  0.011127  0  4.06354  0
C  C53  1  0.02878897  0.09339736  0.75811523  1  0  0.013029  0  3.823905  0  0  0.008042  0  4.080647  0  0  0.002628  0  4.106406  0  0  0.069117  0.011068  0  4.063631  0
C  C54  1  0.99885537  0.98739524  0.27817181  1  0  0.129063  0  3.713741  0  0  0.092837  0  3.97214  0  0  0.105053  0  3.985586  0  0  0.061764  0.085083  0  3.963015  0
C  C55  1  0.00114463  0.01260586  0.72182926  1  0  0.129041  0  3.713866  0  0  0.09282  0  3.972254  0  0  0.105038  0  3.985702  0  0  0.061775  0.085061  0  3.963131  0
C  C56  1  0.96628195  0.87384290  0.44023236  1  0  0.62088  0  3.832471  0  0  0.578728  0  4.11168  0  0  0.603745  0  4.119072  0  0  0.342597  0.562009  0  4.106262  0
C  C57  1  0.03371668  0.12615895  0.55976565  1  0  0.620953  0  3.832298  0  0  0.578668  0  4.111703  0  0  0.603685  0  4.119098  0  0  0.342571  0.561949  0  4.106285  0
C  C58  1  0.94297057  0.81026580  0.31471707  1  0  0.314973  0  3.834481  0  0  0.277921  0  4.107077  0  0  0.294387  0  4.121324  0  0  0.233834  0.267189  0  4.097323  0
C  C59  1  0.05702943  0.18973531  0.68528400  1  0  0.315016  0  3.834586  0  0  0.277982  0  4.107165  0  0  0.294447  0  4.121413  0  0  0.233868  0.26725  0  4.09741  0
C  C60  1  0.88181851  0.63304763  0.30590636  1  0  0.017066  0  3.593697  0  0  -0.043218  0  3.848928  0  0  -0.038708  0  3.859877  0  0  -0.054396  -0.046107  0  3.841506  0
C  C61  1  0.11818149  0.36695346  0.69409260  1  0  0.017019  0  3.593763  0  0  -0.043225  0  3.848929  0  0  -0.038713  0  3.859871  0  0  -0.05443  -0.046117  0  3.841508  0
C  C62  1  0.05345766  0.56894960  0.33840310  1  0  -0.088396  0  3.699656  0  0  -0.124765  0  3.959727  0  0  -0.12633  0  3.974543  0  0  -0.174799  -0.12351  0  3.949398  0
C  C63  1  0.94654098  0.43105149  0.66159445  1  0  -0.088339  0  3.699692  0  0  -0.124698  0  3.959732  0  0  -0.126255  0  3.974538  0  0  -0.174763  -0.123443  0  3.94942  0
C  C64  1  0.00708463  0.45590913  0.37753667  1  0  -0.279572  0  3.701534  0  0  -0.348686  0  3.942792  0  0  -0.351396  0  3.954189  0  0  -0.252439  -0.346538  0  3.934933  0
C  C65  1  0.99291673  0.54409120  0.62246184  1  0  -0.279622  0  3.701626  0  0  -0.34875  0  3.942909  0  0  -0.351461  0  3.954305  0  0  -0.252492  -0.346605  0  3.935043  0
C  C66  1  0.50039029  0.48753597  0.27812932  1  0  0.128349  0  3.712606  0  0  0.092167  0  3.971287  0  0  0.104299  0  3.984757  0  0  0.061508  0.084434  0  3.962172  0
C  C67  1  0.49960834  0.51246284  0.72187109  1  0  0.128396  0  3.712665  0  0  0.092214  0  3.97134  0  0  0.10435  0  3.984807  0  0  0.061498  0.084483  0  3.962226  0
C  C68  1  0.52799467  0.40670622  0.24189480  1  0  0.012924  0  3.825691  0  0  0.007941  0  4.081779  0  0  0.002553  0  4.107586  0  0  0.068556  0.010955  0  4.064727  0
C  C69  1  0.47200533  0.59329184  0.75810656  1  0  0.012819  0  3.825767  0  0  0.007816  0  4.081901  0  0  0.002422  0  4.107714  0  0  0.06856  0.010829  0  4.064852  0
C  C70  1  0.55599797  0.31040720  0.31480873  1  0  0.313936  0  3.837818  0  0  0.277725  0  4.109214  0  0  0.294123  0  4.123593  0  0  0.23374  0.267027  0  4.099391  0
C  C71  1  0.44400612  0.68959087  0.68519263  1  0  0.313981  0  3.837784  0  0  0.277763  0  4.109213  0  0  0.294163  0  4.123592  0  0  0.233697  0.267067  0  4.099387  0
C  C72  1  0.53247864  0.37399244  0.44026812  1  0  0.620889  0  3.831174  0  0  0.579327  0  4.109809  0  0  0.60437  0  4.117141  0  0  0.342822  0.562594  0  4.104437  0
C  C73  1  0.46752272  0.62600713  0.55973133  1  0  0.620984  0  3.831164  0  0  0.57944  0  4.109791  0  0  0.604481  0  4.117122  0  0  0.342861  0.562707  0  4.104418  0
C  C74  1  0.56411215  0.29525257  0.16463102  1  0  0.205266  0  3.652772  0  0  0.134097  0  3.92813  0  0  0.152859  0  3.939268  0  0  0.153708  0.121874  0  3.920521  0
C  C75  1  0.43589058  0.70474550  0.83537105  1  0  0.205198  0  3.652809  0  0  0.134042  0  3.928123  0  0  0.152802  0  3.939263  0  0  0.153749  0.121839  0  3.92053  0
C  C76  1  0.61749902  0.13318176  0.30660252  1  0  0.017099  0  3.595709  0  0  -0.042628  0  3.850314  0  0  -0.038099  0  3.861199  0  0  -0.053683  -0.04543  0  3.842836  0
C  C77  1  0.38250370  0.86681707  0.69339930  1  0  0.017161  0  3.59567  0  0  -0.042562  0  3.850254  0  0  -0.038041  0  3.861143  0  0  -0.053658  -0.045359  0  3.842778  0
C  C78  1  0.49231701  0.95611949  0.37910584  1  0  -0.279608  0  3.703397  0  0  -0.349364  0  3.944309  0  0  -0.352002  0  3.955735  0  0  -0.252435  -0.34728  0  3.936398  0
C  C79  1  0.50768163  0.04388008  0.62089291  1  0  -0.279645  0  3.703381  0  0  -0.349432  0  3.944291  0  0  -0.352072  0  3.95572  0  0  -0.252472  -0.347346  0  3.936382  0
C  C80  1  0.44562850  0.06900149  0.33780648  1  0  -0.088573  0  3.70187  0  0  -0.12434  0  3.961025  0  0  -0.125896  0  3.975854  0  0  -0.174716  -0.123066  0  3.950681  0
C  C81  1  0.55437150  0.93099809  0.66219368  1  0  -0.088616  0  3.701969  0  0  -0.124351  0  3.961065  0  0  -0.125916  0  3.975893  0  0  -0.174715  -0.123077  0  3.950722  0
N  N82  1  0.96502989  0.89389405  0.14828506  1  0  -0.35846  0  3.346705  0  0  -0.271938  0  3.622759  0  0  -0.297992  0  3.647425  0  0  -0.335461  -0.254451  0  3.605943  0
N  N83  1  0.03497011  0.10610704  0.85171461  1  0  -0.358414  0  3.346641  0  0  -0.271888  0  3.622711  0  0  -0.297943  0  3.647378  0  0  -0.335411  -0.254403  0  3.605894  0
N  N84  1  0.91927968  0.74206887  0.26307897  1  0  -0.132493  0  3.475289  0  0  -0.042955  0  3.700188  0  0  -0.060596  0  3.721081  0  0  -0.228881  -0.031368  0  3.685911  0
N  N85  1  0.08071896  0.25793222  0.73691999  1  0  -0.132565  0  3.475321  0  0  -0.043043  0  3.70022  0  0  -0.06068  0  3.721107  0  0  -0.228928  -0.031456  0  3.685944  0
N  N86  1  0.93929520  0.79026261  0.41260069  1  0  -0.485605  0  2.934659  0  0  -0.452503  0  3.202138  0  0  -0.470016  0  3.209799  0  0  -0.330268  -0.440759  0  3.196713  0
N  N87  1  0.06070480  0.20973925  0.58739943  1  0  -0.485619  0  2.934617  0  0  -0.452483  0  3.202142  0  0  -0.469999  0  3.209806  0  0  -0.330235  -0.440738  0  3.196717  0
N  N88  1  0.99591597  0.97066436  0.37649853  1  0  -0.444329  0  3.020431  0  0  -0.386661  0  3.272917  0  0  -0.406881  0  3.285455  0  0  -0.314907  -0.373289  0  3.264363  0
N  N89  1  0.00408539  0.02933750  0.62350089  1  0  -0.444309  0  3.020379  0  0  -0.386578  0  3.272884  0  0  -0.406799  0  3.285426  0  0  -0.314875  -0.373206  0  3.264331  0
N  N90  1  0.96429117  0.86130093  0.53843384  1  0  -0.692469  0  3.122602  0  0  -0.656974  0  3.368598  0  0  -0.678808  0  3.362809  0  0  -0.57081  -0.641689  0  3.372165  0
N  N91  1  0.03570611  0.13870169  0.46156533  1  0  -0.692442  0  3.12258  0  0  -0.656914  0  3.36863  0  0  -0.678748  0  3.362842  0  0  -0.570797  -0.641628  0  3.372194  0
N  N92  1  0.50314968  0.47080841  0.37645722  1  0  -0.444558  0  3.020781  0  0  -0.386808  0  3.272916  0  0  -0.407007  0  3.285371  0  0  -0.315087  -0.373447  0  3.264422  0
N  N93  1  0.49685304  0.52918889  0.62354298  1  0  -0.444636  0  3.020797  0  0  -0.386822  0  3.272851  0  0  -0.407022  0  3.285304  0  0  -0.315086  -0.373463  0  3.264358  0
N  N94  1  0.53425797  0.36145442  0.53846370  1  0  -0.692365  0  3.121774  0  0  -0.657418  0  3.367889  0  0  -0.679273  0  3.362098  0  0  -0.570899  -0.642126  0  3.371431  0
N  N95  1  0.46574067  0.63854517  0.46153717  1  0  -0.692346  0  3.121816  0  0  -0.657437  0  3.367928  0  0  -0.679291  0  3.362133  0  0  -0.570883  -0.642145  0  3.371471  0
N  N96  1  0.55940621  0.29039287  0.41268609  1  0  -0.484506  0  2.93521  0  0  -0.452049  0  3.202466  0  0  -0.469563  0  3.210169  0  0  -0.329748  -0.440302  0  3.197019  0
N  N97  1  0.44059788  0.70960443  0.58731552  1  0  -0.484603  0  2.935236  0  0  -0.45215  0  3.202494  0  0  -0.469663  0  3.210193  0  0  -0.329778  -0.440406  0  3.197045  0
N  N98  1  0.53465862  0.39387934  0.14834009  1  0  -0.357877  0  3.347303  0  0  -0.270972  0  3.622869  0  0  -0.29704  0  3.647542  0  0  -0.334554  -0.253472  0  3.606023  0
N  N99  1  0.46534138  0.60611947  0.85165962  1  0  -0.357829  0  3.347361  0  0  -0.270908  0  3.622904  0  0  -0.296973  0  3.647577  0  0  -0.334586  -0.25341  0  3.606058  0
N  N100  1  0.58009600  0.24214472  0.26329667  1  0  -0.132548  0  3.476803  0  0  -0.043244  0  3.701468  0  0  -0.060934  0  3.722498  0  0  -0.229156  -0.031635  0  3.687097  0
N  N101  1  0.41990809  0.75785335  0.73670469  1  0  -0.132475  0  3.476756  0  0  -0.043178  0  3.701421  0  0  -0.060871  0  3.72246  0  0  -0.229161  -0.031567  0  3.687034  0
Cl  Cl102  1  0.17690852  0.83821945  0.95108999  1  0  -0.551291  0  1.071292  0  0  -0.498453  0  1.38895  0  0  -0.519944  0  1.366591  0  0  -0.295544  -0.482435  0  1.403777  0
Cl  Cl103  1  0.82309284  0.16178240  0.04890802  1  0  -0.551287  0  1.071289  0  0  -0.498453  0  1.388955  0  0  -0.519944  0  1.366597  0  0  -0.295543  -0.482432  0  1.403775  0
Cl  Cl104  1  0.40370507  0.76351253  0.22742486  1  0  -0.41564  0  1.030941  0  0  -0.35705  0  1.30732  0  0  -0.373331  0  1.291597  0  0  -0.23623  -0.346183  0  1.318276  0
Cl  Cl105  1  0.59629357  0.23648780  0.77257506  1  0  -0.415633  0  1.030937  0  0  -0.357037  0  1.307307  0  0  -0.373318  0  1.291583  0  0  -0.236226  -0.34617  0  1.318263  0
Cl  Cl106  1  0.64927825  0.94840857  0.91544993  1  0  -0.428606  0  1.148967  0  0  -0.365142  0  1.461177  0  0  -0.386091  0  1.442756  0  0  -0.231838  -0.350516  0  1.473581  0
Cl  Cl107  1  0.35072312  0.05159177  0.08454999  1  0  -0.428606  0  1.148968  0  0  -0.365158  0  1.461205  0  0  -0.386099  0  1.442768  0  0  -0.231845  -0.350532  0  1.47361  0
Cl  Cl108  1  0.67652179  0.66184890  0.04884842  1  0  -0.551369  0  1.071523  0  0  -0.498511  0  1.389239  0  0  -0.520023  0  1.366904  0  0  -0.295442  -0.482489  0  1.404057  0
Cl  Cl109  1  0.32347958  0.33814991  0.95115128  1  0  -0.551374  0  1.071514  0  0  -0.49852  0  1.389233  0  0  -0.520034  0  1.366901  0  0  -0.295437  -0.482494  0  1.404045  0
Cl  Cl110  1  0.14894439  0.55152401  0.08486234  1  0  -0.428499  0  1.147452  0  0  -0.364937  0  1.459523  0  0  -0.385817  0  1.44098  0  0  -0.231902  -0.350347  0  1.471994  0
Cl  Cl111  1  0.85105425  0.44847556  0.91513712  1  0  -0.42851  0  1.147459  0  0  -0.364949  0  1.459532  0  0  -0.385831  0  1.44099  0  0  -0.231904  -0.350356  0  1.471995  0
Cl  Cl112  1  0.90404362  0.73681495  0.77283017  1  0  -0.415365  0  1.03191  0  0  -0.356955  0  1.308799  0  0  -0.373272  0  1.293103  0  0  -0.236045  -0.346052  0  1.319717  0
Cl  Cl113  1  0.09595774  0.26318538  0.22716833  1  0  -0.415384  0  1.031939  0  0  -0.356953  0  1.308802  0  0  -0.373272  0  1.293107  0  0  -0.23606  -0.346052  0  1.319722  0
