# generated using pymatgen
data_Zn4H49C89I3(N8O5)2
_symmetry_space_group_name_H-M   'P 1'
_cell_length_a   19.15275112
_cell_length_b   19.07921723
_cell_length_c   20.12061727
_cell_angle_alpha   104.66797469
_cell_angle_beta   108.02447164
_cell_angle_gamma   112.92803027
_symmetry_Int_Tables_number   1
_chemical_formula_structural   Zn4H49C89I3(N8O5)2
_chemical_formula_sum   'Zn4 H49 C89 I3 N16 O10'
_cell_volume   5823.42518157
_cell_formula_units_Z   1
loop_
 _symmetry_equiv_pos_site_id
 _symmetry_equiv_pos_as_xyz
  1  'x, y, z'
loop_
 _atom_site_type_symbol
 _atom_site_label
 _atom_site_symmetry_multiplicity
 _atom_site_fract_x
 _atom_site_fract_y
 _atom_site_fract_z
 _atom_site_occupancy
 _atom_site_pbe_bader_charge
 _atom_site_pbe_bader_spin_density
 _atom_site_pbe_cm5_charge
 _atom_site_pbe_ddec_charge
 _atom_site_pbe_ddec_spin_density
 _atom_site_pbe_ddec_sum_bond_order
 _atom_site_pbe_magmom
Zn  Zn0  1  0.87351517  0.88323916  0.50113080  1  1.191927  0  0.739773  0.612836  0  2.408403  0
Zn  Zn1  1  0.10334114  0.10140138  0.50963475  1  1.184038  0  0.731284  0.591595  0  2.525943  0
Zn  Zn2  1  0.08171544  0.98180397  0.60486246  1  1.189866  0  0.746875  0.60919  0  2.464927  0
Zn  Zn3  1  0.89929754  0.99775747  0.40405279  1  1.192679  0  0.746203  0.615762  0  2.434476  0
H  H4  1  0.83408694  0.00436916  0.61033353  1  0.099001  0  0.114714  0.100014  0  1.017345  0
H  H5  1  0.12315716  0.99981540  0.37799131  1  0.094145  0  0.117564  0.107172  0  1.008769  0
H  H6  1  0.09739758  0.84708981  0.67739903  1  0.047316  0  0.117453  0.105265  0  0.998543  0
H  H7  1  0.88970658  0.04903507  0.25498879  1  0.078404  0  0.122176  0.11157  0  0.989767  0
H  H8  1  0.16307133  0.19622573  0.39941564  1  0.110528  0  0.107961  0.093446  0  1.030825  0
H  H9  1  0.82619543  0.70481498  0.52459464  1  0.117111  0  0.106134  0.098151  0  1.035241  0
H  H10  1  0.89113748  0.86939136  0.25629238  1  0.099145  0  0.123112  0.116426  0  0.988105  0
H  H11  1  0.12938009  0.85521313  0.51265387  1  0.081301  0  0.117334  0.104632  0  1.000479  0
H  H12  1  0.19195777  0.79618310  0.43895979  1  0.094006  0  0.099921  0.112475  0  1.044854  0
H  H13  1  0.23618727  0.99826632  0.36920598  1  0.059919  0  0.098962  0.098157  0  1.020701  0
H  H14  1  0.34721337  0.04824289  0.33083346  1  0.06348  0  0.099901  0.110778  0  1.005563  0
H  H15  1  0.12787497  0.26672306  0.63559533  1  0.101362  0  0.115807  0.103349  0  1.002758  0
H  H16  1  0.53939669  0.80408423  0.41632214  1  0.058547  0  0.106076  0.109888  0  1.001635  0
H  H17  1  0.41648622  0.74013398  0.43806955  1  0.100652  0  0.112692  0.121533  0  0.988847  0
H  H18  1  0.08935643  0.72247585  0.63403229  1  0.049445  0  0.097152  0.097357  0  1.022442  0
H  H19  1  0.77159619  0.45679171  0.60760669  1  0.070114  0  0.086436  0.093163  0  1.054516  0
H  H20  1  0.78112248  0.33130868  0.60158103  1  0.047859  0  0.099834  0.103548  0  0.992427  0
H  H21  1  0.85911769  0.25268603  0.59109948  1  0.06976  0  0.097963  0.101863  0  1.012117  0
H  H22  1  0.28821871  0.09284147  0.74861477  1  0.075542  0  0.121858  0.111676  0  0.988824  0
H  H23  1  0.11836916  0.38501513  0.62794298  1  0.062068  0  0.098778  0.10017  0  1.015164  0
H  H24  1  0.19056143  0.53555524  0.65978782  1  0.048694  0  0.103147  0.105436  0  0.991216  0
H  H25  1  0.17952731  0.66102447  0.66141559  1  0.065767  0  0.100555  0.1028  0  0.995717  0
H  H26  1  0.40031394  0.24482545  0.85439712  1  0.0754  0  0.101373  0.101518  0  0.999788  0
H  H27  1  0.48107726  0.25514113  0.67789517  1  0.080064  0  0.096474  0.103269  0  1.010219  0
H  H28  1  0.82898670  0.50396286  0.15065262  1  0.042389  0  0.10485  0.105253  0  0.985593  0
H  H29  1  0.54418071  0.35897809  0.95387419  1  0.057537  0  0.10294  0.103498  0  1.002636  0
H  H30  1  0.89537536  0.63247247  0.27075071  1  0.071343  0  0.103838  0.105702  0  0.993687  0
H  H31  1  0.71060720  0.98329586  0.33894331  1  0.132044  0  0.120529  0.127103  0  1.016602  0
H  H32  1  0.68529241  0.40693067  0.01962831  1  0.082237  0  0.105017  0.101867  0  0.991461  0
H  H33  1  0.69189478  0.59983468  0.02535059  1  0.092639  0  0.107369  0.110343  0  0.997554  0
H  H34  1  0.62596966  0.36812409  0.77756942  1  0.090785  0  0.109622  0.11813  0  0.9802  0
H  H35  1  0.09740676  0.23915720  0.83276196  1  0.036326  0  0.098372  0.097921  0  1.003382  0
H  H36  1  0.92581465  0.17841030  0.22425252  1  0.058836  0  0.101907  0.101603  0  1.000451  0
H  H37  1  0.09784194  0.25056666  0.05136352  1  0.05946  0  0.098337  0.096203  0  1.011287  0
H  H38  1  0.83057139  0.11092188  0.85567831  1  0.078435  0  0.099849  0.098303  0  0.998184  0
H  H39  1  0.92503260  0.22145452  0.11866778  1  0.058833  0  0.103304  0.10216  0  0.995523  0
H  H40  1  0.82997323  0.05571701  0.73086370  1  0.055878  0  0.098704  0.099046  0  1.003746  0
H  H41  1  0.90690362  0.18968062  0.99397426  1  0.044588  0  0.098937  0.095583  0  1.005381  0
H  H42  1  0.09840424  0.29270584  0.95796548  1  0.081005  0  0.100459  0.099841  0  1.001315  0
H  H43  1  0.15858833  0.22174167  0.15181515  1  0.067768  0  0.107287  0.112069  0  0.993604  0
H  H44  1  0.68276325  0.85678050  0.48761954  1  0.098882  0  0.118608  0.105645  0  0.997606  0
H  H45  1  0.85398761  0.12891994  0.49162043  1  0.107288  0  0.114608  0.106079  0  1.016139  0
H  H46  1  0.10915900  0.13727654  0.74506593  1  0.082726  0  0.116075  0.102768  0  1.003682  0
H  H47  1  0.85210857  0.71400835  0.38075101  1  0.095317  0  0.117801  0.107787  0  0.999366  0
H  H48  1  0.69200736  0.17712494  0.46978242  1  0.620193  0  0.335731  0.375228  0  0.868722  0
H  H49  1  0.17785380  0.63767988  0.44565397  1  0.618576  0  0.346826  0.382285  0  0.85101  0
H  H50  1  0.66916386  0.77089383  0.17783761  1  0.592001  0  0.34182  0.378646  0  0.856656  0
H  H51  1  0.60163987  0.48115371  0.83483465  1  0.615751  0  0.31793  0.351298  0  0.921043  0
H  H52  1  0.19359178  0.07900378  0.27067403  1  0.59099  0  0.336526  0.37065  0  0.871301  0
C  C53  1  0.90218496  0.02818366  0.63413290  1  0.373173  0  0.009959  -0.041435  0  3.954514  0
C  C54  1  0.98939337  0.23066947  0.57933464  1  0.050348  0  -0.036054  -0.040338  0  4.06693  0
C  C55  1  0.33971454  0.18574246  0.70183891  1  0.078275  0  -0.038453  -0.072019  0  4.082529  0
C  C56  1  0.66277446  0.92149639  0.40962751  1  0.000883  0  -0.042943  -0.050958  0  4.074813  0
C  C57  1  0.86541104  0.76352971  0.36102776  1  0.38724  0  0.009945  -0.044597  0  3.954821  0
C  C58  1  0.11887458  0.96969712  0.41684506  1  0.407002  0  0.008684  -0.045797  0  3.956712  0
C  C59  1  0.03193337  0.82334710  0.63688792  1  0.438007  0  0.004706  -0.057745  0  4.005878  0
C  C60  1  0.95491633  0.08047110  0.29992409  1  0.406046  0  0.010432  -0.051153  0  3.988395  0
C  C61  1  0.09447635  0.15456744  0.37273129  1  0.383668  0  0.004276  -0.050506  0  4.002844  0
C  C62  1  0.89357001  0.75100172  0.55979787  1  0.390753  0  -2.9e-05  -0.056117  0  4.002672  0
C  C63  1  0.88391247  0.84269892  0.29712302  1  0.424063  0  0.010262  -0.046539  0  3.966431  0
C  C64  1  0.06139459  0.22154988  0.59463079  1  0.382745  0  0.007301  -0.051188  0  3.974369  0
C  C65  1  0.12105837  0.89541210  0.48499432  1  0.419537  0  0.010188  -0.043369  0  3.952346  0
C  C66  1  0.86090539  0.76028926  0.28912446  1  0.050483  0  -0.038034  -0.046301  0  4.08461  0
C  C67  1  0.14701225  0.91433802  0.43037633  1  0.011466  0  -0.035895  -0.040998  0  4.060139  0
C  C68  1  0.95934619  0.74379204  0.60767023  1  0.034223  0  -0.042405  -0.03418  0  4.070137  0
C  C69  1  0.03065465  0.13693046  0.30254373  1  0.076433  0  -0.038302  -0.038734  0  4.094425  0
C  C70  1  0.22847454  0.83930056  0.42026629  1  -0.047145  0  -0.093027  -0.184916  0  3.912421  0
C  C71  1  0.20675665  0.89872263  0.40728267  1  0.033153  0  -0.004904  0.102499  0  4.070718  0
C  C72  1  0.25185654  0.95182937  0.38016995  1  -0.064167  0  -0.087001  -0.175471  0  3.933662  0
C  C73  1  0.32210134  0.95186887  0.37296820  1  -0.010984  0  -0.010275  0.091472  0  4.077709  0
C  C74  1  0.34764404  0.89534911  0.39075754  1  -0.003742  0  -0.000203  -0.008472  0  3.923505  0
C  C75  1  0.27849593  0.11903671  0.70682033  1  0.436462  0  0.010571  -0.049766  0  3.998812  0
C  C76  1  0.29709168  0.83509888  0.41176374  1  1.2e-05  0  -0.000325  0.067225  0  3.984582  0
C  C77  1  0.37112219  0.00994127  0.35016660  1  0.081709  0  -0.096302  -0.163564  0  3.998672  0
C  C78  1  0.44591556  0.01836622  0.35160501  1  -0.270104  0  -0.047072  0.01696  0  3.885343  0
C  C79  1  0.47967554  0.96868706  0.37702700  1  0.045217  0  -0.003127  0.03279  0  3.950162  0
C  C80  1  0.42456215  0.90317403  0.39062382  1  -0.004062  0  0.007671  0.015285  0  3.911011  0
C  C81  1  0.44938744  0.84587681  0.40775663  1  -0.036903  0  -0.007459  0.080318  0  4.08191  0
C  C82  1  0.39711056  0.78372831  0.42496046  1  0.019367  0  -0.067529  -0.119204  0  3.934084  0
C  C83  1  0.32417113  0.77731761  0.42779291  1  -0.046657  0  -0.013225  -0.084431  0  3.946464  0
C  C84  1  0.56109911  0.97930100  0.38916270  1  -0.020289  0  -0.011489  -0.113521  0  3.850836  0
C  C85  1  0.58241922  0.91822976  0.40056890  1  0.004479  0  0.002172  0.081303  0  4.014267  0
C  C86  1  0.71631668  0.95207051  0.37669283  1  0.450038  0  0.005541  -0.048248  0  3.982606  0
C  C87  1  0.52439485  0.85172514  0.40791847  1  -0.002727  0  -0.084476  -0.174105  0  3.939804  0
C  C88  1  0.03686752  0.67024335  0.63251397  1  -0.051788  0  -0.094036  -0.183269  0  3.962879  0
C  C89  1  0.96095992  0.67154870  0.61971643  1  0.053373  0  -0.016442  0.057665  0  4.057384  0
C  C90  1  0.89394522  0.60302608  0.61782762  1  -0.218282  0  -0.045762  -0.037511  0  3.807961  0
C  C91  1  0.89870867  0.53149014  0.62087307  1  0.006617  0  -0.014991  0.046644  0  4.016728  0
C  C92  1  0.97617203  0.53154861  0.63077626  1  -0.024483  0  0.001591  0.008289  0  3.917421  0
C  C93  1  0.04710617  0.60370814  0.63988405  1  0.01021  0  -0.013039  0.07806  0  4.080175  0
C  C94  1  0.83009079  0.45719745  0.61273810  1  -0.032001  0  -0.100106  -0.127334  0  4.011321  0
C  C95  1  0.83552084  0.38708233  0.60931555  1  -0.044965  0  -0.092661  -0.130587  0  4.008088  0
C  C96  1  0.91047282  0.38399226  0.61452796  1  -0.027944  0  -0.0105  0.080701  0  4.063363  0
C  C97  1  0.29011685  0.18934807  0.63585288  1  0.237925  0  0.039836  0.071021  0  3.976907  0
C  C98  1  0.98215353  0.45913281  0.62867280  1  0.017979  0  -3.8e-05  -0.001146  0  3.914088  0
C  C99  1  0.05926086  0.45964240  0.63704347  1  -0.015996  0  -0.010199  0.080316  0  4.061979  0
C  C100  1  0.13133126  0.53523741  0.65148127  1  -0.059263  0  -0.091804  -0.132001  0  4.025583  0
C  C101  1  0.12521193  0.60424917  0.65226481  1  -0.05433  0  -0.096206  -0.141107  0  4.03597  0
C  C102  1  0.91479265  0.31029549  0.60326936  1  -0.017642  0  -0.093044  -0.192822  0  3.934812  0
C  C103  1  0.98821504  0.30892136  0.60539399  1  0.010653  0  -0.008175  0.099634  0  4.071997  0
C  C104  1  0.06067630  0.38492068  0.62574529  1  -0.088615  0  -0.090322  -0.185455  0  3.93723  0
C  C105  1  0.82786944  0.68707982  0.21798940  1  0.000823  0  0.006285  0.083839  0  3.986098  0
C  C106  1  0.76986447  0.67606683  0.14691249  1  0.012506  0  -0.010657  -0.067388  0  3.927272  0
C  C107  1  0.73784233  0.60692779  0.07853466  1  -0.034333  0  -0.071163  -0.119889  0  3.908341  0
C  C108  1  0.70171607  0.88698405  0.45212152  1  0.367234  0  0.006682  -0.05866  0  4.006258  0
C  C109  1  0.75697010  0.54281842  0.07829500  1  0.020451  0  -0.009847  0.106411  0  4.044435  0
C  C110  1  0.81326888  0.55290934  0.14919161  1  -0.009003  0  -0.082155  -0.115642  0  3.97147  0
C  C111  1  0.84959124  0.62449972  0.21691670  1  -0.036649  0  -0.089098  -0.132106  0  3.997449  0
C  C112  1  0.53149234  0.33436629  0.89365166  1  -0.008582  0  -0.091096  -0.121155  0  3.996651  0
C  C113  1  0.45028076  0.27035405  0.83753915  1  -0.067647  0  -0.093905  -0.131025  0  3.997441  0
C  C114  1  0.49475161  0.27781349  0.73847477  1  -0.100589  0  -0.096983  -0.134506  0  3.996067  0
C  C115  1  0.57665757  0.34170085  0.79495591  1  -0.049522  0  -0.09335  -0.14086  0  3.997751  0
C  C116  1  0.59609455  0.37375570  0.87375839  1  -0.021295  0  -0.019509  0.063039  0  4.052712  0
C  C117  1  0.70728102  0.46335272  0.00907613  1  0.00333  0  -0.06777  -0.111579  0  3.925462  0
C  C118  1  0.67526200  0.45178415  0.93405236  1  -0.123748  0  -0.026549  -0.130039  0  3.993768  0
C  C119  1  0.92148698  0.15079123  0.52200234  1  0.376926  0  0.010603  -0.041613  0  3.941669  0
C  C120  1  0.42920587  0.24328351  0.75856890  1  -0.009353  0  -0.011188  0.096389  0  4.040811  0
C  C121  1  0.96491289  0.13945401  0.77312072  1  -0.004682  0  -0.010011  0.086107  0  4.042779  0
C  C122  1  0.03880293  0.20975309  0.83769100  1  -0.029109  0  -0.095896  -0.135313  0  4.004458  0
C  C123  1  0.03939736  0.24016502  0.90834143  1  -0.111587  0  -0.092924  -0.129045  0  3.994358  0
C  C124  1  0.96579180  0.20179204  0.91772072  1  0.050288  0  -0.018265  0.101679  0  4.057749  0
C  C125  1  0.88926161  0.13970122  0.85064638  1  -0.163641  0  -0.092303  -0.129595  0  3.995236  0
C  C126  1  0.88901360  0.10859402  0.78012923  1  0.035523  0  -0.096347  -0.135117  0  4.002809  0
C  C127  1  0.97566176  0.21057448  0.14752592  1  -0.073196  0  -0.084976  -0.114599  0  3.977711  0
C  C128  1  0.97541637  0.18523102  0.20627831  1  0.002687  0  -0.091102  -0.134962  0  4.008851  0
C  C129  1  0.10448648  0.18238796  0.22355064  1  -0.005839  0  -0.015862  -0.07666  0  3.950504  0
C  C130  1  0.04260791  0.09679978  0.70230100  1  0.404469  0  0.009585  -0.044447  0  3.96678  0
C  C131  1  0.10663023  0.21199169  0.16697273  1  -0.004728  0  -0.078189  -0.138392  0  3.926286  0
C  C132  1  0.04058336  0.22235542  0.12492053  1  0.009809  0  -0.013114  0.109724  0  4.066018  0
C  C133  1  0.96844132  0.21287170  0.99296059  1  -0.095476  0  -0.092918  -0.130899  0  4.00444  0
C  C134  1  0.03861976  0.23432113  0.05595264  1  -0.034157  0  -0.097246  -0.142274  0  4.014545  0
C  C135  1  0.03772223  0.16785422  0.24425458  1  -0.01873  0  -4.5e-05  0.076931  0  3.995678  0
C  C136  1  0.96929044  0.09419474  0.70557262  1  0.048855  0  -0.033998  -0.03781  0  4.065355  0
C  C137  1  0.63083072  0.06144115  0.40233196  1  1.470405  0  0.220157  0.576274  0  4.142179  0
C  C138  1  0.28091447  0.70929588  0.44939476  1  1.499235  0  0.227305  0.574412  0  4.11671  0
C  C139  1  0.73317776  0.73202897  0.14135485  1  1.472234  0  0.230018  0.581283  0  4.13464  0
C  C140  1  0.71479816  0.52266900  0.91307425  1  1.499975  0  0.221103  0.564467  0  4.128069  0
C  C141  1  0.17306706  0.16317605  0.25394664  1  1.480318  0  0.227583  0.582158  0  4.112865  0
I  I142  1  0.49809749  0.09911218  0.30323848  1  0.110307  0  0.061437  -0.04082  0  1.397976  0
I  I143  1  0.78438096  0.60783111  0.61491445  1  0.083042  0  0.065788  -0.04748  0  1.420992  0
I  I144  1  0.32369339  0.27058165  0.58471522  1  0.143169  0  0.109618  -0.00364  0  1.399772  0
N  N145  1  0.93373893  0.99421471  0.59299424  1  -0.793075  0  -0.281975  -0.183178  0  3.639574  0
N  N146  1  0.08179487  0.98408814  0.46150137  1  -0.762394  0  -0.28342  -0.185334  0  3.621857  0
N  N147  1  0.01117932  0.87312032  0.60894535  1  -0.81446  0  -0.27611  -0.174598  0  3.568815  0
N  N148  1  0.97245679  0.06531677  0.36304655  1  -0.806802  0  -0.272677  -0.173253  0  3.547413  0
N  N149  1  0.05937985  0.11184689  0.40854924  1  -0.790369  0  -0.272315  -0.174547  0  3.558837  0
N  N150  1  0.92482448  0.82809712  0.56089236  1  -0.792524  0  -0.267575  -0.166673  0  3.525424  0
N  N151  1  0.89894010  0.88994487  0.36753326  1  -0.778336  0  -0.279483  -0.174119  0  3.647758  0
N  N152  1  0.08300178  0.93833226  0.50346552  1  -0.799632  0  -0.280449  -0.179573  0  3.60472  0
N  N153  1  0.03764370  0.14290467  0.54930447  1  -0.778168  0  -0.286247  -0.176947  0  3.646839  0
N  N154  1  0.20019753  0.08643104  0.64935321  1  -0.786892  0  -0.263113  -0.156807  0  3.523132  0
N  N155  1  0.78116998  0.93765942  0.39844927  1  -0.80387  0  -0.27382  -0.177984  0  3.543635  0
N  N156  1  0.20727427  0.13086523  0.60538870  1  -0.775546  0  -0.272375  -0.202608  0  3.540132  0
N  N157  1  0.77219909  0.89692059  0.44541371  1  -0.786775  0  -0.267167  -0.173291  0  3.530971  0
N  N158  1  0.95169432  0.09934764  0.50431535  1  -0.798382  0  -0.278339  -0.180081  0  3.599929  0
N  N159  1  0.01996346  0.03642746  0.63490504  1  -0.790157  0  -0.286721  -0.186277  0  3.666871  0
N  N160  1  0.88711640  0.84146585  0.40677029  1  -0.798899  0  -0.27999  -0.178806  0  3.621183  0
O  O161  1  0.67264047  0.07326948  0.36697320  1  -1.124658  0  -0.290194  -0.492351  0  2.156461  0
O  O162  1  0.64796975  0.12535894  0.46593327  1  -1.114642  0  -0.343892  -0.491332  0  2.228895  0
O  O163  1  0.31565962  0.67663208  0.48103401  1  -1.132077  0  -0.30544  -0.499016  0  2.051669  0
O  O164  1  0.19693999  0.68312523  0.42942762  1  -1.120606  0  -0.335255  -0.481889  0  2.237268  0
O  O165  1  0.73571957  0.76933816  0.10021319  1  -1.111506  0  -0.302702  -0.492952  0  2.03774  0
O  O166  1  0.69090701  0.73314178  0.18490279  1  -1.086043  0  -0.340464  -0.48896  0  2.215808  0
O  O167  1  0.79078549  0.57310778  0.94377826  1  -1.105757  0  -0.283165  -0.440177  0  2.042067  0
O  O168  1  0.65955579  0.52797842  0.85474676  1  -1.127936  0  -0.35011  -0.481666  0  2.202154  0
O  O169  1  0.24831234  0.20896888  0.27284267  1  -1.134911  0  -0.309155  -0.503529  0  2.034993  0
O  O170  1  0.14345842  0.08537444  0.25405245  1  -1.094722  0  -0.339585  -0.48458  0  2.224313  0
