# generated using pymatgen
data_Cu2H10C14N6O
_symmetry_space_group_name_H-M   'P 1'
_cell_length_a   6.68281529
_cell_length_b   8.57042700
_cell_length_c   14.23333197
_cell_angle_alpha   90.00143762
_cell_angle_beta   105.21254229
_cell_angle_gamma   89.99960572
_symmetry_Int_Tables_number   1
_chemical_formula_structural   Cu2H10C14N6O
_chemical_formula_sum   'Cu4 H20 C28 N12 O2'
_cell_volume   786.64247444
_cell_formula_units_Z   2
loop_
 _symmetry_equiv_pos_site_id
 _symmetry_equiv_pos_as_xyz
  1  'x, y, z'
loop_
 _atom_site_type_symbol
 _atom_site_label
 _atom_site_symmetry_multiplicity
 _atom_site_fract_x
 _atom_site_fract_y
 _atom_site_fract_z
 _atom_site_occupancy
 _atom_site_hle17_bader_spin_density
 _atom_site_hle17_ddec_charge
 _atom_site_hle17_ddec_spin_density
 _atom_site_hle17_ddec_sum_bond_order
 _atom_site_hle17_magmom
 _atom_site_hse06_10hf_bader_spin_density
 _atom_site_hse06_10hf_ddec_charge
 _atom_site_hse06_10hf_ddec_spin_density
 _atom_site_hse06_10hf_ddec_sum_bond_order
 _atom_site_hse06_10hf_magmom
 _atom_site_hse06_bader_spin_density
 _atom_site_hse06_ddec_charge
 _atom_site_hse06_ddec_spin_density
 _atom_site_hse06_ddec_sum_bond_order
 _atom_site_hse06_magmom
 _atom_site_pbe_bader_spin_density
 _atom_site_pbe_cm5_charge
 _atom_site_pbe_ddec_charge
 _atom_site_pbe_ddec_spin_density
 _atom_site_pbe_ddec_sum_bond_order
 _atom_site_pbe_magmom
Cu  Cu0  1  0.18460959  0.82751517  0.24152487  1  0  0.288976  0  2.573565  0  0  0.226399  0  3.056327  0  0  0.205175  0  3.026656  0  0  0.451017  0.244152  0  3.072219  0
Cu  Cu1  1  0.18460766  0.17248107  0.74152400  1  0  0.288924  0  2.573661  0  0  0.22634  0  3.05638  0  0  0.205144  0  3.026724  0  0  0.45102  0.2441  0  3.072271  0
Cu  Cu2  1  0.82670086  0.33004152  0.25846085  1  0  0.497157  0  2.243804  0  0  0.384252  0  2.766316  0  0  0.365021  0  2.736162  0  0  0.617807  0.403204  0  2.780787  0
Cu  Cu3  1  0.82671071  0.66996251  0.75845910  1  0  0.497156  0  2.243964  0  0  0.384315  0  2.766436  0  0  0.365065  0  2.736271  0  0  0.61785  0.403264  0  2.780896  0
H  H4  1  0.83510857  0.85112420  0.09555863  1  0  0.106107  0  0.97546  0  0  0.109604  0  1.049253  0  0  0.11507  0  1.044702  0  0  0.102302  0.105576  0  1.052694  0
H  H5  1  0.83511594  0.14888242  0.59555846  1  0  0.106154  0  0.975477  0  0  0.109627  0  1.049293  0  0  0.115094  0  1.044741  0  0  0.102307  0.1056  0  1.052736  0
H  H6  1  0.95422176  0.81707421  0.94554339  1  0  0.089108  0  0.941568  0  0  0.095584  0  1.006208  0  0  0.099102  0  1.003009  0  0  0.116234  0.092869  0  1.008824  0
H  H7  1  0.95422118  0.18293683  0.44554183  1  0  0.089099  0  0.941578  0  0  0.095561  0  1.006227  0  0  0.099077  0  1.003035  0  0  0.116269  0.092843  0  1.008847  0
H  H8  1  0.41434275  0.58214047  0.80503837  1  0  0.085311  0  0.931912  0  0  0.093443  0  0.994801  0  0  0.096143  0  0.993073  0  0  0.116836  0.091413  0  0.996213  0
H  H9  1  0.41432845  0.41785483  0.30504658  1  0  0.085324  0  0.931726  0  0  0.093412  0  0.994663  0  0  0.096113  0  0.992936  0  0  0.116792  0.091385  0  0.996072  0
H  H10  1  0.26496919  0.61737188  0.94594414  1  0  0.11979  0  0.934004  0  0  0.128942  0  0.993277  0  0  0.132947  0  0.991486  0  0  0.114865  0.125965  0  0.994822  0
H  H11  1  0.26496108  0.38261367  0.44595181  1  0  0.11978  0  0.934072  0  0  0.128962  0  0.993294  0  0  0.132941  0  0.991527  0  0  0.114885  0.125943  0  0.994892  0
H  H12  1  0.77220567  0.69642610  0.37819773  1  0  0.088513  0  0.934178  0  0  0.100907  0  0.996154  0  0  0.103784  0  0.992501  0  0  0.121931  0.098772  0  0.998843  0
H  H13  1  0.77218861  0.30358780  0.87820698  1  0  0.088535  0  0.934012  0  0  0.100922  0  0.996019  0  0  0.103807  0  0.992352  0  0  0.12192  0.098773  0  0.998725  0
H  H14  1  0.27976330  0.91477281  0.39713504  1  0  0.090366  0  1.007069  0  0  0.096661  0  1.079457  0  0  0.102502  0  1.072343  0  0  0.090749  0.092227  0  1.084614  0
H  H15  1  0.27975666  0.08521998  0.89713018  1  0  0.090465  0  1.006918  0  0  0.096632  0  1.07944  0  0  0.102473  0  1.072332  0  0  0.090719  0.092195  0  1.084597  0
H  H16  1  0.16997551  0.92043529  0.55254020  1  0  0.113278  0  0.943322  0  0  0.124285  0  0.998101  0  0  0.127587  0  0.99766  0  0  0.109384  0.121864  0  0.998729  0
H  H17  1  0.16996256  0.07954859  0.05253565  1  0  0.113258  0  0.943314  0  0  0.124309  0  0.99805  0  0  0.127609  0  0.997612  0  0  0.10934  0.121889  0  0.998671  0
H  H18  1  0.38460364  0.78526358  0.69803390  1  0  0.077064  0  0.962301  0  0  0.081288  0  1.035208  0  0  0.084389  0  1.031619  0  0  0.111275  0.07892  0  1.03793  0
H  H19  1  0.38457848  0.21472631  0.19803564  1  0  0.077186  0  0.962267  0  0  0.081359  0  1.035191  0  0  0.084472  0  1.031587  0  0  0.111293  0.078985  0  1.037928  0
H  H20  1  0.80206558  0.63108154  0.54777946  1  0  0.083873  0  0.920818  0  0  0.093079  0  0.981841  0  0  0.096725  0  0.979006  0  0  0.117284  0.090433  0  0.984033  0
H  H21  1  0.80202963  0.36893030  0.04778514  1  0  0.083876  0  0.921033  0  0  0.093098  0  0.982  0  0  0.096739  0  0.979166  0  0  0.117287  0.090399  0  0.984248  0
H  H22  1  0.72816160  0.71335209  0.21904776  1  0  0.280209  0  0.932881  0  0  0.263847  0  0.99969  0  0  0.269665  0  0.997394  0  0  0.314446  0.259721  0  1.001265  0
H  H23  1  0.72815987  0.28666017  0.71905428  1  0  0.280226  0  0.932861  0  0  0.263844  0  0.999694  0  0  0.269664  0  0.997396  0  0  0.314476  0.259715  0  1.001279  0
C  C24  1  0.73639810  0.79064894  0.03288532  1  0  -0.124157  0  3.705792  0  0  -0.141557  0  3.94519  0  0  -0.14684  0  3.965444  0  0  -0.079541  -0.138339  0  3.932035  0
C  C25  1  0.73640235  0.20935446  0.53288571  1  0  -0.124219  0  3.705821  0  0  -0.141605  0  3.94519  0  0  -0.146895  0  3.965431  0  0  -0.079539  -0.138384  0  3.932039  0
C  C26  1  0.80389861  0.77222277  0.94922486  1  0  0.124458  0  3.680155  0  0  0.099562  0  3.924667  0  0  0.104837  0  3.938258  0  0  0.042703  0.096086  0  3.916079  0
C  C27  1  0.80389965  0.22778338  0.44922629  1  0  0.124506  0  3.680091  0  0  0.099624  0  3.924599  0  0  0.104898  0  3.938192  0  0  0.042705  0.096156  0  3.916013  0
C  C28  1  0.50227247  0.64290284  0.87015374  1  0  0.111728  0  3.698546  0  0  0.08444  0  3.956035  0  0  0.0885  0  3.971993  0  0  0.040564  0.081815  0  3.945685  0
C  C29  1  0.50226437  0.35709350  0.37016103  1  0  0.111904  0  3.698297  0  0  0.084628  0  3.955772  0  0  0.088687  0  3.971728  0  0  0.04071  0.082008  0  3.945408  0
C  C30  1  0.41987371  0.66085245  0.94941295  1  0  -0.108313  0  3.69423  0  0  -0.129338  0  3.937664  0  0  -0.134251  0  3.958744  0  0  -0.071511  -0.126348  0  3.923928  0
C  C31  1  0.41986710  0.33913942  0.44941872  1  0  -0.108582  0  3.694544  0  0  -0.129617  0  3.937947  0  0  -0.134511  0  3.959026  0  0  -0.07165  -0.12659  0  3.924233  0
C  C32  1  0.53947098  0.73501864  0.03313781  1  0  -0.009694  0  3.772538  0  0  0.00725  0  4.003147  0  0  0.005447  0  4.024512  0  0  0.00039  0.008454  0  3.988924  0
C  C33  1  0.53947376  0.26497999  0.53314100  1  0  -0.009547  0  3.772578  0  0  0.007398  0  4.003097  0  0  0.005627  0  4.024417  0  0  0.000427  0.008602  0  3.988866  0
C  C34  1  0.44783226  0.76109163  0.11590350  1  0  0.510404  0  3.806585  0  0  0.464008  0  4.084917  0  0  0.494416  0  4.081903  0  0  0.246564  0.443205  0  4.087109  0
C  C35  1  0.44783340  0.23890622  0.61590400  1  0  0.510213  0  3.806548  0  0  0.463853  0  4.084779  0  0  0.494253  0  4.081765  0  0  0.246486  0.443066  0  4.086958  0
C  C36  1  0.61863334  0.74798855  0.37105709  1  0  0.063638  0  3.630458  0  0  0.018483  0  3.892935  0  0  0.030873  0  3.899973  0  0  0.060073  0.009466  0  3.890328  0
C  C37  1  0.61861773  0.25202237  0.87106289  1  0  0.063654  0  3.630306  0  0  0.018375  0  3.892807  0  0  0.030778  0  3.899863  0  0  0.060083  0.009367  0  3.890193  0
C  C38  1  0.54772448  0.76761966  0.45843275  1  0  -0.00734  0  3.82909  0  0  0.017427  0  4.0665  0  0  0.009168  0  4.091743  0  0  -0.010648  0.022684  0  4.049455  0
C  C39  1  0.54771036  0.23238823  0.95843702  1  0  -0.007504  0  3.829008  0  0  0.017471  0  4.066136  0  0  0.009151  0  4.091467  0  0  -0.010634  0.022745  0  4.049048  0
C  C40  1  0.36839255  0.85194505  0.46136813  1  0  -0.041695  0  3.68237  0  0  -0.068975  0  3.926906  0  0  -0.063614  0  3.942084  0  0  -0.070186  -0.072205  0  3.916893  0
C  C41  1  0.36837829  0.14805108  0.96136688  1  0  -0.041712  0  3.682032  0  0  -0.068932  0  3.92652  0  0  -0.063559  0  3.941714  0  0  -0.070184  -0.072158  0  3.916487  0
C  C42  1  0.30694884  0.85601446  0.54724253  1  0  -0.110035  0  3.744861  0  0  -0.118283  0  3.989728  0  0  -0.126738  0  4.011223  0  0  -0.084891  -0.113168  0  3.975827  0
C  C43  1  0.30693283  0.14397665  0.04724002  1  0  -0.109979  0  3.744822  0  0  -0.118275  0  3.989659  0  0  -0.126729  0  4.011151  0  0  -0.084838  -0.113155  0  3.975761  0
C  C44  1  0.42748945  0.78070919  0.62932954  1  0  0.129163  0  3.675039  0  0  0.097263  0  3.929197  0  0  0.106625  0  3.940592  0  0  0.042283  0.09103  0  3.92209  0
C  C45  1  0.42747198  0.21928698  0.12933083  1  0  0.12891  0  3.675184  0  0  0.09702  0  3.929395  0  0  0.106372  0  3.94079  0  0  0.042225  0.090783  0  3.922297  0
C  C46  1  0.65999544  0.69614046  0.54520666  1  0  0.086933  0  3.666218  0  0  0.050986  0  3.916083  0  0  0.056367  0  3.932764  0  0  0.048122  0.046955  0  3.906327  0
C  C47  1  0.65997028  0.30386735  0.04521047  1  0  0.086982  0  3.666564  0  0  0.050964  0  3.916322  0  0  0.056376  0  3.932998  0  0  0.048073  0.046975  0  3.906567  0
C  C48  1  0.05310305  0.64102458  0.25894754  1  0  -0.109076  0  3.538061  0  0  -0.124075  0  3.908751  0  0  -0.1101  0  3.906189  0  0  -0.069191  -0.133285  0  3.908715  0
C  C49  1  0.05311661  0.35897190  0.75895270  1  0  -0.109132  0  3.537825  0  0  -0.124135  0  3.908524  0  0  -0.110162  0  3.905966  0  0  -0.069252  -0.133353  0  3.908501  0
C  C50  1  0.07483975  0.02826250  0.24637214  1  0  -0.124833  0  3.549848  0  0  -0.133199  0  3.916506  0  0  -0.121169  0  3.918372  0  0  -0.074302  -0.141035  0  3.913486  0
C  C51  1  0.07484645  0.97172985  0.74637605  1  0  -0.12481  0  3.550099  0  0  -0.133144  0  3.916717  0  0  -0.121131  0  3.9186  0  0  -0.074342  -0.140982  0  3.913691  0
N  N52  1  0.69063794  0.69897769  0.86866602  1  0  -0.290458  0  3.342483  0  0  -0.228318  0  3.645912  0  0  -0.231101  0  3.649299  0  0  -0.353622  -0.227529  0  3.643372  0
N  N53  1  0.69063284  0.30102575  0.36866998  1  0  -0.290508  0  3.342309  0  0  -0.228361  0  3.645733  0  0  -0.231149  0  3.649126  0  0  -0.353671  -0.227569  0  3.643195  0
N  N54  1  0.57936486  0.75629526  0.20722832  1  0  -0.287634  0  3.36684  0  0  -0.235411  0  3.602752  0  0  -0.256902  0  3.614669  0  0  -0.28719  -0.220938  0  3.594828  0
N  N55  1  0.57936150  0.24371147  0.70723188  1  0  -0.287573  0  3.366623  0  0  -0.235331  0  3.60245  0  0  -0.256821  0  3.614376  0  0  -0.287162  -0.220865  0  3.594526  0
N  N56  1  0.50026029  0.78251747  0.28513409  1  0  -0.098703  0  3.27805  0  0  -0.057059  0  3.57753  0  0  -0.056035  0  3.58245  0  0  -0.239919  -0.058762  0  3.574188  0
N  N57  1  0.50025232  0.21748822  0.78513744  1  0  -0.098679  0  3.277986  0  0  -0.056993  0  3.577423  0  0  -0.055976  0  3.582352  0  0  -0.239917  -0.058693  0  3.57407  0
N  N58  1  0.60330432  0.70340802  0.62902154  1  0  -0.291355  0  3.340187  0  0  -0.23083  0  3.645269  0  0  -0.236453  0  3.649088  0  0  -0.355141  -0.228145  0  3.642713  0
N  N59  1  0.60327757  0.29659304  0.12902436  1  0  -0.291315  0  3.34034  0  0  -0.230738  0  3.645374  0  0  -0.236366  0  3.649199  0  0  -0.35509  -0.22805  0  3.642798  0
N  N60  1  0.96104078  0.52489502  0.26305906  1  0  -0.434325  0  3.360477  0  0  -0.375475  0  3.720951  0  0  -0.38463  0  3.722447  0  0  -0.451737  -0.369988  0  3.717697  0
N  N61  1  0.96103846  0.47510965  0.76305645  1  0  -0.434294  0  3.360169  0  0  -0.375453  0  3.720645  0  0  -0.384605  0  3.722151  0  0  -0.451704  -0.369966  0  3.717392  0
N  N62  1  0.99612802  0.14821926  0.25537905  1  0  -0.413233  0  3.304948  0  0  -0.351221  0  3.641773  0  0  -0.363208  0  3.650512  0  0  -0.43766  -0.343858  0  3.634148  0
N  N63  1  0.99615039  0.85178258  0.75538573  1  0  -0.413237  0  3.305322  0  0  -0.351251  0  3.64216  0  0  -0.363231  0  3.650896  0  0  -0.437631  -0.343886  0  3.634526  0
O  O64  1  0.25869475  0.78796448  0.10189736  1  0  -0.49519  0  2.07421  0  0  -0.44397  0  2.323346  0  0  -0.463297  0  2.313918  0  0  -0.279298  -0.431222  0  2.32935  0
O  O65  1  0.25869599  0.21202329  0.60189956  1  0  -0.495095  0  2.074119  0  0  -0.443876  0  2.323214  0  0  -0.463211  0  2.313799  0  0  -0.279244  -0.431133  0  2.329211  0
