# generated using pymatgen
data_Cu5H20C12S4(Br2N)2
_symmetry_space_group_name_H-M   'P 1'
_cell_length_a   6.86882098
_cell_length_b   8.74589679
_cell_length_c   10.29625760
_cell_angle_alpha   101.30965960
_cell_angle_beta   89.94988421
_cell_angle_gamma   113.05835032
_symmetry_Int_Tables_number   1
_chemical_formula_structural   Cu5H20C12S4(Br2N)2
_chemical_formula_sum   'Cu5 H20 C12 S4 Br4 N2'
_cell_volume   556.08876033
_cell_formula_units_Z   1
loop_
 _symmetry_equiv_pos_site_id
 _symmetry_equiv_pos_as_xyz
  1  'x, y, z'
loop_
 _atom_site_type_symbol
 _atom_site_label
 _atom_site_symmetry_multiplicity
 _atom_site_fract_x
 _atom_site_fract_y
 _atom_site_fract_z
 _atom_site_occupancy
 _atom_site_pbe_cm5_charge
 _atom_site_pbe_ddec_charge
 _atom_site_pbe_ddec_spin_density
 _atom_site_pbe_ddec_sum_bond_order
 _atom_site_pbe_magmom
Cu  Cu0  1  0.49998919  0.99999274  0.99999621  1  0.402074  0.348202  0.433657  2.569003  0.304
Cu  Cu1  1  0.63274999  0.67152405  0.99778017  1  0.243222  0.23261  0.036043  2.709575  0.026
Cu  Cu2  1  0.96215650  0.32892602  0.00233886  1  0.243195  0.232998  0.03647  2.710059  0.026
Cu  Cu3  1  0.36725010  0.32845242  0.00223176  1  0.24318  0.232568  0.036031  2.709267  0.026
Cu  Cu4  1  0.03784149  0.67106080  0.99766225  1  0.243227  0.233007  0.036477  2.710278  0.027
H  H5  1  0.07507903  0.75931565  0.32802880  1  0.098443  0.096356  0.002447  1.015213  0.001
H  H6  1  0.31727427  0.24031745  0.67141521  1  0.098339  0.095843  0.002453  1.014498  0.001
H  H7  1  0.92491303  0.24068262  0.67197431  1  0.098443  0.096393  0.002447  1.015163  0.001
H  H8  1  0.68272789  0.75969231  0.32858699  1  0.098331  0.095862  0.002452  1.014458  0.001
H  H9  1  0.09650026  0.56676175  0.34073181  1  0.095108  0.088447  4.1e-05  1.018298  0.0
H  H10  1  0.53072964  0.43310053  0.65906346  1  0.094877  0.087809  4.5e-05  1.018234  0.0
H  H11  1  0.90350756  0.43325059  0.65926792  1  0.09516  0.088513  4.1e-05  1.018208  0.0
H  H12  1  0.46927067  0.56691428  0.34094253  1  0.09485  0.087786  4.5e-05  1.018335  0.0
H  H13  1  0.03758263  0.70670605  0.56197574  1  0.084601  0.092019  -2.5e-05  1.019515  0.0
H  H14  1  0.33372463  0.29306078  0.43749632  1  0.084684  0.092371  -2.5e-05  1.018795  0.0
H  H15  1  0.96242891  0.29328459  0.43802507  1  0.084571  0.091997  -2.5e-05  1.01947  0.0
H  H16  1  0.66628526  0.70695281  0.56250557  1  0.084666  0.092325  -2.5e-05  1.018763  0.0
H  H17  1  0.25233777  0.89827432  0.55582986  1  0.085528  0.086794  0.000213  1.01037  0.0
H  H18  1  0.35761753  0.10160369  0.44396585  1  0.085329  0.086433  0.000195  1.011203  0.0
H  H19  1  0.74765089  0.10172008  0.44417646  1  0.085515  0.086749  0.000212  1.01043  0.0
H  H20  1  0.64238669  0.89840728  0.55604045  1  0.085307  0.086395  0.000195  1.011239  0.0
H  H21  1  0.37028712  0.74447440  0.69407911  1  0.077287  0.090298  -0.000106  1.022765  0.0
H  H22  1  0.62972184  0.25553149  0.30592630  1  0.077275  0.090259  -0.000106  1.022783  0.0
H  H23  1  0.27807762  0.55883202  0.56753012  1  0.083843  0.082094  -3.8e-05  0.993363  0.0
H  H24  1  0.72193405  0.44116763  0.43246545  1  0.083815  0.082016  -3.8e-05  0.993379  0.0
C  C25  1  0.41951700  0.84035952  0.21714244  1  0.125859  0.182293  -0.003748  3.995248  -0.004
C  C26  1  0.58049837  0.15965044  0.78284425  1  0.125867  0.182437  -0.003747  3.995515  -0.004
C  C27  1  0.17194438  0.70642721  0.37346593  1  -0.066368  -0.069174  0.003364  3.851188  0.004
C  C28  1  0.46727706  0.29346932  0.62626839  1  -0.066575  -0.068105  0.003378  3.850468  0.004
C  C29  1  0.82805606  0.29357617  0.62653613  1  -0.066454  -0.069338  0.003365  3.850949  0.004
C  C30  1  0.53272598  0.70653928  0.37372487  1  -0.066488  -0.068126  0.003377  3.850874  0.004
C  C31  1  0.19534090  0.75911549  0.52483432  1  -0.169142  -0.165644  0.000358  3.925274  0.0
C  C32  1  0.43906768  0.24079309  0.47488905  1  -0.168549  -0.165522  0.000349  3.924503  0.0
C  C33  1  0.80465537  0.24088539  0.47516438  1  -0.169073  -0.165546  0.000358  3.925003  0.0
C  C34  1  0.56092989  0.75921039  0.52510623  1  -0.168537  -0.165395  0.000349  3.924437  0.0
C  C35  1  0.34789663  0.69891535  0.58573184  1  -0.173492  -0.139435  0.000458  3.921834  0.0
C  C36  1  0.65209909  0.30109318  0.41426723  1  -0.173436  -0.139211  0.000458  3.921606  0.0
S  S37  1  0.66090904  0.90365194  0.14667887  1  -0.190122  -0.24009  0.098282  3.098581  0.096
S  S38  1  0.75831823  0.09662697  0.85382137  1  -0.190463  -0.240268  0.098273  3.099798  0.096
S  S39  1  0.33908010  0.09632880  0.85330175  1  -0.190106  -0.24007  0.098296  3.098034  0.096
S  S40  1  0.24166449  0.90336134  0.14616544  1  -0.190519  -0.240235  0.098267  3.099797  0.096
Br  Br41  1  0.14182144  0.28343869  0.18369226  1  -0.239614  -0.335434  2.2e-05  1.833416  0.0
Br  Br42  1  0.85816151  0.71654427  0.81631207  1  -0.23963  -0.335424  1.9e-05  1.833358  0.0
Br  Br43  1  0.26326040  0.52610333  0.88685512  1  -0.185562  -0.307891  0.006485  2.330681  0.006
Br  Br44  1  0.73675781  0.47390648  0.11314223  1  -0.18558  -0.307863  0.006488  2.33094  0.006
N  N45  1  0.37997892  0.76167488  0.31826689  1  -0.251496  0.010958  -0.001766  3.621943  -0.002
N  N46  1  0.62001730  0.23832591  0.68173861  1  -0.251392  0.010941  -0.001765  3.622117  -0.002
