# generated using pymatgen
data_Al2H10C20S2O17
_symmetry_space_group_name_H-M   'P 1'
_cell_length_a   6.58743240
_cell_length_b   11.12077620
_cell_length_c   12.55385004
_cell_angle_alpha   83.12767926
_cell_angle_beta   77.71504027
_cell_angle_gamma   71.89695739
_symmetry_Int_Tables_number   1
_chemical_formula_structural   Al2H10C20S2O17
_chemical_formula_sum   'Al2 H10 C20 S2 O17'
_cell_volume   852.70088952
_cell_formula_units_Z   1
loop_
 _symmetry_equiv_pos_site_id
 _symmetry_equiv_pos_as_xyz
  1  'x, y, z'
loop_
 _atom_site_type_symbol
 _atom_site_label
 _atom_site_symmetry_multiplicity
 _atom_site_fract_x
 _atom_site_fract_y
 _atom_site_fract_z
 _atom_site_occupancy
 _atom_site_pbe_bader_charge
 _atom_site_pbe_bader_spin_density
 _atom_site_pbe_cm5_charge
 _atom_site_pbe_ddec_charge
 _atom_site_pbe_ddec_spin_density
 _atom_site_pbe_ddec_sum_bond_order
 _atom_site_pbe_magmom
Al  Al0  1  0.51127671  0.49662677  0.52721887  1  2.502448  0  0.393899  1.639849  0  2.594733  0
Al  Al1  1  0.01018486  0.49617088  0.52891314  1  2.501818  0  0.402689  1.633472  0  2.561211  0
H  H2  1  0.23756764  0.43623914  0.66009968  1  0.614896  0  0.355287  0.433178  0  0.853246  0
H  H3  1  0.76910463  0.59204326  0.40233618  1  0.612243  0  0.349316  0.427726  0  0.865207  0
H  H4  1  0.76354751  0.42614671  0.18792323  1  0.136301  0  0.121079  0.147035  0  0.984716  0
H  H5  1  0.08604235  0.56203550  0.91124617  1  0.637561  0  0.308077  0.326677  0  0.966679  0
H  H6  1  0.76733726  0.78974976  0.56388798  1  0.654315  0  0.318785  0.361804  0  0.954157  0
H  H7  1  0.57159380  0.21621015  0.56497817  1  0.655879  0  0.318506  0.360313  0  0.96024  0
H  H8  1  0.43968313  0.70169348  0.38235533  1  0.639701  0  0.309238  0.337792  0  1.029684  0
H  H9  1  0.71474560  0.78724222  0.20181902  1  0.603852  0  0.313727  0.341926  0  0.937685  0
H  H10  1  0.50980708  0.22826420  0.20194596  1  0.622417  0  0.307521  0.336016  0  0.952633  0
H  H11  1  0.16279618  0.30311854  0.37769952  1  0.649625  0  0.308155  0.345947  0  1.008658  0
C  C12  1  0.89265546  0.26664129  0.50431246  1  1.445988  0  0.259421  0.638548  0  4.029935  0
C  C13  1  0.66547178  0.50383135  0.72230186  1  1.536124  0  0.260466  0.670363  0  4.125508  0
C  C14  1  0.13432263  0.73097263  0.50412123  1  1.440695  0  0.256635  0.635574  0  4.041887  0
C  C15  1  0.35578512  0.48773356  0.33169656  1  1.543132  0  0.260184  0.644434  0  4.145556  0
C  C16  1  0.39634610  0.52614743  0.90287046  1  0.553084  0  0.098193  0.299448  0  4.07041  0
C  C17  1  0.61908014  0.45604798  0.15111835  1  0.063171  0  -0.080798  -0.128956  0  3.941796  0
C  C18  1  0.60708279  0.49934470  0.84060881  1  -0.02099  0  -0.035619  -0.251241  0  3.917231  0
C  C19  1  0.41051461  0.48733168  0.21246386  1  -0.140198  0  -0.013439  -0.113426  0  3.961832  0
C  C20  1  0.61362496  0.46900413  0.03868154  1  -0.170425  0  -0.014877  0.020058  0  4.088543  0
C  C21  1  0.40139016  0.51015550  0.01638284  1  -0.116941  0  -0.029821  -0.147134  0  4.073867  0
C  C22  1  0.94711186  0.13664198  0.47080780  1  -0.008333  0  -0.029763  -0.211032  0  3.931582  0
C  C23  1  0.15093790  0.07023606  0.40277118  1  0.057496  0  -0.026079  -0.035781  0  4.012688  0
C  C24  1  0.79303989  0.07102120  0.51436792  1  0.629295  0  0.102923  0.232886  0  4.001619  0
C  C25  1  0.27885144  0.13457903  0.32695002  1  0.525647  0  0.047955  0.124523  0  4.100513  0
C  C26  1  0.46939720  0.07176887  0.25769855  1  0.514961  0  0.060802  0.122553  0  4.115392  0
C  C27  1  0.07005952  0.86624248  0.47087185  1  -0.011906  0  -0.032682  -0.215308  0  3.938956  0
C  C28  1  0.85508267  0.93519345  0.51415345  1  0.622578  0  0.103048  0.232722  0  4.005091  0
C  C29  1  0.21477541  0.93313680  0.40311427  1  0.043383  0  -0.026448  -0.037039  0  4.007096  0
C  C30  1  0.40312135  0.87329104  0.32810159  1  0.519124  0  0.045929  0.118656  0  4.091089  0
C  C31  1  0.53161625  0.94005127  0.25821629  1  0.59632  0  0.058836  0.120356  0  4.116402  0
S  S32  1  0.80797153  0.44958499  0.92093162  1  0.231074  0  0.095191  0.119308  0  2.82614  0
S  S33  1  0.20773947  0.53201446  0.13433685  1  0.271623  0  0.105894  0.167217  0  2.772493  0
O  O34  1  0.69162732  0.32414895  0.54426494  1  -1.266318  0  -0.242338  -0.612473  0  2.406309  0
O  O35  1  0.86692591  0.48219106  0.67741578  1  -1.265224  0  -0.243215  -0.606498  0  2.305617  0
O  O36  1  0.98630813  0.67452196  0.54131856  1  -1.247045  0  -0.240771  -0.597315  0  2.369219  0
O  O37  1  0.51511918  0.46324813  0.38141342  1  -1.264694  0  -0.235333  -0.582262  0  2.339845  0
O  O38  1  0.33771120  0.66963130  0.49918592  1  -1.260822  0  -0.241463  -0.592939  0  2.430128  0
O  O39  1  0.15562338  0.51378746  0.37802617  1  -1.259705  0  -0.24215  -0.602161  0  2.348445  0
O  O40  1  0.04098900  0.32148195  0.50007680  1  -1.248768  0  -0.238352  -0.577114  0  2.367447  0
O  O41  1  0.50940828  0.52833088  0.67024338  1  -1.25924  0  -0.233419  -0.580129  0  2.35306  0
O  O42  1  0.26860624  0.44045809  0.58061723  1  -1.418597  0  -0.443791  -0.978722  0  2.166753  0
O  O43  1  0.75381732  0.55275629  0.47577957  1  -1.417453  0  -0.450619  -0.995786  0  2.226264  0
O  O44  1  0.21724823  0.56339435  0.85740630  1  -1.144393  0  -0.323522  -0.390449  0  2.353514  0
O  O45  1  0.70010530  0.88380021  0.56650991  1  -1.136005  0  -0.32801  -0.390693  0  2.295157  0
O  O46  1  0.59067140  0.12301109  0.56699028  1  -1.133707  0  -0.327465  -0.388673  0  2.29851  0
O  O47  1  0.47436229  0.74571303  0.30955093  1  -1.192169  0  -0.383175  -0.494261  0  2.365275  0
O  O48  1  0.71078452  0.87663989  0.18784004  1  -1.114783  0  -0.358772  -0.409208  0  2.26058  0
O  O49  1  0.58682333  0.13912739  0.18709215  1  -1.130474  0  -0.357379  -0.400149  0  2.258496  0
O  O50  1  0.22392398  0.26380632  0.30609841  1  -1.196561  0  -0.382455  -0.499632  0  2.410591  0
