# generated using pymatgen
data_Cu4H12C21N20
_symmetry_space_group_name_H-M   'P 1'
_cell_length_a   22.85134948
_cell_length_b   23.12315676
_cell_length_c   23.22339421
_cell_angle_alpha   89.74960054
_cell_angle_beta   89.65671356
_cell_angle_gamma   90.70187334
_symmetry_Int_Tables_number   1
_chemical_formula_structural   Cu4H12C21N20
_chemical_formula_sum   'Cu12 H36 C63 N60'
_cell_volume   12269.87108157
_cell_formula_units_Z   3
loop_
 _symmetry_equiv_pos_site_id
 _symmetry_equiv_pos_as_xyz
  1  'x, y, z'
loop_
 _atom_site_type_symbol
 _atom_site_label
 _atom_site_symmetry_multiplicity
 _atom_site_fract_x
 _atom_site_fract_y
 _atom_site_fract_z
 _atom_site_occupancy
 _atom_site_pbe_bader_charge
 _atom_site_pbe_bader_spin_density
 _atom_site_pbe_cm5_charge
 _atom_site_pbe_ddec_charge
 _atom_site_pbe_ddec_spin_density
 _atom_site_pbe_ddec_sum_bond_order
 _atom_site_pbe_magmom
Cu  Cu0  1  0.81672266  0.86841275  0.21680942  1  0.547401  0  0.487529  0.205684  0  2.110862  0
Cu  Cu1  1  0.91919245  0.77618342  0.22419359  1  0.549691  0  0.491415  0.212855  0  2.101656  0
Cu  Cu2  1  0.81157449  0.75621288  0.14109335  1  0.547968  0  0.489573  0.208695  0  2.113045  0
Cu  Cu3  1  0.74019485  0.12493735  0.79045150  1  0.551498  0  0.490256  0.211622  0  2.090787  0
Cu  Cu4  1  0.84013673  0.22355334  0.78454236  1  0.549705  0  0.489437  0.205522  0  2.114783  0
Cu  Cu5  1  0.75062548  0.22201241  0.88724188  1  0.542309  0  0.492809  0.214467  0  2.107057  0
Cu  Cu6  1  0.20714860  0.12980245  0.22433391  1  0.545069  0  0.492722  0.209177  0  2.118285  0
Cu  Cu7  1  0.12443158  0.23381187  0.19850897  1  0.548173  0  0.490597  0.210096  0  2.101501  0
Cu  Cu8  1  0.22533923  0.19961357  0.10733589  1  0.54623  0  0.487267  0.208855  0  2.09148  0
Cu  Cu9  1  0.21603426  0.90255294  0.78848619  1  0.546554  0  0.488632  0.208375  0  2.1065  0
Cu  Cu10  1  0.11474927  0.81100566  0.76686085  1  0.545656  0  0.491165  0.209854  0  2.113727  0
Cu  Cu11  1  0.22970741  0.77246681  0.83030076  1  0.548208  0  0.491076  0.212748  0  2.097565  0
H  H12  1  0.85509891  0.95445848  0.31553661  1  0.091058  0  0.122643  0.115954  0  0.983377  0
H  H13  1  0.98441581  0.82060391  0.33689643  1  0.108096  0  0.12694  0.121503  0  0.981985  0
H  H14  1  0.68026772  0.76360159  0.09390770  1  0.135235  0  0.127259  0.121955  0  0.978873  0
H  H15  1  0.70073077  0.93125597  0.17447510  1  0.083832  0  0.122212  0.115424  0  0.985764  0
H  H16  1  0.00713982  0.67994959  0.17700452  1  0.123824  0  0.126861  0.121359  0  0.980762  0
H  H17  1  0.85933084  0.65538325  0.06322048  1  0.111257  0  0.123556  0.117494  0  0.982106  0
H  H18  1  0.76867077  0.05655259  0.67467356  1  0.120459  0  0.127284  0.121959  0  0.981345  0
H  H19  1  0.90684217  0.18662012  0.67231881  1  0.091856  0  0.12303  0.116038  0  0.983356  0
H  H20  1  0.65881207  0.17490012  0.97829402  1  0.133813  0  0.126622  0.121444  0  0.982871  0
H  H21  1  0.64556195  0.04048894  0.84934168  1  0.124968  0  0.124385  0.119629  0  0.980924  0
H  H22  1  0.92493598  0.32734634  0.82231919  1  0.093959  0  0.122953  0.116143  0  0.983597  0
H  H23  1  0.79445949  0.33194642  0.95844170  1  0.134185  0  0.127315  0.121908  0  0.9809  0
H  H24  1  0.15397291  0.08295960  0.34111740  1  0.092924  0  0.124041  0.117967  0  0.981544  0
H  H25  1  0.03540196  0.22375998  0.30686238  1  0.107719  0  0.127332  0.122709  0  0.979381  0
H  H26  1  0.32978007  0.12844325  0.05123522  1  0.100537  0  0.12044  0.113043  0  0.987885  0
H  H27  1  0.30464163  0.03440021  0.21150786  1  0.114527  0  0.128458  0.123804  0  0.979885  0
H  H28  1  0.07043568  0.34016341  0.13574372  1  0.071401  0  0.123606  0.116677  0  0.982219  0
H  H29  1  0.20393843  0.29606266  0.01072618  1  0.117281  0  0.126056  0.120948  0  0.981794  0
H  H30  1  0.17968132  0.00218746  0.69987592  1  0.13242  0  0.126372  0.120917  0  0.981675  0
H  H31  1  0.04040921  0.87633110  0.67345403  1  0.096747  0  0.123667  0.117728  0  0.981097  0
H  H32  1  0.35732342  0.77938468  0.88489410  1  0.127414  0  0.128471  0.124356  0  0.97338  0
H  H33  1  0.32009460  0.96093519  0.85976854  1  0.116177  0  0.12035  0.112704  0  0.991045  0
H  H34  1  0.02957866  0.70457886  0.79761957  1  0.100185  0  0.126784  0.12131  0  0.982061  0
H  H35  1  0.19053507  0.64874393  0.87717009  1  0.079711  0  0.124074  0.117955  0  0.980924  0
H  H36  1  0.90702117  0.01331715  0.41370647  1  0.15326  0  0.140513  0.151041  0  0.969758  0
H  H37  1  0.96088172  0.12672150  0.58081011  1  0.145436  0  0.140761  0.150636  0  0.969547  0
H  H38  1  0.08461081  0.04802202  0.43320039  1  0.151829  0  0.140631  0.150209  0  0.970304  0
H  H39  1  0.99218867  0.94943977  0.59003901  1  0.140557  0  0.140862  0.150665  0  0.970193  0
H  H40  1  0.61033242  0.96796497  0.08791264  1  0.159312  0  0.135481  0.14598  0  0.994698  0
H  H41  1  0.37932709  0.94148742  0.99787795  1  0.165121  0  0.136567  0.146636  0  0.993486  0
H  H42  1  0.56085491  0.98108133  0.92706348  1  0.190173  0  0.136666  0.14693  0  1.011115  0
H  H43  1  0.42753813  0.05463903  0.02739973  1  0.119662  0  0.136466  0.145667  0  0.978623  0
H  H44  1  0.92822299  0.57937127  0.99642076  1  0.164479  0  0.139836  0.148904  0  0.976818  0
H  H45  1  0.02651887  0.42007425  0.06199615  1  0.14549  0  0.140996  0.150091  0  0.970961  0
H  H46  1  0.11862172  0.56280885  0.94019890  1  0.176381  0  0.1405  0.150929  0  0.976386  0
H  H47  1  0.98760658  0.41956659  0.88239287  1  0.134695  0  0.140805  0.151507  0  0.967484  0
C  C48  1  0.88315094  0.91704132  0.31259345  1  0.425159  0  0.007757  -0.049534  0  3.956227  0
C  C49  1  0.92974215  0.90019440  0.34769036  1  0.025669  0  -0.035417  -0.046215  0  4.110729  0
C  C50  1  0.94910608  0.84832324  0.32328862  1  0.468212  0  0.015955  -0.032318  0  3.931759  0
C  C51  1  0.69482156  0.80169542  0.11712273  1  0.401932  0  0.016222  -0.031738  0  3.929665  0
C  C52  1  0.66625076  0.85449403  0.12487318  1  0.063221  0  -0.032855  -0.04147  0  4.10447  0
C  C53  1  0.70529233  0.88779653  0.15772768  1  0.400909  0  0.006698  -0.052394  0  3.962975  0
C  C54  1  0.96591708  0.68153817  0.15418278  1  0.420488  0  0.015805  -0.032054  0  3.927831  0
C  C55  1  0.94705674  0.64894572  0.10677606  1  0.066172  0  -0.034073  -0.043564  0  4.107879  0
C  C56  1  0.89050601  0.66894697  0.09569027  1  0.366535  0  0.0081  -0.050238  0  3.957393  0
C  C57  1  0.79821430  0.09266583  0.68257211  1  0.411054  0  0.015598  -0.03252  0  3.927781  0
C  C58  1  0.84807681  0.11046003  0.65132857  1  0.016617  0  -0.033983  -0.043493  0  4.107254  0
C  C59  1  0.86909055  0.15897877  0.68117238  1  0.419979  0  0.007773  -0.049338  0  3.957963  0
C  C60  1  0.66238288  0.14752251  0.94066751  1  0.42943  0  0.014768  -0.033939  0  3.934319  0
C  C61  1  0.63477004  0.09420738  0.92965405  1  0.054505  0  -0.036685  -0.047632  0  4.115578  0
C  C62  1  0.65528010  0.07857687  0.87487604  1  0.360293  0  0.008191  -0.051408  0  3.954048  0
C  C63  1  0.88805497  0.32071897  0.85135948  1  0.486345  0  0.008207  -0.049463  0  3.957014  0
C  C64  1  0.87282943  0.35028935  0.90180125  1  -0.027775  0  -0.033287  -0.043589  0  4.106591  0
C  C65  1  0.82105556  0.32283564  0.92080858  1  0.399382  0  0.0164  -0.030749  0  3.927875  0
C  C66  1  0.13049396  0.11996418  0.32461849  1  0.35183  0  0.008344  -0.050443  0  3.957677  0
C  C67  1  0.08007486  0.14676830  0.34585169  1  0.071565  0  -0.03368  -0.04231  0  4.103987  0
C  C68  1  0.07002459  0.19209762  0.30686709  1  0.439087  0  0.015734  -0.034287  0  3.925281  0
C  C69  1  0.31622087  0.11174050  0.09304051  1  0.380113  0  0.00593  -0.05378  0  3.9621  0
C  C70  1  0.33714791  0.06449441  0.12468553  1  0.06765  0  -0.034932  -0.043814  0  4.106914  0
C  C71  1  0.30304394  0.06385757  0.17512104  1  0.428699  0  0.015509  -0.032963  0  3.92971  0
C  C72  1  0.10584811  0.32149006  0.11096125  1  0.413383  0  0.009026  -0.048619  0  3.956152  0
C  C73  1  0.12903237  0.33810336  0.05722219  1  0.03271  0  -0.034091  -0.041936  0  4.10501  0
C  C74  1  0.17433217  0.29892933  0.04724781  1  0.470523  0  0.01462  -0.035516  0  3.931902  0
C  C75  1  0.14949781  0.96563411  0.70113680  1  0.40096  0  0.014719  -0.033425  0  3.930378  0
C  C76  1  0.09963651  0.95505572  0.66762031  1  0.078083  0  -0.034178  -0.043715  0  4.106384  0
C  C77  1  0.07806032  0.90148463  0.68750770  1  0.411326  0  0.009496  -0.047992  0  3.95518  0
C  C78  1  0.33955814  0.82114240  0.87340978  1  0.364417  0  0.0147  -0.036704  0  3.939142  0
C  C79  1  0.36060602  0.87670184  0.88645640  1  0.039511  0  -0.035104  -0.044347  0  4.101467  0
C  C80  1  0.32010549  0.91401154  0.86123899  1  0.393821  0  0.0056  -0.055501  0  3.977226  0
C  C81  1  0.07385620  0.69951983  0.81324469  1  0.483659  0  0.015831  -0.032924  0  3.930543  0
C  C82  1  0.09714243  0.65468396  0.84663495  1  -0.036471  0  -0.034393  -0.044344  0  4.106016  0
C  C83  1  0.15596181  0.67076961  0.85432272  1  0.490532  0  0.009339  -0.047609  0  3.952464  0
C  C84  1  0.01632338  0.49781113  0.97083931  1  1.347852  0  0.430828  0.384512  0  3.863072  0
C  C85  1  0.98576559  0.03593977  0.50473592  1  1.351719  0  0.430855  0.379024  0  3.859467  0
C  C86  1  0.49972190  0.95568384  0.03290220  1  1.354466  0  0.434473  0.376157  0  3.857484  0
C  C87  1  0.95351344  0.92875689  0.39774021  1  0.415313  0  0.09423  0.131664  0  4.083521  0
C  C88  1  0.93908615  0.98065073  0.42331637  1  0.356672  0  0.024528  -0.127368  0  3.866625  0
C  C89  1  0.87455462  0.08223303  0.60244332  1  0.506808  0  0.093088  0.129553  0  4.086215  0
C  C90  1  0.92741913  0.09372028  0.57522238  1  0.314972  0  0.0241  -0.127732  0  3.870704  0
C  C91  1  0.04489273  0.12864119  0.39477771  1  0.50093  0  0.093298  0.130402  0  4.0846  0
C  C92  1  0.05190891  0.08137075  0.43058821  1  0.312727  0  0.024381  -0.12688  0  3.872691  0
C  C93  1  0.07736831  0.98947434  0.62069269  1  0.471254  0  0.092931  0.129423  0  4.087733  0
C  C94  1  0.02740225  0.98113197  0.58834655  1  0.336062  0  0.024691  -0.131823  0  3.87464  0
C  C95  1  0.61047594  0.87102516  0.10099077  1  0.421823  0  0.091294  0.12941  0  4.082955  0
C  C96  1  0.59109693  0.92508387  0.08513102  1  0.338457  0  0.019821  -0.134479  0  3.864364  0
C  C97  1  0.41164897  0.89268969  0.92036402  1  0.520866  0  0.092199  0.129159  0  4.078472  0
C  C98  1  0.41347502  0.92385553  0.97096428  1  0.271725  0  0.024971  -0.135929  0  3.875903  0
C  C99  1  0.59553203  0.06345076  0.96837951  1  0.476153  0  0.090435  0.12594  0  4.095273  0
C  C100  1  0.56426450  0.01230705  0.96149387  1  0.265027  0  0.020165  -0.13606  0  3.848419  0
C  C101  1  0.38319217  0.02482749  0.10976856  1  0.452047  0  0.091761  0.127713  0  4.092439  0
C  C102  1  0.42110265  0.02516385  0.06323102  1  0.324589  0  0.015982  -0.155414  0  3.906468  0
C  C103  1  0.97827159  0.60412408  0.07673989  1  0.457845  0  0.09215  0.127669  0  4.086611  0
C  C104  1  0.96403105  0.57560191  0.02639678  1  0.343302  0  0.0252  -0.123816  0  3.870318  0
C  C105  1  0.10911054  0.38512177  0.02141479  1  0.437201  0  0.093615  0.132505  0  4.084558  0
C  C106  1  0.06059206  0.41929809  0.02946747  1  0.346948  0  0.025498  -0.127235  0  3.87939  0
C  C107  1  0.06514296  0.60583104  0.87065055  1  0.448856  0  0.093107  0.128259  0  4.079438  0
C  C108  1  0.07985791  0.56787134  0.91422756  1  0.326971  0  0.025192  -0.121933  0  3.85792  0
C  C109  1  0.90337903  0.39723544  0.93006761  1  0.475731  0  0.092745  0.129403  0  4.086611  0
C  C110  1  0.95593381  0.42462681  0.91680064  1  0.312863  0  0.023644  -0.130082  0  3.865986  0
N  N111  1  0.91631998  0.83540268  0.27700761  1  -0.77339  0  -0.334525  -0.137698  0  3.764673  0
N  N112  1  0.87534593  0.87793366  0.27035712  1  -0.778477  0  -0.335493  -0.138143  0  3.76542  0
N  N113  1  0.75373522  0.85698339  0.16866983  1  -0.760001  0  -0.338387  -0.141004  0  3.77025  0
N  N114  1  0.74730796  0.80370330  0.14325178  1  -0.7805  0  -0.336802  -0.141682  0  3.76141  0
N  N115  1  0.87670921  0.71048963  0.13373485  1  -0.76031  0  -0.336726  -0.138173  0  3.773592  0
N  N116  1  0.92348879  0.71837496  0.16991922  1  -0.780534  0  -0.334544  -0.139999  0  3.762126  0
N  N117  1  0.83436545  0.16916909  0.72701404  1  -0.774702  0  -0.336954  -0.138963  0  3.774769  0
N  N118  1  0.79043898  0.12800956  0.72793719  1  -0.761621  0  -0.33338  -0.138859  0  3.755945  0
N  N119  1  0.69263608  0.11969588  0.85486583  1  -0.75465  0  -0.333393  -0.136441  0  3.76205  0
N  N120  1  0.69694742  0.16236865  0.89571609  1  -0.798357  0  -0.335448  -0.138766  0  3.76505  0
N  N121  1  0.80671200  0.27995417  0.88427565  1  -0.772012  0  -0.336251  -0.140918  0  3.765341  0
N  N122  1  0.84814464  0.27863584  0.84118448  1  -0.755454  0  -0.336255  -0.137227  0  3.772355  0
N  N123  1  0.11154137  0.19195067  0.26534049  1  -0.746257  0  -0.333943  -0.13891  0  3.755921  0
N  N124  1  0.14897295  0.14725043  0.27640483  1  -0.777273  0  -0.337588  -0.137087  0  3.776423  0
N  N125  1  0.26472249  0.10762236  0.17347631  1  -0.762239  0  -0.334964  -0.135212  0  3.765116  0
N  N126  1  0.27276192  0.13732514  0.12260545  1  -0.767167  0  -0.333992  -0.138017  0  3.767699  0
N  N127  1  0.17762053  0.26162172  0.09195852  1  -0.767858  0  -0.333426  -0.140285  0  3.756085  0
N  N128  1  0.13512551  0.27570233  0.13144934  1  -0.779907  0  -0.335541  -0.136385  0  3.772771  0
N  N129  1  0.11271803  0.88152577  0.72968169  1  -0.777826  0  -0.337558  -0.139753  0  3.774788  0
N  N130  1  0.15695691  0.92133990  0.73822274  1  -0.782112  0  -0.334954  -0.139569  0  3.760694  0
N  N131  1  0.27780307  0.88282583  0.83510824  1  -0.765567  0  -0.337318  -0.13768  0  3.767147  0
N  N132  1  0.28966086  0.82517465  0.84297938  1  -0.769259  0  -0.334863  -0.140497  0  3.747259  0
N  N133  1  0.16682790  0.72165743  0.82751665  1  -0.772273  0  -0.335423  -0.140263  0  3.763912  0
N  N134  1  0.11583265  0.73950905  0.80225195  1  -0.786658  0  -0.335839  -0.138468  0  3.764091  0
N  N135  1  0.01266171  0.93848622  0.47146829  1  -0.082669  0  -0.092418  -0.093367  0  3.178689  0
N  N136  1  0.99848520  0.90486424  0.42901376  1  -0.518669  0  -0.197176  -0.198727  0  3.213611  0
N  N137  1  0.97577551  0.98488452  0.46918672  1  -0.781638  0  -0.133686  -0.001209  0  3.785584  0
N  N138  1  0.88471530  0.01432458  0.53726184  1  -0.073657  0  -0.092393  -0.09357  0  3.165133  0
N  N139  1  0.85013027  0.03368599  0.57721223  1  -0.531194  0  -0.19712  -0.197579  0  3.20601  0
N  N140  1  0.93208901  0.05143299  0.53485830  1  -0.765154  0  -0.133313  0.000138  0  3.787065  0
N  N141  1  0.96988914  0.12901489  0.45457169  1  -0.078956  0  -0.094675  -0.095451  0  3.159885  0
N  N142  1  0.99444306  0.15641848  0.41158683  1  -0.524745  0  -0.198453  -0.199678  0  3.203109  0
N  N143  1  0.00537266  0.08321525  0.46737780  1  -0.790922  0  -0.134131  -0.001476  0  3.788422  0
N  N144  1  0.07896620  0.05793917  0.55466281  1  -0.08092  0  -0.094882  -0.10106  0  3.1639  0
N  N145  1  0.10706922  0.03698910  0.59846797  1  -0.514263  0  -0.199857  -0.201531  0  3.207609  0
N  N146  1  0.03027641  0.02346048  0.54753443  1  -0.79722  0  -0.133568  0.01683  0  3.778226  0
N  N147  1  0.52391841  0.85665916  0.06241834  1  -0.042158  0  -0.083874  -0.072989  0  3.153294  0
N  N148  1  0.56770507  0.83096064  0.08635205  1  -0.523994  0  -0.191433  -0.193636  0  3.195686  0
N  N149  1  0.53757202  0.91461488  0.06120973  1  -0.763363  0  -0.129628  0.002036  0  3.789811  0
N  N150  1  0.50430937  0.89859448  0.94396584  1  -0.086613  0  -0.086689  -0.086173  0  3.167793  0
N  N151  1  0.46820970  0.87822764  0.90577202  1  -0.518746  0  -0.195076  -0.198328  0  3.192258  0
N  N152  1  0.47140491  0.92698503  0.98423572  1  -0.751298  0  -0.129564  0.020604  0  3.753209  0
N  N153  1  0.54786838  0.04933826  0.04981936  1  -0.09618  0  -0.094416  -0.100862  0  3.176102  0
N  N154  1  0.58395029  0.08410091  0.02294609  1  -0.513679  0  -0.197552  -0.201778  0  3.217011  0
N  N155  1  0.53463842  0.00531893  0.01234509  1  -0.775251  0  -0.135874  0.008211  0  3.746785  0
N  N156  1  0.43944115  0.94900132  0.12107435  1  -0.040044  0  -0.08111  -0.067157  0  3.12449  0
N  N157  1  0.39643281  0.97749312  0.14374726  1  -0.514261  0  -0.193234  -0.197795  0  3.189376  0
N  N158  1  0.45529370  0.97786630  0.07173128  1  -0.792969  0  -0.132275  0.01466  0  3.777994  0
N  N159  1  0.04755227  0.54044225  0.06315380  1  -0.083738  0  -0.095225  -0.09825  0  3.170975  0
N  N160  1  0.02965605  0.58112499  0.09717554  1  -0.530305  0  -0.19804  -0.196977  0  3.209995  0
N  N161  1  0.00693431  0.53578995  0.01992749  1  -0.785061  0  -0.133911  0.001304  0  3.779588  0
N  N162  1  0.10919934  0.44681656  0.94905802  1  -0.087952  0  -0.094572  -0.097589  0  3.161876  0
N  N163  1  0.13725161  0.40371139  0.97179996  1  -0.501033  0  -0.20085  -0.203548  0  3.198759  0
N  N164  1  0.06245340  0.45730159  0.98468523  1  -0.784202  0  -0.133215  0.002686  0  3.804049  0
N  N165  1  0.98811776  0.54924680  0.88348300  1  -0.077979  0  -0.093339  -0.095075  0  3.170504  0
N  N166  1  0.00889174  0.59216481  0.85322622  1  -0.535619  0  -0.195824  -0.195549  0  3.212456  0
N  N167  1  0.03186238  0.53256726  0.92036455  1  -0.770207  0  -0.135377  -0.006372  0  3.758099  0
N  N168  1  0.91761089  0.46165818  0.99804659  1  -0.094573  0  -0.090884  -0.092761  0  3.18028  0
N  N169  1  0.88180420  0.42172351  0.97988220  1  -0.516106  0  -0.197735  -0.199922  0  3.210647  0
N  N170  1  0.96291040  0.46465334  0.95915507  1  -0.753398  0  -0.131167  0.003712  0  3.790578  0
