# generated using pymatgen
data_MnH21C34N5O8
_symmetry_space_group_name_H-M   'P 1'
_cell_length_a   8.46297030
_cell_length_b   17.63037524
_cell_length_c   27.34893058
_cell_angle_alpha   100.07178945
_cell_angle_beta   90.00218521
_cell_angle_gamma   89.99958429
_symmetry_Int_Tables_number   1
_chemical_formula_structural   MnH21C34N5O8
_chemical_formula_sum   'Mn4 H84 C136 N20 O32'
_cell_volume   4017.72196302
_cell_formula_units_Z   4
loop_
 _symmetry_equiv_pos_site_id
 _symmetry_equiv_pos_as_xyz
  1  'x, y, z'
loop_
 _atom_site_type_symbol
 _atom_site_label
 _atom_site_symmetry_multiplicity
 _atom_site_fract_x
 _atom_site_fract_y
 _atom_site_fract_z
 _atom_site_occupancy
 _atom_site_pbe_bader_charge
 _atom_site_pbe_bader_spin_density
 _atom_site_pbe_cm5_charge
 _atom_site_pbe_ddec_charge
 _atom_site_pbe_ddec_spin_density
 _atom_site_pbe_ddec_sum_bond_order
 _atom_site_pbe_magmom
Mn  Mn0  1  0.69068037  0.71465168  0.40541233  1  1.464968  4.524386  0.601858  0.817403  4.671693  2.386933  4.428
Mn  Mn1  1  0.69066693  0.28535446  0.09459441  1  1.464953  -4.524473  0.601826  0.817287  -4.67186  2.386791  -4.428
Mn  Mn2  1  0.30932183  0.28536440  0.59458530  1  1.464686  -4.524547  0.601805  0.817257  -4.671664  2.386973  -4.428
Mn  Mn3  1  0.30935535  0.71464525  0.90540267  1  1.464924  4.524427  0.60187  0.817398  4.671727  2.386768  4.428
H  H4  1  0.44632126  0.57304262  0.36802313  1  0.138334  0.001154  0.117566  0.086923  0.000437  1.018283  0.0
H  H5  1  0.44632883  0.42696847  0.13197387  1  0.138646  -0.001155  0.117549  0.086837  -0.000438  1.017999  0.0
H  H6  1  0.55367148  0.42696392  0.63199235  1  0.138604  -0.001154  0.117592  0.08698  -0.000437  1.018277  0.0
H  H7  1  0.55369700  0.57303119  0.86799824  1  0.138598  0.001155  0.117514  0.086857  0.000438  1.018017  0.0
H  H8  1  0.45220530  0.44723663  0.30629910  1  0.072674  0.000816  0.102189  0.104362  0.000473  1.012014  0.0
H  H9  1  0.45225624  0.55276373  0.19370353  1  0.073209  -0.000816  0.102276  0.104464  -0.000473  1.011931  0.0
H  H10  1  0.54776735  0.55277051  0.69371207  1  0.07299  -0.000816  0.102193  0.104412  -0.000473  1.011946  0.0
H  H11  1  0.54772941  0.44721974  0.80627945  1  0.073249  0.000816  0.102216  0.104417  0.000473  1.011879  0.0
H  H12  1  0.71730311  0.39835048  0.27059366  1  0.177501  -4.8e-05  0.109581  0.114686  0.000141  1.049197  0.0
H  H13  1  0.71736116  0.60165757  0.22940905  1  0.177916  4.8e-05  0.109547  0.114518  -0.000141  1.049188  0.0
H  H14  1  0.28267663  0.60167974  0.72941625  1  0.176946  4.8e-05  0.109594  0.114735  -0.000141  1.048919  0.0
H  H15  1  0.28259849  0.39832737  0.77059289  1  0.178431  -4.8e-05  0.109513  0.114631  0.000141  1.049166  0.0
H  H16  1  0.95728629  0.46960310  0.30074480  1  0.085881  0.000691  0.106035  0.108031  0.000362  1.01147  0.0
H  H17  1  0.95734186  0.53040028  0.19925698  1  0.08528  -0.000691  0.106093  0.108045  -0.000361  1.011589  0.0
H  H18  1  0.04269936  0.53041657  0.69925233  1  0.085763  -0.000691  0.106005  0.107975  -0.000362  1.011575  0.0
H  H19  1  0.04262961  0.46958773  0.80076089  1  0.085313  0.000691  0.106132  0.108052  0.000362  1.011589  0.0
H  H20  1  0.96545821  0.77520748  0.48271461  1  0.10272  0.00069  0.113031  0.121414  0.000429  1.003473  0.0
H  H21  1  0.96542546  0.22478336  0.01728484  1  0.103901  -0.000688  0.112982  0.121371  -0.000429  1.003791  0.0
H  H22  1  0.03452035  0.22480553  0.51728397  1  0.102477  -0.000691  0.112979  0.121361  -0.000429  1.003736  0.0
H  H23  1  0.03456728  0.77520422  0.98271498  1  0.103417  0.000688  0.112955  0.121368  0.000429  1.003829  0.0
H  H24  1  0.03226929  0.90156281  0.53305164  1  0.048864  -3.4e-05  0.100921  0.099339  -7.2e-05  1.011798  0.0
H  H25  1  0.03223130  0.09843782  0.96694097  1  0.048822  3.4e-05  0.100984  0.099445  7.1e-05  1.011461  0.0
H  H26  1  0.96770809  0.09846132  0.46695138  1  0.049257  3.4e-05  0.100945  0.099386  7.1e-05  1.012154  0.0
H  H27  1  0.96778508  0.90154557  0.03306365  1  0.048934  -3.4e-05  0.100995  0.099532  -7.1e-05  1.011389  0.0
H  H28  1  0.41231610  0.92667658  0.43172415  1  0.067714  -1.4e-05  0.099088  0.096808  -0.000176  1.028423  0.0
H  H29  1  0.41231531  0.07332824  0.06826977  1  0.067891  1.4e-05  0.099089  0.096835  0.000176  1.028581  0.0
H  H30  1  0.58769673  0.07333158  0.56827545  1  0.068119  1.4e-05  0.098933  0.096558  0.000176  1.028326  0.0
H  H31  1  0.58771642  0.92666329  0.93172703  1  0.068172  -1.4e-05  0.09909  0.096793  -0.000176  1.028487  0.0
H  H32  1  0.34726924  0.80047392  0.38214349  1  0.11508  0.000258  0.108085  0.117462  -0.000157  1.030978  0.0
H  H33  1  0.34724592  0.19952033  0.11785568  1  0.115381  -0.000258  0.108076  0.117478  0.000157  1.031173  0.0
H  H34  1  0.65273650  0.19953826  0.61785679  1  0.11488  -0.000258  0.108074  0.117517  0.000157  1.03103  0.0
H  H35  1  0.65278699  0.80047309  0.88214438  1  0.115273  0.000258  0.108078  0.117514  -0.000158  1.031314  0.0
H  H36  1  0.17988598  0.98803253  0.58574778  1  0.067426  -0.000675  0.110903  0.119822  -0.000367  0.990707  0.0
H  H37  1  0.17987501  0.01196860  0.91424437  1  0.067183  0.000674  0.110893  0.119745  0.000367  0.990461  0.0
H  H38  1  0.82010676  0.01198704  0.41425007  1  0.06724  0.000675  0.110878  0.119773  0.000367  0.990549  0.0
H  H39  1  0.82013310  0.98802657  0.08575158  1  0.06723  -0.000674  0.11089  0.119661  -0.000366  0.990708  0.0
H  H40  1  0.21984133  0.12591594  0.62324374  1  0.123621  -0.00171  0.123035  0.09546  -0.000961  0.978332  -0.001
H  H41  1  0.21986677  0.87408807  0.87675504  1  0.12348  0.001713  0.122999  0.095267  0.000963  0.978171  0.001
H  H42  1  0.78012660  0.87409812  0.37675575  1  0.123638  0.001711  0.12298  0.095226  0.000962  0.97819  0.001
H  H43  1  0.78013188  0.12590346  0.12324176  1  0.123563  -0.001712  0.123053  0.095311  -0.000962  0.978387  -0.001
H  H44  1  0.36561177  0.18020873  0.48928238  1  0.113633  -0.000872  0.120942  0.091823  -0.000165  1.019332  0.0
H  H45  1  0.36565408  0.81980027  0.01070451  1  0.113651  0.000873  0.120958  0.091759  0.000166  1.019642  0.0
H  H46  1  0.63442706  0.81980812  0.51072235  1  0.113592  0.000872  0.120987  0.091825  0.000165  1.019525  0.0
H  H47  1  0.63435520  0.18018898  0.98928751  1  0.113696  -0.000872  0.120895  0.091722  -0.000166  1.019456  0.0
H  H48  1  0.33703946  0.04550173  0.44622292  1  0.059996  -0.000626  0.109545  0.116869  -0.000351  0.996522  0.0
H  H49  1  0.33706678  0.95450068  0.05376351  1  0.060466  0.000626  0.109481  0.116852  0.000352  0.99657  0.0
H  H50  1  0.66301708  0.95451557  0.55377859  1  0.06017  0.000626  0.109465  0.116711  0.000351  0.996641  0.0
H  H51  1  0.66296141  0.04548420  0.94623035  1  0.060468  -0.000626  0.109524  0.116874  -0.000351  0.996373  0.0
H  H52  1  0.23511490  0.64639295  0.48269596  1  0.079428  0.000483  0.104775  0.107056  0.000131  1.023675  0.0
H  H53  1  0.23511730  0.35358898  0.01730593  1  0.07939  -0.000484  0.104731  0.107064  -0.000131  1.023693  0.0
H  H54  1  0.76487311  0.35359789  0.51730990  1  0.079287  -0.000484  0.104772  0.107037  -0.000131  1.02367  0.0
H  H55  1  0.76484945  0.64638503  0.98269014  1  0.079343  0.000484  0.104784  0.107068  0.000131  1.023673  0.0
H  H56  1  0.17496890  0.67700222  0.64141457  1  0.153663  4e-06  0.106809  0.117844  1.2e-05  1.047095  0.0
H  H57  1  0.17488658  0.32297435  0.85858916  1  0.152506  -4e-06  0.106733  0.117802  -1.2e-05  1.047388  0.0
H  H58  1  0.82504393  0.32298790  0.35859228  1  0.153697  -4e-06  0.106749  0.117804  -1.2e-05  1.047184  0.0
H  H59  1  0.82509080  0.67700389  0.14141019  1  0.153254  4e-06  0.106762  0.117795  1.2e-05  1.047094  0.0
H  H60  1  0.63513309  0.70618650  0.57644096  1  0.1107  0.000294  0.107843  0.120529  7.3e-05  1.033602  0.0
H  H61  1  0.63509193  0.29378922  0.92354954  1  0.111191  -0.000294  0.107912  0.120657  -7.3e-05  1.033414  0.0
H  H62  1  0.36487501  0.29383339  0.42355878  1  0.110337  -0.000294  0.10784  0.120592  -7.3e-05  1.033644  0.0
H  H63  1  0.36489372  0.70620031  0.07644473  1  0.110881  0.000294  0.107898  0.120654  7.3e-05  1.033368  0.0
H  H64  1  0.26216822  0.72118645  0.70743312  1  0.087817  2.3e-05  0.107642  0.114454  -5.1e-05  1.03766  0.0
H  H65  1  0.26210829  0.27879274  0.79256035  1  0.087529  -2.3e-05  0.107629  0.11455  5.1e-05  1.037997  0.0
H  H66  1  0.73781861  0.27881592  0.29256587  1  0.087919  -2.3e-05  0.107659  0.114449  5.1e-05  1.037667  0.0
H  H67  1  0.73789154  0.72118730  0.20743453  1  0.087344  2.3e-05  0.107614  0.114512  -5.1e-05  1.038065  0.0
H  H68  1  0.67001287  0.73934245  0.80071176  1  0.096428  0.00029  0.098317  0.09296  -1.6e-05  1.083149  0.0
H  H69  1  0.66995834  0.26067744  0.69929222  1  0.09666  -0.00029  0.098281  0.093072  1.6e-05  1.082995  0.0
H  H70  1  0.32997633  0.26066197  0.19928941  1  0.096478  -0.00029  0.098341  0.093017  1.6e-05  1.083017  0.0
H  H71  1  0.33006039  0.73932658  0.30071183  1  0.096629  0.00029  0.098301  0.093085  -1.6e-05  1.083149  0.0
H  H72  1  0.73067070  0.69525914  0.64185116  1  0.117282  4.4e-05  0.107865  0.126084  3.9e-05  1.050131  0.0
H  H73  1  0.73060189  0.30472467  0.85815766  1  0.115739  -4.4e-05  0.107909  0.126062  -3.9e-05  1.050086  0.0
H  H74  1  0.26933149  0.30474321  0.35815224  1  0.117402  -4.4e-05  0.107904  0.12611  -3.9e-05  1.050081  0.0
H  H75  1  0.26937313  0.69527381  0.14184399  1  0.115756  4.4e-05  0.107896  0.126037  3.9e-05  1.050196  0.0
H  H76  1  0.14967880  0.56843319  0.31451696  1  0.492624  0.000659  0.35725  0.287295  0.000524  0.891454  0.0
H  H77  1  0.14973630  0.43157935  0.18547180  1  0.492019  -0.000659  0.357218  0.287325  -0.000524  0.8913  0.0
H  H78  1  0.85030448  0.43157497  0.68548264  1  0.49203  -0.000659  0.357279  0.287221  -0.000524  0.891544  0.0
H  H79  1  0.85028125  0.56841614  0.81452604  1  0.49197  0.000659  0.357188  0.287267  0.000524  0.891311  0.0
H  H80  1  0.07518972  0.55621492  0.50333248  1  0.628538  1.6e-05  0.327816  0.365177  4e-06  0.900265  0.0
H  H81  1  0.07517434  0.44378249  0.99666432  1  0.628802  -1.6e-05  0.327883  0.365085  -4e-06  0.9002  0.0
H  H82  1  0.92482783  0.44377907  0.49665923  1  0.628807  -1.6e-05  0.32785  0.3652  -4e-06  0.900122  0.0
H  H83  1  0.92479477  0.55620247  0.00333322  1  0.628369  1.6e-05  0.32777  0.36505  4e-06  0.900443  0.0
H  H84  1  0.86421690  0.81181543  0.77578436  1  0.609006  3.3e-05  0.332465  0.364789  2.8e-05  0.884777  0.0
H  H85  1  0.86413686  0.18817722  0.72420975  1  0.608564  -3.3e-05  0.332616  0.365221  -2.8e-05  0.884595  0.0
H  H86  1  0.13574039  0.18818036  0.22421977  1  0.609231  -3.2e-05  0.332483  0.364818  -2.8e-05  0.884901  0.0
H  H87  1  0.13585233  0.81182518  0.27579328  1  0.608809  3.3e-05  0.332517  0.365105  2.8e-05  0.884525  0.0
C  C88  1  0.55589837  0.54815736  0.35124145  1  0.454578  0.008608  0.058955  0.105697  0.006567  3.923734  0.005
C  C89  1  0.55593362  0.45185336  0.14875946  1  0.455097  -0.008602  0.058982  0.105824  -0.006564  3.923875  -0.005
C  C90  1  0.44410500  0.45185136  0.64877109  1  0.454821  -0.008597  0.059042  0.10589  -0.006558  3.923755  -0.005
C  C91  1  0.44407802  0.54813877  0.85122460  1  0.45497  0.008598  0.059031  0.105765  0.006559  3.923506  0.005
C  C92  1  0.56058679  0.47926747  0.31710826  1  0.012605  0.00221  -0.084404  -0.134634  0.001672  3.963812  0.001
C  C93  1  0.56063552  0.52074614  0.18289322  1  0.012504  -0.002213  -0.084674  -0.134993  -0.001674  3.963909  -0.001
C  C94  1  0.43940004  0.52073998  0.68290077  1  0.011715  -0.00221  -0.08454  -0.134848  -0.001671  3.964297  -0.001
C  C95  1  0.43934658  0.47923693  0.81709263  1  0.011726  0.002216  -0.084459  -0.134663  0.001676  3.96406  0.001
C  C96  1  0.70624221  0.45121776  0.29787887  1  -0.113972  0.008014  -0.061883  -0.010962  0.006215  3.932007  0.005
C  C97  1  0.70629745  0.54878747  0.20212246  1  -0.114342  -0.008006  -0.061785  -0.01064  -0.006209  3.93176  -0.005
C  C98  1  0.29375407  0.54880104  0.70212876  1  -0.11307  -0.008003  -0.061833  -0.011124  -0.006207  3.931442  -0.005
C  C99  1  0.29367875  0.45120143  0.79787207  1  -0.114967  0.007995  -0.061914  -0.011075  0.0062  3.932513  0.005
C  C100  1  0.84220863  0.49258007  0.31374494  1  0.001091  0.001461  -0.076893  -0.145522  0.000918  3.934206  0.0
C  C101  1  0.84226038  0.50742680  0.18625557  1  0.000561  -0.001465  -0.076968  -0.145606  -0.000921  3.934244  0.0
C  C102  1  0.15777702  0.50743471  0.68625357  1  0.001296  -0.001462  -0.076845  -0.145241  -0.000919  3.933579  0.0
C  C103  1  0.15772646  0.49256605  0.81374439  1  0.000487  0.001466  -0.076898  -0.145435  0.000922  3.93422  0.0
C  C104  1  0.82671070  0.56230962  0.34642322  1  0.52582  0.007996  0.128052  0.149477  0.006412  4.048522  0.005
C  C105  1  0.82673728  0.43770110  0.15357841  1  0.526981  -0.00799  0.128015  0.149608  -0.006405  4.048524  -0.005
C  C106  1  0.17326904  0.43770097  0.65357165  1  0.525507  -0.00799  0.127897  0.14931  -0.006405  4.048525  -0.005
C  C107  1  0.17326491  0.56229667  0.84642421  1  0.526858  0.007986  0.127958  0.149573  0.006402  4.048512  0.005
C  C108  1  0.95828604  0.61399962  0.36145659  1  1.016789  0.014366  0.245311  0.268575  0.012168  4.035278  0.01
C  C109  1  0.95829178  0.38600923  0.13854393  1  1.015731  -0.014363  0.245364  0.268467  -0.012166  4.035191  -0.01
C  C110  1  0.04170788  0.38600970  0.63854320  1  1.016503  -0.014349  0.245408  0.268561  -0.012156  4.03541  -0.01
C  C111  1  0.04172105  0.61398671  0.86145913  1  1.016328  0.014357  0.245347  0.268293  0.012161  4.035602  0.01
C  C112  1  0.09798390  0.71032643  0.39543767  1  0.963613  0.009791  0.230841  0.278549  0.007419  4.000217  0.008
C  C113  1  0.09797344  0.28966883  0.10455872  1  0.96334  -0.009785  0.230807  0.278764  -0.007415  4.000206  -0.008
C  C114  1  0.90200530  0.28969221  0.60456259  1  0.963322  -0.009777  0.230942  0.27884  -0.007409  4.000443  -0.008
C  C115  1  0.90204175  0.71032479  0.89543990  1  0.963186  0.009782  0.230811  0.278718  0.007413  4.000222  0.008
C  C116  1  0.14545908  0.78169961  0.42746538  1  0.017678  -0.001472  0.001937  0.029922  -0.001438  4.00286  -0.001
C  C117  1  0.14544601  0.21829599  0.07252671  1  0.017163  0.001473  0.001762  0.029416  0.001439  4.002593  0.001
C  C118  1  0.85454784  0.21832280  0.57252891  1  0.017395  0.00147  0.001871  0.029833  0.001437  4.002984  0.001
C  C119  1  0.85456800  0.78169673  0.92746993  1  0.016792  -0.001471  0.00188  0.029856  -0.001437  4.002819  -0.001
C  C120  1  0.06218577  0.80911932  0.47138273  1  -0.05644  0.002336  -0.080598  -0.10813  0.001793  3.95851  0.001
C  C121  1  0.06214779  0.19087628  0.02860947  1  -0.057531  -0.002335  -0.080339  -0.107768  -0.001792  3.958324  -0.001
C  C122  1  0.93782234  0.19089708  0.52861678  1  -0.056403  -0.002333  -0.08071  -0.108266  -0.001792  3.958936  -0.001
C  C123  1  0.93785795  0.80911217  0.97138829  1  -0.056577  0.002334  -0.080465  -0.108032  0.001791  3.958776  0.001
C  C124  1  0.10174281  0.87976775  0.50001664  1  -0.016753  -0.001466  -0.08741  -0.117429  -0.001247  3.974997  -0.001
C  C125  1  0.10171372  0.12023360  0.99997428  1  -0.017163  0.001467  -0.087486  -0.117533  0.001248  3.974313  0.001
C  C126  1  0.89828065  0.12025095  0.49998326  1  -0.01812  0.001465  -0.087326  -0.117284  0.001246  3.976156  0.001
C  C127  1  0.89830974  0.87975769  0.00001992  1  -0.018044  -0.001465  -0.087435  -0.117649  -0.001247  3.97492  -0.001
C  C128  1  0.22404971  0.92486670  0.48536913  1  -0.049932  0.002043  -0.011627  0.048976  0.001564  4.009024  0.002
C  C129  1  0.22403424  0.07513210  0.01462917  1  -0.049993  -0.002043  -0.011559  0.049102  -0.001565  4.008489  -0.002
C  C130  1  0.77598675  0.07515733  0.51462616  1  -0.054409  -0.00204  -0.011589  0.04911  -0.001562  4.009159  -0.002
C  C131  1  0.77596796  0.92484869  0.98536877  1  -0.054582  0.002042  -0.01161  0.04909  0.001564  4.008479  0.002
C  C132  1  0.31202478  0.89462507  0.44265781  1  -0.028184  -0.001407  -0.090586  -0.128821  -0.001256  3.989812  -0.001
C  C133  1  0.31200922  0.10537281  0.05734727  1  -0.028828  0.001407  -0.090595  -0.128921  0.001256  3.989761  0.001
C  C134  1  0.68801050  0.10539023  0.55734116  1  -0.022973  0.001405  -0.090241  -0.128406  0.001255  3.989298  0.001
C  C135  1  0.68802724  0.89461742  0.94264198  1  -0.023587  -0.001405  -0.090591  -0.128822  -0.001254  3.990052  -0.001
C  C136  1  0.27483098  0.82380016  0.41424973  1  0.013565  0.001716  -0.078637  -0.096259  0.001234  3.946063  0.001
C  C137  1  0.27482133  0.17619595  0.08574931  1  0.014137  -0.001715  -0.078649  -0.096143  -0.001233  3.946117  -0.001
C  C138  1  0.72518658  0.17621889  0.58574766  1  0.014286  -0.001713  -0.078729  -0.096514  -0.001232  3.946224  -0.001
C  C139  1  0.72521040  0.82379020  0.91424807  1  0.014321  0.001714  -0.078597  -0.096348  0.001232  3.946871  0.001
C  C140  1  0.25383534  0.00374308  0.51185390  1  0.005571  -0.005923  0.013443  0.113171  -0.004532  3.998909  -0.004
C  C141  1  0.25385479  0.99626592  0.98813600  1  0.006974  0.005921  0.013283  0.112953  0.00453  3.999244  0.004
C  C142  1  0.74617630  0.99627197  0.48814686  1  0.005839  0.005926  0.013411  0.11311  0.004533  3.998843  0.004
C  C143  1  0.74616276  0.00372171  0.01186346  1  0.006719  -0.005918  0.013294  0.113203  -0.004528  3.998808  -0.004
C  C144  1  0.22148416  0.02840080  0.56262155  1  -0.030816  0.000791  -0.086111  -0.188281  0.000915  3.952375  0.001
C  C145  1  0.22148048  0.97160808  0.93738028  1  -0.030943  -0.000789  -0.086124  -0.188182  -0.000913  3.952691  -0.001
C  C146  1  0.77853812  0.97161603  0.43738758  1  -0.03044  -0.000791  -0.08623  -0.18852  -0.000914  3.952875  -0.001
C  C147  1  0.77852526  0.02838232  0.06262037  1  -0.031214  0.000789  -0.086311  -0.188378  0.000912  3.953052  0.001
C  C148  1  0.24302825  0.10538426  0.58388014  1  0.458339  -0.007572  0.051838  0.092819  -0.006142  3.965754  -0.005
C  C149  1  0.24306191  0.89462447  0.91612385  1  0.458564  0.007578  0.051861  0.093039  0.006146  3.965709  0.005
C  C150  1  0.75695386  0.89462960  0.41612922  1  0.457317  0.007582  0.051922  0.093187  0.006147  3.965284  0.005
C  C151  1  0.75695446  0.10536416  0.08387688  1  0.458272  -0.007572  0.051929  0.093185  -0.006141  3.96597  -0.005
C  C152  1  0.32761471  0.13562638  0.50962767  1  0.564816  -0.006913  0.051098  0.098658  -0.00535  3.96035  -0.005
C  C153  1  0.32763591  0.86437085  0.99036182  1  0.564676  0.006907  0.051193  0.098854  0.005345  3.960737  0.005
C  C154  1  0.67240166  0.86438333  0.49037770  1  0.565345  0.006914  0.051211  0.098865  0.005349  3.960682  0.005
C  C155  1  0.67239228  0.13561823  0.00963568  1  0.564996  -0.006907  0.051126  0.098756  -0.005345  3.960138  -0.005
C  C156  1  0.31096595  0.05998798  0.48576009  1  -0.127069  0.000733  -0.085017  -0.184981  0.000828  3.963905  0.001
C  C157  1  0.31095413  0.94000330  0.01422478  1  -0.128041  -0.000733  -0.08493  -0.18503  -0.000829  3.963857  -0.001
C  C158  1  0.68907878  0.94001878  0.51424111  1  -0.127392  -0.000733  -0.084974  -0.184866  -0.000828  3.963883  -0.001
C  C159  1  0.68906579  0.05997744  0.98577352  1  -0.127808  0.000732  -0.084831  -0.185033  0.000828  3.963627  0.001
C  C160  1  0.54189313  0.68345489  0.48188523  1  1.570205  0.010335  0.196126  0.540787  0.012284  4.213603  0.007
C  C161  1  0.54190024  0.31654248  0.01811799  1  1.569758  -0.010333  0.196027  0.540576  -0.012283  4.213492  -0.007
C  C162  1  0.45810906  0.31656071  0.51812003  1  1.569686  -0.010347  0.196191  0.540654  -0.012293  4.213517  -0.007
C  C163  1  0.45808777  0.68344367  0.98187938  1  1.570523  0.010339  0.195993  0.540492  0.012293  4.21354  0.007
C  C164  1  0.44325813  0.67704454  0.52639389  1  0.025133  -0.000703  -0.01618  -0.010081  -0.001174  3.98902  -0.002
C  C165  1  0.44324109  0.32293830  0.97360349  1  0.025707  0.000704  -0.016114  -0.010239  0.001175  3.98846  0.002
C  C166  1  0.55673698  0.32296964  0.47360892  1  0.025266  0.000704  -0.016188  -0.010184  0.001175  3.988958  0.002
C  C167  1  0.55674574  0.67704641  0.02639584  1  0.025558  -0.000703  -0.016276  -0.0103  -0.001175  3.988709  -0.002
C  C168  1  0.28334388  0.65785417  0.52027453  1  -0.010126  0.003062  -0.084119  -0.131943  0.002256  3.972812  0.002
C  C169  1  0.28327828  0.34213158  0.97971928  1  -0.009622  -0.003062  -0.084259  -0.132165  -0.002255  3.971892  -0.002
C  C170  1  0.71666304  0.34214886  0.47972824  1  -0.010297  -0.003065  -0.08413  -0.131834  -0.002258  3.972719  -0.002
C  C171  1  0.71668492  0.65784305  0.02027653  1  -0.010277  0.003062  -0.084223  -0.131998  0.002256  3.97216  0.002
C  C172  1  0.18887389  0.65763139  0.56216563  1  -0.092602  -0.000266  -0.024661  -0.067702  -0.000227  4.057876  0.0
C  C173  1  0.18880398  0.34234320  0.93782771  1  -0.094035  0.000266  -0.024521  -0.067328  0.000227  4.057195  0.0
C  C174  1  0.81112594  0.34236480  0.43783563  1  -0.092158  0.000266  -0.024631  -0.067658  0.000227  4.057944  0.0
C  C175  1  0.81116513  0.65763539  0.06216913  1  -0.093087  -0.000266  -0.024666  -0.067737  -0.000227  4.057868  0.0
C  C176  1  0.01742947  0.63773980  0.55730771  1  1.514657  0.000104  0.234435  0.584607  4.8e-05  4.091036  0.0
C  C177  1  0.01738296  0.36224587  0.94269463  1  1.514594  -0.000104  0.234758  0.584827  -4.8e-05  4.090276  0.0
C  C178  1  0.98257273  0.36223804  0.44268607  1  1.513936  -0.000104  0.234619  0.584827  -4.8e-05  4.090522  0.0
C  C179  1  0.98259087  0.63774294  0.05730906  1  1.514105  0.000104  0.234596  0.584686  4.8e-05  4.091178  0.0
C  C180  1  0.25352761  0.67721599  0.60987413  1  -0.032254  0.002251  -0.075005  -0.124415  0.001798  3.88897  0.001
C  C181  1  0.25347246  0.32274161  0.89012218  1  -0.029902  -0.00225  -0.074876  -0.124326  -0.001798  3.889015  -0.001
C  C182  1  0.74646867  0.32277688  0.39012988  1  -0.032415  -0.002253  -0.074957  -0.124441  -0.0018  3.88903  -0.001
C  C183  1  0.74650137  0.67722009  0.10987366  1  -0.03152  0.002251  -0.074995  -0.124297  0.001798  3.889138  0.001
C  C184  1  0.41521907  0.69426438  0.61657596  1  -0.038803  -0.00022  -0.00609  0.067802  -0.000205  3.980471  0.0
C  C185  1  0.41515211  0.30571860  0.88342320  1  -0.039632  0.00022  -0.006127  0.067605  0.000205  3.98068  0.0
C  C186  1  0.58477368  0.30574223  0.38342632  1  -0.03835  0.000221  -0.006093  0.067772  0.000206  3.980472  0.0
C  C187  1  0.58482882  0.69426329  0.11657529  1  -0.038749  -0.00022  -0.006001  0.067795  -0.000205  3.980655  0.0
C  C188  1  0.50886900  0.69371644  0.57394727  1  -0.05358  0.003111  -0.072325  -0.127574  0.002302  3.879668  0.002
C  C189  1  0.50880402  0.30624511  0.92605018  1  -0.054397  -0.003111  -0.07255  -0.127725  -0.002302  3.879731  -0.002
C  C190  1  0.49114265  0.30628501  0.42605414  1  -0.053417  -0.003113  -0.072326  -0.127562  -0.002303  3.8798  -0.002
C  C191  1  0.49118045  0.69373788  0.07394887  1  -0.053906  0.003112  -0.072391  -0.127599  0.002303  3.879718  0.002
C  C192  1  0.48593702  0.71005335  0.66706852  1  -0.011862  -0.000359  -0.007222  0.068767  -0.000293  3.984359  0.0
C  C193  1  0.48587386  0.28994283  0.83293217  1  -0.012197  0.000357  -0.007292  0.068663  0.000291  3.984293  0.0
C  C194  1  0.51405572  0.28995404  0.33293242  1  -0.011828  0.000358  -0.007273  0.068675  0.000292  3.98436  0.0
C  C195  1  0.51411179  0.71004742  0.16706957  1  -0.012649  -0.000358  -0.007273  0.068465  -0.000292  3.984685  0.0
C  C196  1  0.39081580  0.72217294  0.70991135  1  -0.03001  0.002585  -0.075388  -0.134079  0.001941  3.900053  0.002
C  C197  1  0.39075217  0.27783297  0.79008649  1  -0.029784  -0.002577  -0.075369  -0.134161  -0.001935  3.900596  -0.002
C  C198  1  0.60917694  0.27784059  0.29008769  1  -0.03045  -0.00258  -0.07542  -0.134081  -0.001938  3.90032  -0.002
C  C199  1  0.60924411  0.72217013  0.20991153  1  -0.029574  0.002578  -0.075419  -0.134109  0.001936  3.90071  0.002
C  C200  1  0.45629682  0.73101984  0.75757070  1  -0.032554  0.000343  -0.018337  -0.009907  -0.000289  3.968405  0.0
C  C201  1  0.45624763  0.26897623  0.74243352  1  -0.032615  -0.00035  -0.018385  -0.009678  0.000284  3.968139  0.0
C  C202  1  0.54368765  0.26899040  0.24243512  1  -0.031892  -0.000346  -0.018355  -0.009829  0.000287  3.968412  0.0
C  C203  1  0.54375693  0.73101896  0.25756647  1  -0.0322  0.000348  -0.018321  -0.009644  -0.000285  3.967962  0.0
C  C204  1  0.62035287  0.73376296  0.76340152  1  -0.017972  0.002046  -0.097684  -0.159944  0.001393  4.004111  0.001
C  C205  1  0.62029742  0.26626669  0.73660586  1  -0.019176  -0.00204  -0.09761  -0.160319  -0.001389  4.004091  -0.001
C  C206  1  0.37963869  0.26624580  0.23660222  1  -0.017945  -0.002043  -0.097694  -0.160074  -0.001391  4.00404  -0.001
C  C207  1  0.37970359  0.73373749  0.26339710  1  -0.018824  0.002041  -0.097617  -0.160323  0.00139  4.004051  0.001
C  C208  1  0.71682587  0.72191195  0.72109782  1  -0.074877  -0.000397  -0.033762  -0.082528  -0.000302  4.097887  0.0
C  C209  1  0.71676495  0.27810778  0.77891387  1  -0.073975  0.000396  -0.03381  -0.082476  0.000301  4.097986  0.0
C  C210  1  0.28317277  0.27810011  0.27890757  1  -0.074837  0.000397  -0.033825  -0.082379  0.000302  4.098091  0.0
C  C211  1  0.28323370  0.72188966  0.22108687  1  -0.074683  -0.000396  -0.033902  -0.082635  -0.000301  4.097923  0.0
C  C212  1  0.65072813  0.70803713  0.67344563  1  -0.040188  0.002519  -0.08169  -0.142369  0.002007  3.906492  0.001
C  C213  1  0.65066798  0.29194407  0.82656109  1  -0.039138  -0.002509  -0.081615  -0.14198  -0.001999  3.906013  -0.001
C  C214  1  0.34927052  0.29195599  0.32655659  1  -0.040993  -0.002513  -0.081703  -0.142408  -0.002003  3.906748  -0.001
C  C215  1  0.34932595  0.70805289  0.17343883  1  -0.038903  0.00251  -0.081578  -0.141853  0.002001  3.906455  0.001
C  C216  1  0.89253740  0.72254257  0.72578855  1  1.504973  -2e-06  0.232433  0.57856  -1e-06  4.099448  0.0
C  C217  1  0.89246196  0.27746655  0.77420255  1  1.504627  2e-06  0.232351  0.57841  1e-06  4.099331  0.0
C  C218  1  0.10745416  0.27747148  0.27421938  1  1.50541  2e-06  0.232273  0.57806  1e-06  4.099831  0.0
C  C219  1  0.10753078  0.72253650  0.22579582  1  1.504309  -2e-06  0.232483  0.578544  -1e-06  4.099252  0.0
C  C220  1  0.35017856  0.72706387  0.80144214  1  1.567618  0.009632  0.199654  0.556321  0.010581  4.22972  0.008
C  C221  1  0.35007990  0.27293127  0.69855506  1  1.567478  -0.009631  0.199455  0.555948  -0.010577  4.23  -0.008
C  C222  1  0.64982718  0.27294522  0.19856348  1  1.567848  -0.009629  0.199629  0.556338  -0.010578  4.229542  -0.008
C  C223  1  0.64992229  0.72705948  0.30144308  1  1.567772  0.009631  0.199443  0.556016  0.010578  4.23045  0.008
N  N224  1  0.68620832  0.58945450  0.36523314  1  -1.207117  0.05026  -0.301903  -0.242434  0.03424  3.446685  0.02
N  N225  1  0.68623313  0.41055805  0.13476946  1  -1.207543  -0.050249  -0.301732  -0.242333  -0.034237  3.44697  -0.02
N  N226  1  0.31379624  0.41055948  0.63477955  1  -1.206347  -0.050237  -0.301808  -0.242481  -0.034235  3.44668  -0.02
N  N227  1  0.31378916  0.58944512  0.86521536  1  -1.206912  0.05025  -0.301837  -0.242503  0.034238  3.446614  0.02
N  N228  1  0.94955419  0.67840637  0.39545938  1  -1.204851  0.046679  -0.314  -0.390991  0.032343  3.337361  0.009
N  N229  1  0.94954986  0.32159577  0.10454244  1  -1.204211  -0.046686  -0.31397  -0.390903  -0.032332  3.33727  -0.009
N  N230  1  0.05041610  0.32161013  0.60453942  1  -1.204164  -0.04664  -0.314122  -0.390999  -0.032333  3.337694  -0.009
N  N231  1  0.05045942  0.67840070  0.89545263  1  -1.204758  0.046703  -0.314005  -0.390783  0.032327  3.337519  0.009
N  N232  1  0.19592644  0.66913219  0.36244846  1  -0.633174  0.001661  -0.20105  -0.210618  0.00041  3.09397  0.0
N  N233  1  0.19593493  0.33086669  0.13753949  1  -0.632696  -0.001659  -0.200961  -0.210646  -0.000408  3.093982  0.0
N  N234  1  0.80406394  0.33088711  0.63754714  1  -0.633586  -0.00166  -0.200944  -0.210656  -0.000408  3.093912  0.0
N  N235  1  0.80408026  0.66912800  0.86245565  1  -0.632896  0.001657  -0.200873  -0.210639  0.000406  3.094101  0.0
N  N236  1  0.10513339  0.60887811  0.34193523  1  -0.835755  0.004984  -0.260313  -0.144814  0.002997  3.700174  0.003
N  N237  1  0.10516643  0.39112856  0.15805550  1  -0.835197  -0.004983  -0.260333  -0.144883  -0.002997  3.699722  -0.003
N  N238  1  0.89486644  0.39113267  0.65806665  1  -0.83535  -0.00498  -0.260416  -0.144747  -0.002993  3.700022  -0.003
N  N239  1  0.89485231  0.60887389  0.84193874  1  -0.835117  0.004983  -0.26032  -0.144779  0.002997  3.699753  0.003
N  N240  1  0.29317317  0.15913521  0.55798150  1  -1.259915  -0.049013  -0.313669  -0.239166  -0.032718  3.492927  -0.015
N  N241  1  0.29321038  0.84086601  0.94201140  1  -1.260129  0.04903  -0.313751  -0.239285  0.032724  3.493162  0.015
N  N242  1  0.70682902  0.84087081  0.44202508  1  -1.259471  0.04901  -0.313758  -0.239353  0.032722  3.492936  0.015
N  N243  1  0.70679536  0.15912179  0.05799103  1  -1.260115  -0.049018  -0.313716  -0.23932  -0.032717  3.492834  -0.015
O  O244  1  0.97889161  0.57890569  0.51958393  1  -1.128382  8.3e-05  -0.340595  -0.483429  -0.000161  2.243486  0.0
O  O245  1  0.97886624  0.42108045  0.98042050  1  -1.128624  -8.3e-05  -0.340705  -0.483319  0.000161  2.243394  0.0
O  O246  1  0.02112831  0.42108072  0.48041166  1  -1.128442  -8.2e-05  -0.340766  -0.483631  0.000161  2.242923  0.0
O  O247  1  0.02109578  0.57890573  0.01958092  1  -1.128383  8.2e-05  -0.340591  -0.483314  -0.000161  2.243442  0.0
O  O248  1  0.91467173  0.66955448  0.58461482  1  -1.134667  0.000135  -0.268079  -0.44907  -3e-05  2.148423  0.0
O  O249  1  0.91460996  0.33042760  0.91538605  1  -1.134224  -0.000135  -0.268307  -0.449348  2.9e-05  2.147905  0.0
O  O250  1  0.08533874  0.33042676  0.41537990  1  -1.134318  -0.000135  -0.268126  -0.449133  3e-05  2.148384  0.0
O  O251  1  0.08536388  0.66954611  0.08461217  1  -1.133726  0.000135  -0.26815  -0.449108  -2.9e-05  2.148644  0.0
O  O252  1  0.22108580  0.69264612  0.79340162  1  -1.159892  0.013542  -0.314388  -0.539176  0.009886  2.179517  0.009
O  O253  1  0.22100207  0.30736376  0.70660992  1  -1.160462  -0.013514  -0.31422  -0.539047  -0.009867  2.180423  -0.009
O  O254  1  0.77890694  0.30737627  0.20660551  1  -1.160255  -0.013536  -0.314324  -0.539212  -0.009881  2.179788  -0.009
O  O255  1  0.77899540  0.69263243  0.29339134  1  -1.160552  0.013518  -0.314174  -0.538971  0.009871  2.180564  0.009
O  O256  1  0.40509191  0.75625098  0.84493988  1  -1.195978  0.065352  -0.334253  -0.567803  0.043368  2.308876  0.026
O  O257  1  0.40502278  0.24375719  0.65505930  1  -1.195508  -0.065368  -0.334087  -0.567616  -0.043359  2.308635  -0.026
O  O258  1  0.59494337  0.24375200  0.15506325  1  -1.19587  -0.06536  -0.334263  -0.567788  -0.043361  2.308678  -0.026
O  O259  1  0.59499596  0.75624042  0.34493596  1  -1.195728  0.0654  -0.334182  -0.567789  0.043369  2.30916  0.026
O  O260  1  0.95247777  0.78062465  0.76040344  1  -1.100572  0.000118  -0.333025  -0.456681  -5.4e-05  2.217631  0.0
O  O261  1  0.95238731  0.21937993  0.73959375  1  -1.099196  -0.000118  -0.333099  -0.45702  5.4e-05  2.217637  0.0
O  O262  1  0.04751734  0.21938569  0.23961011  1  -1.100642  -0.000118  -0.33307  -0.456658  5.4e-05  2.217908  0.0
O  O263  1  0.04760543  0.78061608  0.26041299  1  -1.099409  0.000118  -0.333057  -0.45696  -5.4e-05  2.217427  0.0
O  O264  1  0.98084066  0.67658094  0.70077277  1  -1.140614  -0.000112  -0.268569  -0.453935  -0.000153  2.15786  0.0
O  O265  1  0.98079290  0.32343894  0.79922561  1  -1.140183  0.000112  -0.268618  -0.45398  0.000153  2.157106  0.0
O  O266  1  0.01914144  0.32342790  0.29922621  1  -1.141255  0.000112  -0.268343  -0.453536  0.000153  2.158113  0.0
O  O267  1  0.01920693  0.67656361  0.20077635  1  -1.139844  -0.000112  -0.268657  -0.453997  -0.000153  2.157324  0.0
O  O268  1  0.69074988  0.69290218  0.48629018  1  -1.195041  0.05354  -0.317042  -0.545278  0.037448  2.192347  0.031
O  O269  1  0.69076639  0.30710733  0.01370501  1  -1.195196  -0.053526  -0.31699  -0.54515  -0.037437  2.192025  -0.031
O  O270  1  0.30925941  0.30709459  0.51371118  1  -1.19495  -0.053557  -0.3171  -0.545217  -0.037454  2.19237  -0.031
O  O271  1  0.30923107  0.69291152  0.98629382  1  -1.195343  0.05352  -0.316989  -0.545142  0.037443  2.192108  0.031
O  O272  1  0.47127808  0.68337210  0.44040063  1  -1.177057  0.062393  -0.3152  -0.540283  0.043257  2.238729  0.034
O  O273  1  0.47128119  0.31663653  0.05960260  1  -1.17641  -0.062395  -0.315064  -0.540026  -0.043256  2.238768  -0.034
O  O274  1  0.52871938  0.31664642  0.55960475  1  -1.176647  -0.062381  -0.315126  -0.540112  -0.043257  2.238938  -0.034
O  O275  1  0.52870091  0.68335426  0.94039518  1  -1.177086  0.062418  -0.314982  -0.53993  0.043258  2.23896  0.034
