# generated using pymatgen
data_CdH9C4NCl2O3
_symmetry_space_group_name_H-M   'P 1'
_cell_length_a   7.24684342
_cell_length_b   8.74917571
_cell_length_c   14.29986081
_cell_angle_alpha   90.00010303
_cell_angle_beta   89.99979296
_cell_angle_gamma   110.78960739
_symmetry_Int_Tables_number   1
_chemical_formula_structural   CdH9C4NCl2O3
_chemical_formula_sum   'Cd4 H36 C16 N4 Cl8 O12'
_cell_volume   847.63401144
_cell_formula_units_Z   4
loop_
 _symmetry_equiv_pos_site_id
 _symmetry_equiv_pos_as_xyz
  1  'x, y, z'
loop_
 _atom_site_type_symbol
 _atom_site_label
 _atom_site_symmetry_multiplicity
 _atom_site_fract_x
 _atom_site_fract_y
 _atom_site_fract_z
 _atom_site_occupancy
 _atom_site_hle17_bader_spin_density
 _atom_site_hle17_ddec_charge
 _atom_site_hle17_ddec_spin_density
 _atom_site_hle17_ddec_sum_bond_order
 _atom_site_hle17_magmom
 _atom_site_hse06_10hf_bader_spin_density
 _atom_site_hse06_10hf_ddec_charge
 _atom_site_hse06_10hf_ddec_spin_density
 _atom_site_hse06_10hf_ddec_sum_bond_order
 _atom_site_hse06_10hf_magmom
 _atom_site_hse06_bader_spin_density
 _atom_site_hse06_ddec_charge
 _atom_site_hse06_ddec_spin_density
 _atom_site_hse06_ddec_sum_bond_order
 _atom_site_hse06_magmom
 _atom_site_pbe_bader_spin_density
 _atom_site_pbe_cm5_charge
 _atom_site_pbe_ddec_charge
 _atom_site_pbe_ddec_spin_density
 _atom_site_pbe_ddec_sum_bond_order
 _atom_site_pbe_magmom
Cd  Cd0  1  0.95722951  0.14151665  0.24917365  1  0  1.039807  0  1.93955  0  0  0.894468  0  2.40566  0  0  0.941168  0  2.357514  0  0  0.580156  0.861079  0  2.439098  0
Cd  Cd1  1  0.54276510  0.85848463  0.74917301  1  0  1.039855  0  1.939585  0  0  0.894483  0  2.405707  0  0  0.941182  0  2.35756  0  0  0.580152  0.861074  0  2.43918  0
Cd  Cd2  1  0.04276611  0.85848343  0.75082733  1  0  1.039875  0  1.939581  0  0  0.894505  0  2.405699  0  0  0.941204  0  2.357551  0  0  0.580158  0.8611  0  2.439167  0
Cd  Cd3  1  0.45723019  0.14151789  0.25082518  1  0  1.039805  0  1.939513  0  0  0.894464  0  2.405621  0  0  0.941165  0  2.357474  0  0  0.580171  0.861064  0  2.439085  0
H  H4  1  0.13317803  0.18379593  0.89158348  1  0  0.1315  0  0.932375  0  0  0.1394  0  0.999699  0  0  0.142144  0  0.998223  0  0  0.114046  0.137328  0  1.001028  0
H  H5  1  0.36682042  0.81620309  0.39158225  1  0  0.131527  0  0.932331  0  0  0.139415  0  0.999649  0  0  0.142159  0  0.998168  0  0  0.114058  0.137342  0  1.000984  0
H  H6  1  0.86681898  0.81620415  0.10841819  1  0  0.131493  0  0.932353  0  0  0.139406  0  0.999655  0  0  0.142151  0  0.998175  0  0  0.114048  0.137332  0  1.00099  0
H  H7  1  0.63317863  0.18379211  0.60841593  1  0  0.131546  0  0.932252  0  0  0.13946  0  0.999589  0  0  0.142206  0  0.998109  0  0  0.114046  0.137388  0  1.000923  0
H  H8  1  0.07886507  0.36532763  0.90224668  1  0  0.121406  0  0.92741  0  0  0.131299  0  0.991008  0  0  0.134114  0  0.989164  0  0  0.110771  0.129246  0  0.992428  0
H  H9  1  0.42113279  0.63467017  0.40224444  1  0  0.121476  0  0.927289  0  0  0.131339  0  0.990897  0  0  0.134155  0  0.98905  0  0  0.110791  0.129284  0  0.992316  0
H  H10  1  0.92113141  0.63467123  0.09775570  1  0  0.121461  0  0.92735  0  0  0.131324  0  0.990962  0  0  0.13414  0  0.989116  0  0  0.110796  0.129271  0  0.992383  0
H  H11  1  0.57886488  0.36532502  0.59775304  1  0  0.121439  0  0.92739  0  0  0.131352  0  0.990988  0  0  0.134167  0  0.989143  0  0  0.110798  0.1293  0  0.992401  0
H  H12  1  0.21108803  0.46010318  0.09810801  1  0  0.108175  0  0.925495  0  0  0.118874  0  0.988174  0  0  0.120435  0  0.987602  0  0  0.115747  0.117608  0  0.988772  0
H  H13  1  0.28891099  0.53989556  0.59810865  1  0  0.108168  0  0.925502  0  0  0.118876  0  0.988196  0  0  0.120438  0  0.987625  0  0  0.115764  0.117613  0  0.988786  0
H  H14  1  0.78891173  0.53989690  0.90189227  1  0  0.108183  0  0.925482  0  0  0.118886  0  0.988149  0  0  0.120447  0  0.987578  0  0  0.115753  0.11762  0  0.988744  0
H  H15  1  0.71109153  0.46010453  0.40189232  1  0  0.108169  0  0.925497  0  0  0.118907  0  0.988173  0  0  0.120467  0  0.987601  0  0  0.11577  0.117644  0  0.988765  0
H  H16  1  0.28068164  0.58551560  0.99565242  1  0  0.097279  0  0.933765  0  0  0.106858  0  1.000833  0  0  0.108337  0  1.000691  0  0  0.11378  0.105685  0  1.001104  0
H  H17  1  0.21931854  0.41448596  0.49565241  1  0  0.097305  0  0.933775  0  0  0.106877  0  1.000865  0  0  0.108357  0  1.000724  0  0  0.113778  0.105701  0  1.001132  0
H  H18  1  0.71931588  0.41448571  0.00434786  1  0  0.097251  0  0.933799  0  0  0.106794  0  1.000892  0  0  0.108272  0  1.000755  0  0  0.113759  0.105621  0  1.001158  0
H  H19  1  0.78068261  0.58551412  0.50434927  1  0  0.097285  0  0.933838  0  0  0.106885  0  1.000928  0  0  0.108364  0  1.000786  0  0  0.113775  0.10571  0  1.001195  0
H  H20  1  0.44078369  0.49325877  0.86376772  1  0  0.096797  0  0.946597  0  0  0.105875  0  1.015585  0  0  0.107285  0  1.015297  0  0  0.10201  0.104695  0  1.016094  0
H  H21  1  0.05921842  0.50674510  0.36376811  1  0  0.096805  0  0.946594  0  0  0.1059  0  1.015533  0  0  0.107316  0  1.015248  0  0  0.102013  0.104717  0  1.01605  0
H  H22  1  0.55921522  0.50674253  0.13623186  1  0  0.096817  0  0.946565  0  0  0.105897  0  1.015553  0  0  0.107309  0  1.015265  0  0  0.102019  0.104714  0  1.016068  0
H  H23  1  0.94078239  0.49325742  0.63623287  1  0  0.096828  0  0.946505  0  0  0.105895  0  1.015495  0  0  0.107308  0  1.015206  0  0  0.102013  0.104716  0  1.016006  0
H  H24  1  0.47868251  0.30419268  0.87451943  1  0  0.115736  0  0.943271  0  0  0.129551  0  1.000549  0  0  0.131699  0  0.99924  0  0  0.108506  0.127901  0  1.001646  0
H  H25  1  0.02131952  0.69581121  0.37452150  1  0  0.115682  0  0.943348  0  0  0.12948  0  1.000613  0  0  0.13163  0  0.999304  0  0  0.108501  0.127862  0  1.001674  0
H  H26  1  0.52131639  0.69580862  0.12548085  1  0  0.115721  0  0.943262  0  0  0.129535  0  1.000537  0  0  0.131684  0  0.999228  0  0  0.108492  0.127885  0  1.00164  0
H  H27  1  0.97868129  0.30419132  0.62548018  1  0  0.115707  0  0.943307  0  0  0.129529  0  1.000552  0  0  0.13168  0  0.999241  0  0  0.108502  0.127877  0  1.001654  0
H  H28  1  0.34818330  0.27257523  0.02939452  1  0  0.283988  0  0.885544  0  0  0.26803  0  0.942818  0  0  0.276151  0  0.93708  0  0  0.309392  0.262217  0  0.947  0
H  H29  1  0.15181999  0.72742589  0.52939493  1  0  0.283984  0  0.885536  0  0  0.26802  0  0.94283  0  0  0.276142  0  0.937089  0  0  0.309392  0.262209  0  0.947004  0
H  H30  1  0.65181751  0.72742729  0.97060646  1  0  0.284002  0  0.885549  0  0  0.268041  0  0.942827  0  0  0.276162  0  0.937088  0  0  0.309402  0.262233  0  0.947  0
H  H31  1  0.84818582  0.27257542  0.47060465  1  0  0.283983  0  0.88559  0  0  0.268027  0  0.942857  0  0  0.276148  0  0.937117  0  0  0.309398  0.262218  0  0.947034  0
H  H32  1  0.07839961  0.13713130  0.44123507  1  0  0.422367  0  0.879139  0  0  0.386739  0  0.953658  0  0  0.397839  0  0.937581  0  0  0.285606  0.37889  0  0.964995  0
H  H33  1  0.42159765  0.86286898  0.94123863  1  0  0.422289  0  0.879089  0  0  0.386659  0  0.953734  0  0  0.397758  0  0.937658  0  0  0.285563  0.378812  0  0.965067  0
H  H34  1  0.92159877  0.86286878  0.55876101  1  0  0.422305  0  0.879059  0  0  0.38668  0  0.953699  0  0  0.397779  0  0.937624  0  0  0.285569  0.378831  0  0.965038  0
H  H35  1  0.57839988  0.13713232  0.05876305  1  0  0.422322  0  0.879079  0  0  0.38669  0  0.953703  0  0  0.39779  0  0.937625  0  0  0.285571  0.378844  0  0.965034  0
H  H36  1  0.85049919  0.02456874  0.43821958  1  0  0.429982  0  0.866183  0  0  0.397352  0  0.934023  0  0  0.407637  0  0.919233  0  0  0.292175  0.390089  0  0.944454  0
H  H37  1  0.64950140  0.97543027  0.93822027  1  0  0.429979  0  0.866185  0  0  0.397355  0  0.93402  0  0  0.40764  0  0.919228  0  0  0.292184  0.390091  0  0.94445  0
H  H38  1  0.14949934  0.97542522  0.56178000  1  0  0.430019  0  0.866157  0  0  0.397386  0  0.933983  0  0  0.407671  0  0.919192  0  0  0.292197  0.39012  0  0.944416  0
H  H39  1  0.35049888  0.02457104  0.06178001  1  0  0.43001  0  0.866149  0  0  0.39737  0  0.934003  0  0  0.407655  0  0.919212  0  0  0.292188  0.390109  0  0.944429  0
C  C40  1  0.96652193  0.18712744  0.01577209  1  0  0.705226  0  3.862512  0  0  0.6495  0  4.176058  0  0  0.683305  0  4.167727  0  0  0.212303  0.626557  0  4.180961  0
C  C41  1  0.53347701  0.81287362  0.51576652  1  0  0.705297  0  3.862418  0  0  0.649448  0  4.176089  0  0  0.683253  0  4.167761  0  0  0.212261  0.626506  0  4.18099  0
C  C42  1  0.03348440  0.81287509  0.98423588  1  0  0.705412  0  3.862398  0  0  0.649588  0  4.176034  0  0  0.683393  0  4.167702  0  0  0.212358  0.626636  0  4.180949  0
C  C43  1  0.46653794  0.18712646  0.48422257  1  0  0.705219  0  3.862532  0  0  0.649417  0  4.176244  0  0  0.683221  0  4.167917  0  0  0.212272  0.62647  0  4.18115  0
C  C44  1  0.12012417  0.27478936  0.94160991  1  0  -0.170895  0  3.506995  0  0  -0.227597  0  3.754835  0  0  -0.229143  0  3.759757  0  0  -0.066474  -0.22651  0  3.751497  0
C  C45  1  0.37987533  0.72520970  0.44160995  1  0  -0.171085  0  3.50687  0  0  -0.227697  0  3.75468  0  0  -0.229238  0  3.759597  0  0  -0.066528  -0.226604  0  3.751343  0
C  C46  1  0.87987422  0.72521072  0.05839037  1  0  -0.170962  0  3.506924  0  0  -0.227613  0  3.754744  0  0  -0.229162  0  3.759666  0  0  -0.066491  -0.226522  0  3.751412  0
C  C47  1  0.62012615  0.27478794  0.55838893  1  0  -0.170958  0  3.506986  0  0  -0.227734  0  3.754978  0  0  -0.22928  0  3.759896  0  0  -0.066482  -0.226642  0  3.751634  0
C  C48  1  0.32152687  0.50321974  0.04248152  1  0  -0.027122  0  3.520207  0  0  -0.083919  0  3.770271  0  0  -0.081114  0  3.779878  0  0  -0.060221  -0.085619  0  3.763736  0
C  C49  1  0.17847305  0.49678017  0.54248232  1  0  -0.027138  0  3.520213  0  0  -0.084003  0  3.770356  0  0  -0.081203  0  3.779972  0  0  -0.060265  -0.085717  0  3.763852  0
C  C50  1  0.67847204  0.49678156  0.95751806  1  0  -0.027062  0  3.520313  0  0  -0.083816  0  3.770367  0  0  -0.081016  0  3.779982  0  0  -0.060213  -0.08553  0  3.763859  0
C  C51  1  0.82152947  0.50321991  0.45751936  1  0  -0.027025  0  3.520296  0  0  -0.083984  0  3.770489  0  0  -0.081177  0  3.780094  0  0  -0.060229  -0.085706  0  3.764004  0
C  C52  1  0.47849193  0.41269246  0.91302686  1  0  -0.035255  0  3.523735  0  0  -0.091267  0  3.770354  0  0  -0.088899  0  3.780538  0  0  -0.065113  -0.092812  0  3.763635  0
C  C53  1  0.02150795  0.58731024  0.41302880  1  0  -0.035214  0  3.523731  0  0  -0.091145  0  3.770328  0  0  -0.088793  0  3.780521  0  0  -0.0651  -0.09271  0  3.763612  0
C  C54  1  0.52150698  0.58730884  0.08697272  1  0  -0.035224  0  3.523681  0  0  -0.091236  0  3.770313  0  0  -0.088874  0  3.780498  0  0  -0.065118  -0.092778  0  3.763604  0
C  C55  1  0.97849234  0.41269106  0.58697287  1  0  -0.035214  0  3.523656  0  0  -0.091154  0  3.77021  0  0  -0.088794  0  3.780395  0  0  -0.065103  -0.092699  0  3.763498  0
N  N56  1  0.31839277  0.35856464  0.98536684  1  0  -0.078119  0  3.363977  0  0  0.003274  0  3.574236  0  0  -0.008891  0  3.591982  0  0  -0.349781  0.011578  0  3.562056  0
N  N57  1  0.18160643  0.64143445  0.48536785  1  0  -0.078061  0  3.363956  0  0  0.003308  0  3.574194  0  0  -0.008858  0  3.591942  0  0  -0.349758  0.011605  0  3.562016  0
N  N58  1  0.68160561  0.64143544  0.01463344  1  0  -0.078181  0  3.364216  0  0  0.003195  0  3.574469  0  0  -0.008968  0  3.592214  0  0  -0.349777  0.011493  0  3.562285  0
N  N59  1  0.81839557  0.35856441  0.51463313  1  0  -0.078211  0  3.364115  0  0  0.003249  0  3.574329  0  0  -0.008916  0  3.592075  0  0  -0.349759  0.011548  0  3.562148  0
Cl  Cl60  1  0.80632145  0.36888001  0.21899320  1  0  -0.566952  0  0.974752  0  0  -0.50257  0  1.248855  0  0  -0.521866  0  1.227386  0  0  -0.289491  -0.488572  0  1.263726  0
Cl  Cl61  1  0.69367442  0.63112369  0.71899552  1  0  -0.566941  0  0.974768  0  0  -0.502557  0  1.248884  0  0  -0.521854  0  1.227415  0  0  -0.289494  -0.488561  0  1.263754  0
Cl  Cl62  1  0.19367627  0.63112496  0.78100568  1  0  -0.566937  0  0.974757  0  0  -0.502568  0  1.248899  0  0  -0.521865  0  1.227429  0  0  -0.289496  -0.488572  0  1.263773  0
Cl  Cl63  1  0.30632225  0.36887884  0.28100406  1  0  -0.566947  0  0.974785  0  0  -0.502549  0  1.248872  0  0  -0.521848  0  1.227407  0  0  -0.289489  -0.488551  0  1.263743  0
Cl  Cl64  1  0.61583130  0.91668109  0.23886031  1  0  -0.550913  0  1.039033  0  0  -0.488467  0  1.316185  0  0  -0.507342  0  1.293039  0  0  -0.28549  -0.474849  0  1.332589  0
Cl  Cl65  1  0.88416734  0.08331652  0.73886446  1  0  -0.550893  0  1.039022  0  0  -0.488462  0  1.316202  0  0  -0.507337  0  1.293055  0  0  -0.285488  -0.474839  0  1.332597  0
Cl  Cl66  1  0.38416742  0.08331655  0.76113857  1  0  -0.550904  0  1.039023  0  0  -0.488459  0  1.31619  0  0  -0.507334  0  1.293044  0  0  -0.28549  -0.474846  0  1.332598  0
Cl  Cl67  1  0.11583328  0.91668234  0.26113861  1  0  -0.550883  0  1.039025  0  0  -0.488433  0  1.316169  0  0  -0.507308  0  1.293023  0  0  -0.285482  -0.474824  0  1.332584  0
O  O68  1  0.03563829  0.15091519  0.09026876  1  0  -0.64618  0  2.067964  0  0  -0.586027  0  2.332014  0  0  -0.614313  0  2.323016  0  0  -0.331973  -0.566243  0  2.337524  0
O  O69  1  0.46437031  0.84908966  0.59026593  1  0  -0.64628  0  2.067965  0  0  -0.585972  0  2.331958  0  0  -0.614259  0  2.32296  0  0  -0.331941  -0.566185  0  2.337466  0
O  O70  1  0.96437204  0.84909345  0.90973361  1  0  -0.646417  0  2.067867  0  0  -0.586124  0  2.331851  0  0  -0.614412  0  2.322851  0  0  -0.332008  -0.566328  0  2.337357  0
O  O71  1  0.53563950  0.15091776  0.40973295  1  0  -0.645993  0  2.068365  0  0  -0.585826  0  2.332485  0  0  -0.614108  0  2.323486  0  0  -0.331861  -0.566043  0  2.337998  0
O  O72  1  0.78695364  0.15670686  0.99464331  1  0  -0.657115  0  1.998487  0  0  -0.594771  0  2.226293  0  0  -0.619065  0  2.214448  0  0  -0.323773  -0.577866  0  2.234033  0
O  O73  1  0.71304862  0.84328732  0.49463750  1  0  -0.657139  0  1.998525  0  0  -0.594765  0  2.226385  0  0  -0.619059  0  2.21454  0  0  -0.323766  -0.577862  0  2.234128  0
O  O74  1  0.21304213  0.84328711  0.00536257  1  0  -0.657148  0  1.998673  0  0  -0.594778  0  2.226538  0  0  -0.61907  0  2.214695  0  0  -0.323796  -0.577874  0  2.234286  0
O  O75  1  0.28694662  0.15670543  0.50535719  1  0  -0.657319  0  1.997966  0  0  -0.594925  0  2.225791  0  0  -0.619223  0  2.213951  0  0  -0.323902  -0.578009  0  2.233528  0
O  O76  1  0.94566730  0.13369035  0.41907950  1  0  -0.819729  0  1.94322  0  0  -0.756645  0  2.141985  0  0  -0.779518  0  2.110847  0  0  -0.572194  -0.740423  0  2.163543  0
O  O77  1  0.55433532  0.86630987  0.91907815  1  0  -0.81964  0  1.943148  0  0  -0.756562  0  2.142013  0  0  -0.779436  0  2.110874  0  0  -0.572145  -0.740344  0  2.16357  0
O  O78  1  0.05433384  0.86630973  0.58092077  1  0  -0.819715  0  1.943145  0  0  -0.756627  0  2.141994  0  0  -0.779502  0  2.110855  0  0  -0.572172  -0.740403  0  2.163557  0
O  O79  1  0.44566411  0.13369266  0.08092003  1  0  -0.819713  0  1.943156  0  0  -0.756609  0  2.141971  0  0  -0.779483  0  2.110832  0  0  -0.572141  -0.740391  0  2.163526  0
