# generated using pymatgen
data_ZnH13C22(N4O7)2
_symmetry_space_group_name_H-M   'P 1'
_cell_length_a   11.79923864
_cell_length_b   13.07113779
_cell_length_c   19.32812986
_cell_angle_alpha   91.66584366
_cell_angle_beta   88.43885514
_cell_angle_gamma   88.39790540
_symmetry_Int_Tables_number   1
_chemical_formula_structural   ZnH13C22(N4O7)2
_chemical_formula_sum   'Zn2 H26 C44 N16 O28'
_cell_volume   2977.36821770
_cell_formula_units_Z   2
loop_
 _symmetry_equiv_pos_site_id
 _symmetry_equiv_pos_as_xyz
  1  'x, y, z'
loop_
 _atom_site_type_symbol
 _atom_site_label
 _atom_site_symmetry_multiplicity
 _atom_site_fract_x
 _atom_site_fract_y
 _atom_site_fract_z
 _atom_site_occupancy
 _atom_site_pbe_bader_charge
 _atom_site_pbe_bader_spin_density
 _atom_site_pbe_cm5_charge
 _atom_site_pbe_ddec_charge
 _atom_site_pbe_ddec_spin_density
 _atom_site_pbe_ddec_sum_bond_order
 _atom_site_pbe_magmom
Zn  Zn0  1  0.61576472  0.48684451  0.50552988  1  1.291366  0  0.682671  0.835048  0  2.399806  0
Zn  Zn1  1  0.38425497  0.51321678  0.49445704  1  1.289676  0  0.682645  0.834812  0  2.399888  0
H  H2  1  0.66131504  0.54510284  0.84808496  1  0.166595  0  0.128733  0.141941  0  0.985459  0
H  H3  1  0.33863738  0.45466531  0.15191071  1  0.164541  0  0.128666  0.141725  0  0.985625  0
H  H4  1  0.37043835  0.00539397  0.62338496  1  0.117496  0  0.121503  0.13139  0  1.011259  0
H  H5  1  0.62955020  0.99467740  0.37664230  1  0.112753  0  0.121484  0.131322  0  1.011428  0
H  H6  1  0.79960569  0.59168658  0.45411956  1  0.218155  0  0.142249  0.123629  0  1.007049  0
H  H7  1  0.20044708  0.40835257  0.54587239  1  0.218301  0  0.142229  0.12364  0  1.007106  0
H  H8  1  0.19782568  0.66312313  0.74711164  1  0.039412  0  0.088436  0.122192  0  0.998344  0
H  H9  1  0.26463139  0.65548419  0.66311024  1  0.057527  0  0.082541  0.1161  0  1.031697  0
H  H10  1  0.12715316  0.60566336  0.67687346  1  0.017501  0  0.083737  0.113141  0  1.001836  0
H  H11  1  0.27432939  0.46287100  0.66808130  1  0.078176  0  0.094147  0.103343  0  1.034052  0
H  H12  1  0.20424863  0.46841091  0.74907024  1  0.072174  0  0.101286  0.108184  0  0.992255  0
H  H13  1  0.73537291  0.34456929  0.33686195  1  0.057927  0  0.082552  0.116428  0  1.031514  0
H  H14  1  0.80217092  0.33696429  0.25284811  1  0.039761  0  0.088462  0.122425  0  0.99813  0
H  H15  1  0.87283359  0.39444903  0.32309077  1  0.016601  0  0.083785  0.113301  0  1.002026  0
H  H16  1  0.79565451  0.53171001  0.25091790  1  0.076655  0  0.101386  0.108319  0  0.991734  0
H  H17  1  0.72554184  0.53717179  0.33191105  1  0.078856  0  0.094107  0.103236  0  1.033888  0
H  H18  1  0.59392560  0.80805391  0.65704589  1  0.067624  0  0.087428  0.130262  0  1.012533  0
H  H19  1  0.51285044  0.92201144  0.67728030  1  0.00653  0  0.085548  0.113958  0  1.014294  0
H  H20  1  0.46924918  0.80326409  0.70989659  1  0.067291  0  0.088756  0.121512  0  0.995485  0
H  H21  1  0.34864504  0.84786598  0.61000515  1  0.041204  0  0.09829  0.10015  0  0.972408  0
H  H22  1  0.43043832  0.73654656  0.59175702  1  0.027499  0  0.093122  0.098311  0  1.021812  0
H  H23  1  0.48722863  0.07808645  0.32274851  1  0.00764  0  0.085718  0.114216  0  1.014035  0
H  H24  1  0.40617803  0.19202837  0.34299112  1  0.067922  0  0.087449  0.130321  0  1.012625  0
H  H25  1  0.53085163  0.19682218  0.29014616  1  0.064726  0  0.088857  0.121831  0  0.995273  0
H  H26  1  0.56967355  0.26347953  0.40828844  1  0.026609  0  0.093069  0.098414  0  1.022138  0
H  H27  1  0.65140679  0.15216903  0.39005403  1  0.040368  0  0.09835  0.100144  0  0.972477  0
C  C28  1  0.45896248  0.30698903  0.51288022  1  1.594415  0  0.222441  0.619115  0  4.193416  0
C  C29  1  0.54112442  0.69308163  0.48713473  1  1.594165  0  0.222573  0.619561  0  4.193903  0
C  C30  1  0.48947074  0.52360576  0.63450652  1  1.559667  0  0.228621  0.612294  0  4.131034  0
C  C31  1  0.51046234  0.47645325  0.36546683  1  1.561907  0  0.228818  0.612969  0  4.130777  0
C  C32  1  0.57934521  0.54246433  0.74989740  1  0.248238  0  0.092317  0.078944  0  3.917825  0
C  C33  1  0.42058735  0.45743104  0.25010021  1  0.247363  0  0.092493  0.079206  0  3.917501  0
C  C34  1  0.58208054  0.53759068  0.82109857  1  0.043926  0  -0.065211  -0.149293  0  3.935805  0
C  C35  1  0.41785677  0.46225088  0.17889664  1  0.044083  0  -0.06555  -0.148938  0  3.935886  0
C  C36  1  0.48181902  0.52158110  0.85911634  1  -0.006832  0  0.012899  0.004841  0  3.974404  0
C  C37  1  0.51812183  0.47821501  0.14085848  1  -0.005176  0  0.013458  0.003293  0  3.976751  0
C  C38  1  0.38125951  0.51326378  0.82240128  1  0.153291  0  0.094453  -0.001523  0  3.843207  0
C  C39  1  0.61866852  0.48663320  0.17757458  1  0.153577  0  0.09386  -0.001918  0  3.844351  0
C  C40  1  0.37612766  0.51709211  0.74988254  1  0.089637  0  0.028417  0.108447  0  3.830523  0
C  C41  1  0.62379494  0.48289698  0.25009479  1  0.090889  0  0.028258  0.108654  0  3.830657  0
C  C42  1  0.47964164  0.53046209  0.71240003  1  0.076885  0  0.009758  -0.102207  0  3.824719  0
C  C43  1  0.52028759  0.46952441  0.28757885  1  0.076751  0  0.009807  -0.102277  0  3.825093  0
C  C44  1  0.51010727  0.48840419  0.06548427  1  1.011735  0  0.252259  0.255566  0  3.966179  0
C  C45  1  0.48984205  0.51134788  0.93448678  1  1.013382  0  0.25243  0.254821  0  3.966813  0
C  C46  1  0.54079694  0.80807105  0.48404701  1  0.057817  0  -0.003961  -0.118388  0  3.911  0
C  C47  1  0.45922851  0.19199178  0.51598398  1  0.052013  0  -0.004087  -0.11885  0  3.911742  0
C  C48  1  0.41292207  0.03756170  0.57880346  1  0.099331  0  -0.069257  -0.15655  0  3.948948  0
C  C49  1  0.58709953  0.96250817  0.42122399  1  0.102611  0  -0.069268  -0.157044  0  3.947649  0
C  C50  1  0.40796694  0.14201197  0.57229221  1  0.10615  0  0.082234  0.058007  0  3.945396  0
C  C51  1  0.59204484  0.85805370  0.42772786  1  0.107585  0  0.082193  0.057372  0  3.944842  0
C  C52  1  0.51551005  0.13324091  0.46381053  1  0.054744  0  0.017138  0.095075  0  3.840027  0
C  C53  1  0.48455324  0.86684248  0.53623399  1  0.051061  0  0.017311  0.096093  0  3.839444  0
C  C54  1  0.52556222  0.02449569  0.47094747  1  -0.040368  0  0.007687  0.047871  0  3.941882  0
C  C55  1  0.47448028  0.97557931  0.52907347  1  0.017447  0  0.007607  0.044215  0  3.945232  0
C  C56  1  0.03410834  0.61667818  0.45169634  1  0.275356  0  0.110237  -0.026468  0  3.862695  0
C  C57  1  0.96593625  0.38336668  0.54829306  1  0.27455  0  0.110303  -0.026856  0  3.863019  0
C  C58  1  0.14885017  0.61904803  0.46256880  1  0.800968  0  0.233165  0.181046  0  3.900825  0
C  C59  1  0.85119069  0.38098161  0.53740635  1  0.801482  0  0.233034  0.181263  0  3.900491  0
C  C60  1  0.14937146  0.46786932  0.52224220  1  0.587845  0  0.103419  0.120318  0  3.773803  0
C  C61  1  0.85067672  0.53217008  0.47775542  1  0.586414  0  0.103475  0.120796  0  3.77388  0
C  C62  1  0.02974032  0.46243486  0.51905272  1  0.025139  0  0.032639  0.035937  0  3.94359  0
C  C63  1  0.97030448  0.53759156  0.48092602  1  0.082066  0  0.032515  0.035062  0  3.944018  0
C  C64  1  0.26284039  0.50950312  0.71571911  1  0.001698  0  -0.169492  -0.168329  0  3.960906  0
C  C65  1  0.21065511  0.61507896  0.69980976  1  -0.071526  0  -0.245681  -0.344134  0  3.933718  0
C  C66  1  0.73709107  0.49055220  0.28426504  1  -0.003002  0  -0.16943  -0.168174  0  3.959517  0
C  C67  1  0.78934073  0.38498334  0.30016562  1  -0.07202  0  -0.245808  -0.345006  0  3.93359  0
C  C68  1  0.43649670  0.81931542  0.60052537  1  0.022281  0  -0.16416  -0.158867  0  3.96889  0
C  C69  1  0.50739950  0.83985643  0.66477011  1  -0.08724  0  -0.244256  -0.354285  0  3.936864  0
C  C70  1  0.56358104  0.18074591  0.39952355  1  0.046027  0  -0.163982  -0.15884  0  3.970105  0
C  C71  1  0.49269716  0.16022235  0.33526834  1  -0.106326  0  -0.244663  -0.354972  0  3.937098  0
N  N72  1  0.40525398  0.46530395  0.96908354  1  -0.512907  0  -0.138392  -0.116926  0  3.211623  0
N  N73  1  0.59469147  0.53444988  0.03089580  1  -0.511366  0  -0.138471  -0.116603  0  3.211215  0
N  N74  1  0.41537119  0.45351130  0.03593449  1  -0.552306  0  -0.137657  -0.122231  0  3.177385  0
N  N75  1  0.58457846  0.54623543  0.96404269  1  -0.552668  0  -0.137562  -0.122293  0  3.178356  0
N  N76  1  0.79422120  0.45633672  0.50533111  1  -1.188607  0  -0.280014  -0.192824  0  3.428078  0
N  N77  1  0.20580556  0.54370051  0.49465546  1  -1.189875  0  -0.28001  -0.192392  0  3.428587  0
N  N78  1  0.69059929  0.56419309  0.71620523  1  0.40554  0  0.059849  0.527605  0  4.228362  0
N  N79  1  0.30936106  0.43574171  0.28381133  1  0.404946  0  0.059764  0.527131  0  4.229385  0
N  N80  1  0.97799669  0.69489037  0.40941710  1  0.419246  0  0.069971  0.51275  0  4.228135  0
N  N81  1  0.02204348  0.30511319  0.59054520  1  0.420737  0  0.070163  0.512899  0  4.228056  0
N  N82  1  0.27202862  0.50436970  0.86158582  1  0.448081  0  0.057599  0.506351  0  4.285307  0
N  N83  1  0.72790727  0.49553149  0.13838809  1  0.447441  0  0.057539  0.506811  0  4.285698  0
N  N84  1  0.64838977  0.79788937  0.37022832  1  0.385012  0  0.058466  0.51302  0  4.1978  0
N  N85  1  0.35162375  0.20218390  0.62979396  1  0.386103  0  0.058343  0.513018  0  4.198959  0
N  N86  1  0.78341171  0.29267666  0.55966196  1  0.456606  0  0.0649  0.469121  0  4.283697  0
N  N87  1  0.21664165  0.70734782  0.44031474  1  0.458608  0  0.064673  0.469077  0  4.283191  0
O  O88  1  0.55571496  0.34503164  0.51943858  1  -1.160187  0  -0.308657  -0.547977  0  2.440896  0
O  O89  1  0.44435116  0.65505108  0.48064167  1  -1.159237  0  -0.30912  -0.548737  0  2.441168  0
O  O90  1  0.36753820  0.35650953  0.50077419  1  -1.16313  0  -0.315611  -0.547543  0  2.308649  0
O  O91  1  0.63257549  0.64356013  0.49915187  1  -1.163086  0  -0.315517  -0.547498  0  2.308705  0
O  O92  1  0.58899609  0.50623359  0.60960032  1  -1.147052  0  -0.305186  -0.52657  0  2.378988  0
O  O93  1  0.41095963  0.49402402  0.39034846  1  -1.147184  0  -0.305148  -0.526789  0  2.37858  0
O  O94  1  0.40058816  0.53430096  0.59925745  1  -1.156419  0  -0.300208  -0.532218  0  2.379475  0
O  O95  1  0.59931753  0.46567677  0.40074132  1  -1.157885  0  -0.300249  -0.532627  0  2.379144  0
O  O96  1  0.70161044  0.65068542  0.69320747  1  -0.442175  0  -0.126637  -0.324323  0  1.90509  0
O  O97  1  0.76580194  0.49682159  0.71828248  1  -0.422284  0  -0.13289  -0.326136  0  1.882885  0
O  O98  1  0.29842153  0.34930498  0.30692023  1  -0.442025  0  -0.126429  -0.323952  0  1.905642  0
O  O99  1  0.23413889  0.50308529  0.28165583  1  -0.421987  0  -0.132921  -0.325983  0  1.88284  0
O  O100  1  0.91326132  0.66214943  0.36537640  1  -0.394332  0  -0.078782  -0.264119  0  1.912797  0
O  O101  1  0.00078133  0.78485470  0.42208796  1  -0.391204  0  -0.091325  -0.271218  0  1.869601  0
O  O102  1  0.08679286  0.33783282  0.63458408  1  -0.395254  0  -0.078986  -0.264194  0  1.912988  0
O  O103  1  0.99923177  0.21515171  0.57788766  1  -0.391637  0  -0.09135  -0.271289  0  1.869572  0
O  O104  1  0.22804444  0.42009197  0.86153594  1  -0.426851  0  -0.107671  -0.29821  0  1.903021  0
O  O105  1  0.23255290  0.58480227  0.88907025  1  -0.430577  0  -0.125772  -0.316717  0  1.863012  0
O  O106  1  0.77188112  0.57981492  0.13841573  1  -0.427618  0  -0.107455  -0.298268  0  1.903402  0
O  O107  1  0.76741276  0.41508554  0.11093781  1  -0.429287  0  -0.125693  -0.31674  0  1.863387  0
O  O108  1  0.61671041  0.70875698  0.36032304  1  -0.475782  0  -0.123558  -0.319665  0  1.953786  0
O  O109  1  0.72160857  0.83970499  0.33483302  1  -0.424823  0  -0.128667  -0.324315  0  1.889723  0
O  O110  1  0.38320672  0.29135636  0.63965575  1  -0.477177  0  -0.123187  -0.31962  0  1.954814  0
O  O111  1  0.27844152  0.16036217  0.66521270  1  -0.425368  0  -0.128836  -0.3244  0  1.889636  0
O  O112  1  0.76397615  0.23092291  0.51252866  1  -0.380051  0  -0.077036  -0.2524  0  1.936097  0
O  O113  1  0.75452541  0.29066398  0.62106811  1  -0.370538  0  -0.076865  -0.238998  0  1.893035  0
O  O114  1  0.24549175  0.70934984  0.37889989  1  -0.371166  0  -0.076719  -0.238964  0  1.892991  0
O  O115  1  0.23607690  0.76911151  0.48744354  1  -0.381167  0  -0.076911  -0.252189  0  1.935236  0
