# generated using pymatgen
data_FeH20C22S2(N3O)2
_symmetry_space_group_name_H-M   'P 1'
_cell_length_a   7.20941156
_cell_length_b   8.69794206
_cell_length_c   10.05374315
_cell_angle_alpha   108.33191651
_cell_angle_beta   104.16721956
_cell_angle_gamma   96.44382347
_symmetry_Int_Tables_number   1
_chemical_formula_structural   FeH20C22S2(N3O)2
_chemical_formula_sum   'Fe1 H20 C22 S2 N6 O2'
_cell_volume   567.85102856
_cell_formula_units_Z   1
loop_
 _symmetry_equiv_pos_site_id
 _symmetry_equiv_pos_as_xyz
  1  'x, y, z'
loop_
 _atom_site_type_symbol
 _atom_site_label
 _atom_site_symmetry_multiplicity
 _atom_site_fract_x
 _atom_site_fract_y
 _atom_site_fract_z
 _atom_site_occupancy
 _atom_site_hle17_bader_spin_density
 _atom_site_hle17_ddec_charge
 _atom_site_hle17_ddec_spin_density
 _atom_site_hle17_ddec_sum_bond_order
 _atom_site_hle17_magmom
 _atom_site_hse06_10hf_bader_spin_density
 _atom_site_hse06_10hf_ddec_charge
 _atom_site_hse06_10hf_ddec_spin_density
 _atom_site_hse06_10hf_ddec_sum_bond_order
 _atom_site_hse06_10hf_magmom
 _atom_site_hse06_bader_spin_density
 _atom_site_hse06_ddec_charge
 _atom_site_hse06_ddec_spin_density
 _atom_site_hse06_ddec_sum_bond_order
 _atom_site_hse06_magmom
 _atom_site_pbe_bader_spin_density
 _atom_site_pbe_cm5_charge
 _atom_site_pbe_ddec_charge
 _atom_site_pbe_ddec_spin_density
 _atom_site_pbe_ddec_sum_bond_order
 _atom_site_pbe_magmom
Fe  Fe0  1  0.00005965  0.00005683  0.00000495  1  0  0.680951  0  2.898823  0  0  0.663134  0  3.369962  0  0  0.708524  0  3.308913  0  0  0.728783  0.642055  0  3.402112  0
H  H1  1  0.09876426  0.77502784  0.12761219  1  0  0.359481  0  0.955309  0  0  0.318423  0  1.056451  0  0  0.3291  0  1.042227  0  0  0.277366  0.311069  0  1.062286  0
H  H2  1  0.90121909  0.22525296  0.87262379  1  0  0.359089  0  0.955685  0  0  0.318005  0  1.056954  0  0  0.328679  0  1.042806  0  0  0.277316  0.310657  0  1.062772  0
H  H3  1  0.34397032  0.27059463  0.54337950  1  0  0.098562  0  0.993622  0  0  0.105459  0  1.062911  0  0  0.108622  0  1.061958  0  0  0.094268  0.103153  0  1.063621  0
H  H4  1  0.65597229  0.73011417  0.45694197  1  0  0.098373  0  0.994321  0  0  0.105381  0  1.063606  0  0  0.108485  0  1.062775  0  0  0.094086  0.103074  0  1.06428  0
H  H5  1  0.48348041  0.54613854  0.27506074  1  0  0.100365  0  0.979664  0  0  0.105951  0  1.049809  0  0  0.109532  0  1.0481  0  0  0.098567  0.103078  0  1.05176  0
H  H6  1  0.51704464  0.45398324  0.72506895  1  0  0.099983  0  0.979884  0  0  0.105725  0  1.049792  0  0  0.109317  0  1.04808  0  0  0.098431  0.10282  0  1.051793  0
H  H7  1  0.12700812  0.05884588  0.31733167  1  0  0.082688  0  0.959545  0  0  0.090172  0  1.024649  0  0  0.092245  0  1.021927  0  0  0.119229  0.088204  0  1.027524  0
H  H8  1  0.87296989  0.94156134  0.68297202  1  0  0.082736  0  0.959719  0  0  0.090074  0  1.024924  0  0  0.09213  0  1.022248  0  0  0.119142  0.088104  0  1.027813  0
H  H9  1  0.26441845  0.31820269  0.06084567  1  0  0.090242  0  0.938136  0  0  0.100574  0  0.995572  0  0  0.102618  0  0.993077  0  0  0.123337  0.09862  0  0.998246  0
H  H10  1  0.73560889  0.68190934  0.93926442  1  0  0.090195  0  0.938225  0  0  0.100783  0  0.995394  0  0  0.102834  0  0.992879  0  0  0.123492  0.098827  0  0.998072  0
H  H11  1  0.28519542  0.85355599  0.09596038  1  0  0.370408  0  0.921014  0  0  0.344496  0  1.002861  0  0  0.353017  0  0.991419  0  0  0.268363  0.33826  0  1.008625  0
H  H12  1  0.71488145  0.14637497  0.90403444  1  0  0.370227  0  0.921052  0  0  0.344313  0  1.002889  0  0  0.352832  0  0.991685  0  0  0.26836  0.33808  0  1.00864  0
H  H13  1  0.20834056  0.76810282  0.60856504  1  0  0.103836  0  0.980347  0  0  0.111053  0  1.046972  0  0  0.113541  0  1.047067  0  0  0.10274  0.109252  0  1.046929  0
H  H14  1  0.79133135  0.23173705  0.39123781  1  0  0.103984  0  0.981201  0  0  0.111357  0  1.047597  0  0  0.113846  0  1.047702  0  0  0.10285  0.109562  0  1.047535  0
H  H15  1  0.82295026  0.34161092  0.24883189  1  0  0.118603  0  0.941907  0  0  0.130047  0  0.997906  0  0  0.133039  0  0.997302  0  0  0.11355  0.127683  0  0.998695  0
H  H16  1  0.17681180  0.65801947  0.75107712  1  0  0.118551  0  0.941487  0  0  0.129896  0  0.997633  0  0  0.132848  0  0.997065  0  0  0.113385  0.127581  0  0.998349  0
H  H17  1  0.86676413  0.48887749  0.08428039  1  0  0.081301  0  0.939492  0  0  0.091416  0  1.000581  0  0  0.094727  0  0.997683  0  0  0.115385  0.089008  0  1.002264  0
H  H18  1  0.13311402  0.51051002  0.91551363  1  0  0.081159  0  0.939564  0  0  0.091278  0  1.000636  0  0  0.09462  0  0.997698  0  0  0.115297  0.088874  0  1.002319  0
H  H19  1  0.24037194  0.89383921  0.42812637  1  0  0.067681  0  0.963618  0  0  0.072471  0  1.036921  0  0  0.074806  0  1.035114  0  0  0.103397  0.071071  0  1.037671  0
H  H20  1  0.75937173  0.10575143  0.57152802  1  0  0.067359  0  0.963476  0  0  0.072241  0  1.036754  0  0  0.074593  0  1.034915  0  0  0.103215  0.070842  0  1.037499  0
C  C21  1  0.43731554  0.43293312  0.43358705  1  0  0.08461  0  3.755134  0  0  0.096319  0  3.985334  0  0  0.103152  0  4.00234  0  0  0.002892  0.090808  0  3.97544  0
C  C22  1  0.56301926  0.56735445  0.56656709  1  0  0.083821  0  3.755569  0  0  0.095237  0  3.986218  0  0  0.102132  0  4.003185  0  0  0.002367  0.089683  0  3.976346  0
C  C23  1  0.33409492  0.28954384  0.43997376  1  0  -0.155153  0  3.717228  0  0  -0.174777  0  3.968577  0  0  -0.18139  0  3.98563  0  0  -0.08727  -0.171115  0  3.958784  0
C  C24  1  0.66604452  0.71085417  0.56024580  1  0  -0.154289  0  3.718716  0  0  -0.173963  0  3.969716  0  0  -0.180573  0  3.986724  0  0  -0.087086  -0.170281  0  3.959982  0
C  C25  1  0.41068035  0.44047645  0.29233974  1  0  -0.153701  0  3.708449  0  0  -0.171536  0  3.95791  0  0  -0.177817  0  3.974662  0  0  -0.085005  -0.168498  0  3.94931  0
C  C26  1  0.58968506  0.55970093  0.70777542  1  0  -0.153  0  3.70824  0  0  -0.170855  0  3.957766  0  0  -0.177179  0  3.974536  0  0  -0.084612  -0.167778  0  3.949125  0
C  C27  1  0.21201945  0.16770650  0.31315605  1  0  0.115557  0  3.686538  0  0  0.084351  0  3.947473  0  0  0.095246  0  3.960116  0  0  0.040071  0.075992  0  3.941547  0
C  C28  1  0.78813434  0.83261017  0.68709998  1  0  0.115259  0  3.68754  0  0  0.084348  0  3.948176  0  0  0.095269  0  3.960759  0  0  0.040716  0.075958  0  3.942294  0
C  C29  1  0.28640797  0.31333967  0.17025374  1  0  0.124109  0  3.66047  0  0  0.095597  0  3.911621  0  0  0.106426  0  3.924529  0  0  0.04375  0.087365  0  3.905562  0
C  C30  1  0.71386406  0.68682567  0.82990921  1  0  0.124509  0  3.660298  0  0  0.095767  0  3.911566  0  0  0.106613  0  3.924474  0  0  0.043953  0.087529  0  3.905492  0
C  C31  1  0.28072900  0.06423581  0.82809989  1  0  0.268218  0  4.006376  0  0  0.256392  0  4.31502  0  0  0.27935  0  4.325311  0  0  0.135212  0.241383  0  4.307331  0
C  C32  1  0.71927862  0.93583461  0.17164741  1  0  0.268365  0  4.006061  0  0  0.25651  0  4.314761  0  0  0.279481  0  4.32502  0  0  0.135138  0.241489  0  4.307094  0
C  C33  1  0.12748763  0.69961720  0.49401509  1  0  -0.156244  0  3.717814  0  0  -0.175179  0  3.966231  0  0  -0.183213  0  3.99035  0  0  -0.082222  -0.169483  0  3.949555  0
C  C34  1  0.87223843  0.30011030  0.50580311  1  0  -0.156115  0  3.718886  0  0  -0.175471  0  3.967138  0  0  -0.18351  0  3.991259  0  0  -0.082204  -0.169784  0  3.950473  0
C  C35  1  0.91340772  0.46569456  0.29629184  1  0  -0.140217  0  3.674343  0  0  -0.160088  0  3.925595  0  0  -0.166967  0  3.947292  0  0  -0.075944  -0.155221  0  3.910422  0
C  C36  1  0.08637665  0.53393795  0.70355805  1  0  -0.139769  0  3.673762  0  0  -0.159678  0  3.924667  0  0  -0.16652  0  3.94638  0  0  -0.075782  -0.154849  0  3.90952  0
C  C37  1  0.93821148  0.54853173  0.20193074  1  0  0.127493  0  3.715821  0  0  0.095569  0  3.975034  0  0  0.101702  0  3.991049  0  0  0.046956  0.091632  0  3.963898  0
C  C38  1  0.06158542  0.45101035  0.79787827  1  0  0.12731  0  3.715403  0  0  0.09538  0  3.97441  0  0  0.101485  0  3.990431  0  0  0.0472  0.091444  0  3.963274  0
C  C39  1  0.14543946  0.77230811  0.39192046  1  0  0.121817  0  3.726872  0  0  0.093625  0  3.980351  0  0  0.098455  0  3.999743  0  0  0.04167  0.090423  0  3.967284  0
C  C40  1  0.85427089  0.22733007  0.60783423  1  0  0.122267  0  3.726047  0  0  0.093972  0  3.979575  0  0  0.098799  0  3.998973  0  0  0.041812  0.090768  0  3.966503  0
C  C41  1  0.00958398  0.54132730  0.44730175  1  0  0.084817  0  3.758051  0  0  0.098194  0  3.98599  0  0  0.100701  0  4.009583  0  0  0.010952  0.097054  0  3.96886  0
C  C42  1  0.99013786  0.45839549  0.55255821  1  0  0.08332  0  3.759861  0  0  0.09741  0  3.987081  0  0  0.099941  0  4.010625  0  0  0.01059  0.096258  0  3.969966  0
S  S43  1  0.42630733  0.11276113  0.74015259  1  0  -0.392826  0  2.058584  0  0  -0.371757  0  2.356001  0  0  -0.38453  0  2.346582  0  0  -0.169289  -0.361218  0  2.361301  0
S  S44  1  0.57396162  0.88738857  0.25986936  1  0  -0.392986  0  2.057409  0  0  -0.371982  0  2.354927  0  0  -0.38472  0  2.345412  0  0  -0.169189  -0.361453  0  2.360249  0
N  N45  1  0.18515044  0.17701257  0.17808639  1  0  -0.230156  0  3.322101  0  0  -0.180486  0  3.597411  0  0  -0.201148  0  3.612461  0  0  -0.331552  -0.169084  0  3.587904  0
N  N46  1  0.81513044  0.82319010  0.82212394  1  0  -0.230546  0  3.323584  0  0  -0.181044  0  3.599009  0  0  -0.201722  0  3.61405  0  0  -0.332991  -0.169635  0  3.589509  0
N  N47  1  0.17279595  0.02934755  0.89091768  1  0  -0.474655  0  3.201171  0  0  -0.44915  0  3.508359  0  0  -0.468781  0  3.509671  0  0  -0.420077  -0.437497  0  3.505944  0
N  N48  1  0.82725027  0.97078247  0.10888229  1  0  -0.474615  0  3.203743  0  0  -0.449112  0  3.511101  0  0  -0.468756  0  3.512438  0  0  -0.420442  -0.43746  0  3.508673  0
N  N49  1  0.05239958  0.69921929  0.24767120  1  0  -0.306217  0  3.20364  0  0  -0.241507  0  3.451015  0  0  -0.255166  0  3.468054  0  0  -0.30773  -0.232725  0  3.439454  0
N  N50  1  0.94733248  0.30034353  0.75208607  1  0  -0.305775  0  3.202881  0  0  -0.240991  0  3.450136  0  0  -0.254639  0  3.467209  0  0  -0.307705  -0.232223  0  3.438569  0
O  O51  1  0.14267863  0.81030144  0.04948776  1  0  -0.730791  0  2.021154  0  0  -0.69698  0  2.259213  0  0  -0.731323  0  2.23512  0  0  -0.54247  -0.670008  0  2.268042  0
O  O52  1  0.85732589  0.18989513  0.95071252  1  0  -0.73019  0  2.021397  0  0  -0.696367  0  2.259485  0  0  -0.730755  0  2.235785  0  0  -0.542268  -0.669348  0  2.268184  0
