# generated using pymatgen
data_DyH10C7O11
_symmetry_space_group_name_H-M   'P 1'
_cell_length_a   8.54343351
_cell_length_b   8.84848427
_cell_length_c   9.72450023
_cell_angle_alpha   96.79242661
_cell_angle_beta   112.57924382
_cell_angle_gamma   110.15763408
_symmetry_Int_Tables_number   1
_chemical_formula_structural   DyH10C7O11
_chemical_formula_sum   'Dy2 H20 C14 O22'
_cell_volume   610.00261148
_cell_formula_units_Z   2
loop_
 _symmetry_equiv_pos_site_id
 _symmetry_equiv_pos_as_xyz
  1  'x, y, z'
loop_
 _atom_site_type_symbol
 _atom_site_label
 _atom_site_symmetry_multiplicity
 _atom_site_fract_x
 _atom_site_fract_y
 _atom_site_fract_z
 _atom_site_occupancy
 _atom_site_hle17_bader_spin_density
 _atom_site_hle17_ddec_charge
 _atom_site_hle17_ddec_spin_density
 _atom_site_hle17_ddec_sum_bond_order
 _atom_site_hle17_magmom
 _atom_site_hse06_10hf_bader_spin_density
 _atom_site_hse06_10hf_ddec_charge
 _atom_site_hse06_10hf_ddec_spin_density
 _atom_site_hse06_10hf_ddec_sum_bond_order
 _atom_site_hse06_10hf_magmom
 _atom_site_hse06_bader_spin_density
 _atom_site_hse06_ddec_charge
 _atom_site_hse06_ddec_spin_density
 _atom_site_hse06_ddec_sum_bond_order
 _atom_site_hse06_magmom
 _atom_site_pbe_bader_spin_density
 _atom_site_pbe_cm5_charge
 _atom_site_pbe_ddec_charge
 _atom_site_pbe_ddec_spin_density
 _atom_site_pbe_ddec_sum_bond_order
 _atom_site_pbe_magmom
Dy  Dy0  1  0.28835195  0.55276685  0.36741268  1  0  2.219178  0  1.654501  0  0  2.055667  0  2.145437  0  0  2.102467  0  2.105191  0  0  1.515437  2.019626  0  2.177347  0
Dy  Dy1  1  0.71165155  0.44723308  0.63259164  1  0  2.219167  0  1.654474  0  0  2.05564  0  2.145428  0  0  2.102426  0  2.10521  0  0  1.515406  2.019603  0  2.17734  0
H  H2  1  0.61834422  0.59254824  0.30336758  1  0  0.414514  0  0.847822  0  0  0.388026  0  0.919869  0  0  0.399437  0  0.906223  0  0  0.320802  0.379702  0  0.929912  0
H  H3  1  0.38165627  0.40744794  0.69663220  1  0  0.414506  0  0.847816  0  0  0.388017  0  0.919866  0  0  0.39943  0  0.906214  0  0  0.320801  0.37969  0  0.929909  0
H  H4  1  0.46307896  0.87764006  0.56228602  1  0  0.426621  0  0.878446  0  0  0.399142  0  0.936087  0  0  0.410119  0  0.920069  0  0  0.301496  0.391456  0  0.947307  0
H  H5  1  0.53692454  0.12235990  0.43771625  1  0  0.426599  0  0.878489  0  0  0.399115  0  0.936131  0  0  0.410089  0  0.920115  0  0  0.301479  0.391429  0  0.947351  0
H  H6  1  0.27350107  0.87689241  0.45280000  1  0  0.456958  0  0.826003  0  0  0.429768  0  0.881709  0  0  0.440388  0  0.866081  0  0  0.311393  0.422304  0  0.892695  0
H  H7  1  0.72650046  0.12310877  0.54720279  1  0  0.456951  0  0.826014  0  0  0.429768  0  0.881709  0  0  0.440389  0  0.866081  0  0  0.31139  0.422304  0  0.892696  0
H  H8  1  0.15321021  0.41715502  0.83812878  1  0  0.388815  0  0.893364  0  0  0.3608  0  0.970083  0  0  0.371926  0  0.95695  0  0  0.304162  0.352975  0  0.979331  0
H  H9  1  0.84679065  0.58284750  0.16186674  1  0  0.388831  0  0.893302  0  0  0.360825  0  0.97001  0  0  0.371952  0  0.956875  0  0  0.304175  0.352997  0  0.97926  0
H  H10  1  0.94202607  0.26734002  0.11350199  1  0  0.407332  0  0.898601  0  0  0.37581  0  0.973289  0  0  0.388713  0  0.955198  0  0  0.303018  0.366808  0  0.985516  0
H  H11  1  0.05797721  0.73266494  0.88650080  1  0  0.407307  0  0.898682  0  0  0.37581  0  0.973304  0  0  0.388714  0  0.95521  0  0  0.303006  0.366808  0  0.985551  0
H  H12  1  0.22073185  0.22590031  0.00385958  1  0  0.36591  0  0.916119  0  0  0.340546  0  0.995099  0  0  0.350416  0  0.983291  0  0  0.294235  0.333572  0  1.003392  0
H  H13  1  0.77926646  0.77410218  0.99613509  1  0  0.365934  0  0.916042  0  0  0.340559  0  0.995043  0  0  0.350432  0  0.983231  0  0  0.294212  0.333585  0  1.003337  0
H  H14  1  0.43124523  0.60352957  0.89447135  1  0  0.067745  0  0.907703  0  0  0.074725  0  0.972508  0  0  0.076292  0  0.97092  0  0  0.118054  0.073211  0  0.974414  0
H  H15  1  0.56875295  0.39647529  0.10553281  1  0  0.067768  0  0.907734  0  0  0.07477  0  0.972504  0  0  0.076337  0  0.970919  0  0  0.118077  0.073256  0  0.97441  0
H  H16  1  0.58986401  0.78175713  0.14943511  1  0  0.09505  0  0.893152  0  0  0.103244  0  0.947844  0  0  0.105935  0  0.945271  0  0  0.125357  0.101271  0  0.949936  0
H  H17  1  0.41013195  0.21824023  0.85056535  1  0  0.09504  0  0.893156  0  0  0.103215  0  0.947832  0  0  0.105895  0  0.945263  0  0  0.125359  0.101244  0  0.949924  0
H  H18  1  0.97923683  0.06098634  0.23019688  1  0  0.087873  0  0.891122  0  0  0.09772  0  0.944377  0  0  0.100352  0  0.941821  0  0  0.124077  0.095703  0  0.946487  0
H  H19  1  0.02076844  0.93901746  0.76980129  1  0  0.087919  0  0.891129  0  0  0.09774  0  0.944409  0  0  0.100363  0  0.941856  0  0  0.124097  0.095727  0  0.946518  0
H  H20  1  0.12602732  0.93164807  0.10756084  1  0  0.068017  0  0.91886  0  0  0.075158  0  0.982442  0  0  0.076354  0  0.981692  0  0  0.113319  0.074218  0  0.983135  0
H  H21  1  0.87398050  0.06835578  0.89243716  1  0  0.067932  0  0.918823  0  0  0.075144  0  0.982392  0  0  0.076341  0  0.981642  0  0  0.113301  0.074205  0  0.983084  0
C  C22  1  0.06241536  0.47722337  0.56901089  1  0  0.588879  0  3.865276  0  0  0.542223  0  4.15944  0  0  0.572909  0  4.149643  0  0  0.237225  0.521401  0  4.165222  0
C  C23  1  0.93757214  0.52276396  0.43098041  1  0  0.588857  0  3.865154  0  0  0.542121  0  4.159414  0  0  0.572809  0  4.149612  0  0  0.237174  0.521294  0  4.165196  0
C  C24  1  0.29653264  0.70288924  0.08702127  1  0  0.678206  0  3.83738  0  0  0.627386  0  4.1432  0  0  0.660981  0  4.133658  0  0  0.228505  0.604623  0  4.148851  0
C  C25  1  0.70346574  0.29711052  0.91298955  1  0  0.677945  0  3.837761  0  0  0.627218  0  4.143354  0  0  0.660801  0  4.133828  0  0  0.228519  0.604459  0  4.149003  0
C  C26  1  0.42656892  0.53510766  0.98159061  1  0  0.149778  0  3.605371  0  0  0.116431  0  3.867022  0  0  0.121376  0  3.876825  0  0  -0.004414  0.113171  0  3.860628  0
C  C27  1  0.57342682  0.46489470  0.01841038  1  0  0.14969  0  3.605426  0  0  0.116298  0  3.867086  0  0  0.121232  0  3.876892  0  0  -0.004481  0.113037  0  3.860695  0
C  C28  1  0.27919827  0.18252908  0.35217145  1  0  0.698777  0  3.807773  0  0  0.64574  0  4.110954  0  0  0.680481  0  4.098901  0  0  0.236302  0.622076  0  4.118402  0
C  C29  1  0.72080513  0.81747344  0.64782698  1  0  0.698757  0  3.807764  0  0  0.645735  0  4.110903  0  0  0.680439  0  4.098901  0  0  0.236309  0.622077  0  4.118347  0
C  C30  1  0.46804450  0.66578315  0.12525025  1  0  0.059387  0  3.59989  0  0  0.030612  0  3.856332  0  0  0.032497  0  3.861335  0  0  0.000383  0.029162  0  3.852824  0
C  C31  1  0.53195320  0.33421794  0.87475433  1  0  0.059426  0  3.599919  0  0  0.030753  0  3.856117  0  0  0.032665  0  3.861121  0  0  0.000364  0.029299  0  3.85261  0
C  C32  1  0.09654860  0.14050026  0.21150640  1  0  0.058247  0  3.642427  0  0  0.030081  0  3.897429  0  0  0.031272  0  3.903322  0  0  -0.000797  0.029203  0  3.89321  0
C  C33  1  0.90345931  0.85950104  0.78849442  1  0  0.058209  0  3.64236  0  0  0.030115  0  3.897345  0  0  0.031339  0  3.903243  0  0  -0.000845  0.029223  0  3.893128  0
C  C34  1  0.09642304  0.03625363  0.07149965  1  0  0.137486  0  3.631191  0  0  0.110488  0  3.887991  0  0  0.115166  0  3.89857  0  0  -0.010835  0.107208  0  3.880951  0
C  C35  1  0.90357862  0.96374512  0.92849672  1  0  0.137747  0  3.630951  0  0  0.110485  0  3.88802  0  0  0.115151  0  3.898605  0  0  -0.010874  0.107214  0  3.88097  0
O  O36  1  0.20185944  0.46092365  0.56273997  1  0  -0.660639  0  2.045689  0  0  -0.608026  0  2.286054  0  0  -0.63224  0  2.275773  0  0  -0.349142  -0.590636  0  2.292875  0
O  O37  1  0.79813084  0.53905878  0.43724655  1  0  -0.660595  0  2.045763  0  0  -0.607953  0  2.286152  0  0  -0.632163  0  2.275867  0  0  -0.349108  -0.590567  0  2.292977  0
O  O38  1  0.49987530  0.60612703  0.26027666  1  0  -0.665046  0  2.226306  0  0  -0.610799  0  2.47911  0  0  -0.627534  0  2.464515  0  0  -0.459352  -0.598593  0  2.48941  0
O  O39  1  0.50012496  0.39387412  0.73972570  1  0  -0.665023  0  2.22626  0  0  -0.610808  0  2.47903  0  0  -0.627551  0  2.464436  0  0  -0.459332  -0.598602  0  2.489335  0
O  O40  1  0.24805420  0.75685332  0.97094176  1  0  -0.555604  0  1.986845  0  0  -0.506695  0  2.200796  0  0  -0.530559  0  2.189658  0  0  -0.294189  -0.490262  0  2.208246  0
O  O41  1  0.75194454  0.24315273  0.02906786  1  0  -0.555413  0  1.987079  0  0  -0.506553  0  2.201014  0  0  -0.530415  0  2.189885  0  0  -0.294138  -0.490119  0  2.208456  0
O  O42  1  0.01454913  0.45951372  0.67596072  1  0  -0.630064  0  2.116032  0  0  -0.569844  0  2.350622  0  0  -0.594675  0  2.342797  0  0  -0.335324  -0.552517  0  2.355656  0
O  O43  1  0.98545067  0.54048380  0.32403282  1  0  -0.630075  0  2.115854  0  0  -0.569828  0  2.350448  0  0  -0.594666  0  2.342628  0  0  -0.335304  -0.552484  0  2.35547  0
O  O44  1  0.39817476  0.33959796  0.41583448  1  0  -0.809165  0  2.106463  0  0  -0.746401  0  2.375667  0  0  -0.772788  0  2.363761  0  0  -0.440847  -0.727457  0  2.383084  0
O  O45  1  0.60182747  0.66040202  0.58416531  1  0  -0.809174  0  2.10635  0  0  -0.746421  0  2.375556  0  0  -0.772793  0  2.363657  0  0  -0.440851  -0.727482  0  2.382979  0
O  O46  1  0.31201876  0.06480639  0.39694505  1  0  -0.613661  0  2.005661  0  0  -0.562528  0  2.224567  0  0  -0.586243  0  2.211354  0  0  -0.290501  -0.546144  0  2.233261  0
O  O47  1  0.68798278  0.93519482  0.60305465  1  0  -0.613618  0  2.00575  0  0  -0.562506  0  2.224654  0  0  -0.586211  0  2.211461  0  0  -0.290488  -0.546123  0  2.233346  0
O  O48  1  0.32491589  0.80777214  0.51212061  1  0  -0.916561  0  1.835189  0  0  -0.868504  0  2.007249  0  0  -0.888065  0  1.976276  0  0  -0.656134  -0.854615  0  2.028961  0
O  O49  1  0.67508449  0.19222655  0.48787943  1  0  -0.916521  0  1.835251  0  0  -0.868459  0  2.007333  0  0  -0.888015  0  1.976361  0  0  -0.656108  -0.85457  0  2.029044  0
O  O50  1  0.21244074  0.67119883  0.17143851  1  0  -0.715634  0  1.989587  0  0  -0.668012  0  2.248585  0  0  -0.692157  0  2.235994  0  0  -0.421985  -0.650673  0  2.256636  0
O  O51  1  0.78755881  0.32880345  0.82857299  1  0  -0.715565  0  1.989577  0  0  -0.667998  0  2.248545  0  0  -0.692138  0  2.23596  0  0  -0.422011  -0.650658  0  2.256595  0
O  O52  1  0.24751492  0.39660085  0.92270290  1  0  -0.569866  0  2.089901  0  0  -0.519941  0  2.320319  0  0  -0.535853  0  2.305681  0  0  -0.387269  -0.508754  0  2.330423  0
O  O53  1  0.75248083  0.60340156  0.07729501  1  0  -0.569875  0  2.089819  0  0  -0.519973  0  2.320258  0  0  -0.535882  0  2.305617  0  0  -0.387281  -0.50878  0  2.330361  0
O  O54  1  0.08192185  0.29211557  0.18863253  1  0  -0.687224  0  2.207299  0  0  -0.632153  0  2.465861  0  0  -0.651483  0  2.450339  0  0  -0.473398  -0.618125  0  2.475802  0
O  O55  1  0.91808978  0.70788831  0.81136675  1  0  -0.687228  0  2.20739  0  0  -0.632149  0  2.465838  0  0  -0.651487  0  2.450317  0  0  -0.473359  -0.618114  0  2.475789  0
O  O56  1  0.24250529  0.13119771  0.03936633  1  0  -0.545371  0  2.023482  0  0  -0.510674  0  2.246165  0  0  -0.525482  0  2.234777  0  0  -0.409567  -0.499931  0  2.253993  0
O  O57  1  0.75749244  0.86880354  0.96062696  1  0  -0.545438  0  2.023291  0  0  -0.510675  0  2.246061  0  0  -0.525483  0  2.234674  0  0  -0.409501  -0.499936  0  2.253887  0
