# generated using pymatgen
data_ZnH13C19S2N7O2
_symmetry_space_group_name_H-M   'P 1'
_cell_length_a   6.10819247
_cell_length_b   11.46859902
_cell_length_c   14.87092465
_cell_angle_alpha   90.00026099
_cell_angle_beta   89.99991022
_cell_angle_gamma   90.00010323
_symmetry_Int_Tables_number   1
_chemical_formula_structural   ZnH13C19S2N7O2
_chemical_formula_sum   'Zn2 H26 C38 S4 N14 O4'
_cell_volume   1041.74411358
_cell_formula_units_Z   2
loop_
 _symmetry_equiv_pos_site_id
 _symmetry_equiv_pos_as_xyz
  1  'x, y, z'
loop_
 _atom_site_type_symbol
 _atom_site_label
 _atom_site_symmetry_multiplicity
 _atom_site_fract_x
 _atom_site_fract_y
 _atom_site_fract_z
 _atom_site_occupancy
 _atom_site_hle17_bader_spin_density
 _atom_site_hle17_ddec_charge
 _atom_site_hle17_ddec_spin_density
 _atom_site_hle17_ddec_sum_bond_order
 _atom_site_hle17_magmom
 _atom_site_hse06_10hf_bader_spin_density
 _atom_site_hse06_10hf_ddec_charge
 _atom_site_hse06_10hf_ddec_spin_density
 _atom_site_hse06_10hf_ddec_sum_bond_order
 _atom_site_hse06_10hf_magmom
 _atom_site_hse06_bader_spin_density
 _atom_site_hse06_ddec_charge
 _atom_site_hse06_ddec_spin_density
 _atom_site_hse06_ddec_sum_bond_order
 _atom_site_hse06_magmom
 _atom_site_pbe_bader_spin_density
 _atom_site_pbe_cm5_charge
 _atom_site_pbe_ddec_charge
 _atom_site_pbe_ddec_spin_density
 _atom_site_pbe_ddec_sum_bond_order
 _atom_site_pbe_magmom
Zn  Zn0  1  0.83175003  0.49999845  0.49999910  1  0  0.978309  0  2.111601  0  0  0.783956  0  2.619317  0  0  0.824519  0  2.567523  0  0  0.763061  0.756464  0  2.654444  0
Zn  Zn1  1  0.16824945  0.00000008  0.00000196  1  0  0.978267  0  2.111566  0  0  0.783919  0  2.619265  0  0  0.82448  0  2.567475  0  0  0.763049  0.756435  0  2.654387  0
H  H2  1  0.58787964  0.71561825  0.45417255  1  0  0.075096  0  0.94788  0  0  0.079608  0  1.019189  0  0  0.08191  0  1.018201  0  0  0.109949  0.077957  0  1.01992  0
H  H3  1  0.58787711  0.28438189  0.54582582  1  0  0.075103  0  0.94788  0  0  0.079605  0  1.019201  0  0  0.081908  0  1.018212  0  0  0.109938  0.077962  0  1.019927  0
H  H4  1  0.41212141  0.78438132  0.95417257  1  0  0.075121  0  0.947835  0  0  0.079629  0  1.019144  0  0  0.081931  0  1.018155  0  0  0.109954  0.07798  0  1.019876  0
H  H5  1  0.41212055  0.21561778  0.04582725  1  0  0.075079  0  0.947876  0  0  0.079592  0  1.019182  0  0  0.081894  0  1.018193  0  0  0.109937  0.077941  0  1.019916  0
H  H6  1  0.26913238  0.82664667  0.51807674  1  0  0.105427  0  0.982319  0  0  0.111207  0  1.046698  0  0  0.113658  0  1.046842  0  0  0.107814  0.109456  0  1.046688  0
H  H7  1  0.26912808  0.17335404  0.48192183  1  0  0.105433  0  0.98235  0  0  0.111209  0  1.04672  0  0  0.11366  0  1.046869  0  0  0.107809  0.109457  0  1.046711  0
H  H8  1  0.73087033  0.67335380  0.01807514  1  0  0.105406  0  0.982361  0  0  0.111189  0  1.046733  0  0  0.113642  0  1.04688  0  0  0.107784  0.10944  0  1.046724  0
H  H9  1  0.73086955  0.32664561  0.98192381  1  0  0.105441  0  0.982322  0  0  0.111223  0  1.0467  0  0  0.113675  0  1.046845  0  0  0.107797  0.109472  0  1.046692  0
H  H10  1  0.12123555  0.76878993  0.66833769  1  0  0.103486  0  0.964173  0  0  0.112166  0  1.028038  0  0  0.115411  0  1.025911  0  0  0.102496  0.109774  0  1.029657  0
H  H11  1  0.12123202  0.23120976  0.33166098  1  0  0.103445  0  0.964171  0  0  0.112128  0  1.028055  0  0  0.115373  0  1.025926  0  0  0.102493  0.109735  0  1.029675  0
H  H12  1  0.87876823  0.73121055  0.16833686  1  0  0.103492  0  0.964137  0  0  0.112154  0  1.02802  0  0  0.115398  0  1.025894  0  0  0.102505  0.109756  0  1.029646  0
H  H13  1  0.87876619  0.26878813  0.83166333  1  0  0.103492  0  0.96419  0  0  0.112169  0  1.028055  0  0  0.115414  0  1.025927  0  0  0.102497  0.109764  0  1.029688  0
H  H14  1  0.61450375  0.49903188  0.67820194  1  0  0.103121  0  0.968101  0  0  0.107162  0  1.035997  0  0  0.110859  0  1.032685  0  0  0.117808  0.104455  0  1.038474  0
H  H15  1  0.61450443  0.50096741  0.32179640  1  0  0.103093  0  0.968079  0  0  0.107155  0  1.035948  0  0  0.110852  0  1.032635  0  0  0.117807  0.104449  0  1.038425  0
H  H16  1  0.38549668  0.00096683  0.17820332  1  0  0.103117  0  0.968085  0  0  0.107154  0  1.035977  0  0  0.11085  0  1.032664  0  0  0.117808  0.104447  0  1.038454  0
H  H17  1  0.38549548  0.99903137  0.82179652  1  0  0.103071  0  0.968115  0  0  0.107133  0  1.035993  0  0  0.11083  0  1.032681  0  0  0.117799  0.104426  0  1.038471  0
H  H18  1  0.92196756  0.52560950  0.86331479  1  0  0.087742  0  0.968428  0  0  0.09012  0  1.043254  0  0  0.0941  0  1.03899  0  0  0.112006  0.087164  0  1.046421  0
H  H19  1  0.92196886  0.47439446  0.13668537  1  0  0.087682  0  0.968452  0  0  0.090046  0  1.043284  0  0  0.094023  0  1.039027  0  0  0.11201  0.087093  0  1.046446  0
H  H20  1  0.07803384  0.97439040  0.36331466  1  0  0.087766  0  0.968371  0  0  0.090111  0  1.043231  0  0  0.09409  0  1.03897  0  0  0.112017  0.087156  0  1.046399  0
H  H21  1  0.07803173  0.02560663  0.63668538  1  0  0.087728  0  0.968414  0  0  0.090081  0  1.043256  0  0  0.094059  0  1.038998  0  0  0.11202  0.087122  0  1.046431  0
H  H22  1  0.12995945  0.64060637  0.78682908  1  0  0.271754  0  0.941179  0  0  0.251656  0  1.016509  0  0  0.258214  0  1.012729  0  0  0.294143  0.246978  0  1.019227  0
H  H23  1  0.12995844  0.35939333  0.21316890  1  0  0.271813  0  0.941163  0  0  0.251707  0  1.016493  0  0  0.258269  0  1.012702  0  0  0.294147  0.247032  0  1.019211  0
H  H24  1  0.87004224  0.85939221  0.28682938  1  0  0.271811  0  0.941158  0  0  0.251712  0  1.016478  0  0  0.258273  0  1.012688  0  0  0.294163  0.247038  0  1.019196  0
H  H25  1  0.87004349  0.14060734  0.71317015  1  0  0.271792  0  0.941211  0  0  0.25169  0  1.016534  0  0  0.258251  0  1.012747  0  0  0.29414  0.247014  0  1.01925  0
H  H26  1  0.54746203  0.49999979  0.99999904  1  0  0.107376  0  0.998314  0  0  0.104351  0  1.080839  0  0  0.109496  0  1.075544  0  0  0.110674  0.100625  0  1.084599  0
H  H27  1  0.45253881  0.00000171  0.49999903  1  0  0.107341  0  0.998269  0  0  0.104308  0  1.080826  0  0  0.109455  0  1.075524  0  0  0.110672  0.100582  0  1.084587  0
C  C28  1  0.51814036  0.69382673  0.51955851  1  0  0.107327  0  3.709585  0  0  0.074011  0  3.960266  0  0  0.078674  0  3.980818  0  0  0.03736  0.070696  0  3.946971  0
C  C29  1  0.51813651  0.30617334  0.48043922  1  0  0.107318  0  3.709783  0  0  0.074009  0  3.960452  0  0  0.078672  0  3.981004  0  0  0.03737  0.070689  0  3.947136  0
C  C30  1  0.48186235  0.80617287  0.01955955  1  0  0.107297  0  3.709578  0  0  0.073997  0  3.960257  0  0  0.078661  0  3.980809  0  0  0.037379  0.070681  0  3.946961  0
C  C31  1  0.48186113  0.19382630  0.98044023  1  0  0.107356  0  3.709581  0  0  0.074043  0  3.960278  0  0  0.078707  0  3.980828  0  0  0.037366  0.070736  0  3.946981  0
C  C32  1  0.34073439  0.75413665  0.55496939  1  0  -0.079668  0  3.742536  0  0  -0.09198  0  3.994377  0  0  -0.097268  0  4.016613  0  0  -0.078322  -0.088544  0  3.979351  0
C  C33  1  0.34073047  0.24586500  0.44502981  1  0  -0.079733  0  3.742632  0  0  -0.091994  0  3.994454  0  0  -0.097286  0  4.016693  0  0  -0.078318  -0.088561  0  3.979434  0
C  C34  1  0.65926819  0.74586404  0.05496875  1  0  -0.079695  0  3.742559  0  0  -0.092013  0  3.994397  0  0  -0.097305  0  4.016636  0  0  -0.078319  -0.088579  0  3.979374  0
C  C35  1  0.65926730  0.25413530  0.94503091  1  0  -0.079684  0  3.742544  0  0  -0.092006  0  3.994391  0  0  -0.097297  0  4.016629  0  0  -0.078296  -0.08857  0  3.979364  0
C  C36  1  0.25918959  0.72224892  0.63847661  1  0  -0.087485  0  3.651534  0  0  -0.11037  0  3.893987  0  0  -0.109625  0  3.910182  0  0  -0.065644  -0.11056  0  3.883144  0
C  C37  1  0.25918610  0.27775091  0.36152130  1  0  -0.087251  0  3.65136  0  0  -0.110221  0  3.89388  0  0  -0.109475  0  3.910076  0  0  -0.065603  -0.110415  0  3.883041  0
C  C38  1  0.74081266  0.77775052  0.13847603  1  0  -0.087429  0  3.651458  0  0  -0.110291  0  3.893928  0  0  -0.109545  0  3.910124  0  0  -0.065615  -0.110479  0  3.88309  0
C  C39  1  0.74081199  0.22224890  0.86152358  1  0  -0.087463  0  3.651539  0  0  -0.110338  0  3.893986  0  0  -0.109593  0  3.910182  0  0  -0.065625  -0.11052  0  3.883153  0
C  C40  1  0.35707592  0.62988647  0.68561067  1  0  0.224141  0  3.769249  0  0  0.223416  0  4.012778  0  0  0.227815  0  4.034578  0  0  0.107875  0.220047  0  3.99817  0
C  C41  1  0.35707619  0.37011345  0.31438784  1  0  0.223934  0  3.769516  0  0  0.223273  0  4.012978  0  0  0.227671  0  4.034782  0  0  0.107805  0.219906  0  3.998371  0
C  C42  1  0.64292452  0.87011324  0.18561116  1  0  0.224108  0  3.769282  0  0  0.223353  0  4.012827  0  0  0.227751  0  4.034629  0  0  0.107843  0.219988  0  3.998217  0
C  C43  1  0.64292372  0.12988608  0.81438919  1  0  0.224126  0  3.769216  0  0  0.223385  0  4.012757  0  0  0.227784  0  4.034559  0  0  0.107858  0.220021  0  3.998146  0
C  C44  1  0.53387124  0.57176426  0.64525795  1  0  0.036408  0  3.63641  0  0  -0.003516  0  3.888172  0  0  0.000649  0  3.904055  0  0  0.038746  -0.00615  0  3.877488  0
C  C45  1  0.53386992  0.42823496  0.35474045  1  0  0.036429  0  3.636452  0  0  -0.003501  0  3.888163  0  0  0.000669  0  3.904038  0  0  0.038753  -0.00614  0  3.877477  0
C  C46  1  0.46613099  0.92823522  0.14525875  1  0  0.036395  0  3.636439  0  0  -0.003493  0  3.888177  0  0  0.000674  0  3.904062  0  0  0.038759  -0.006128  0  3.877492  0
C  C47  1  0.46612820  0.07176393  0.85474104  1  0  0.036444  0  3.636453  0  0  -0.003479  0  3.888198  0  0  0.000691  0  3.904071  0  0  0.038761  -0.006109  0  3.877518  0
C  C48  1  0.37770842  0.53405743  0.83463889  1  0  0.543737  0  3.839991  0  0  0.496074  0  4.128435  0  0  0.525467  0  4.128635  0  0  0.241375  0.476362  0  4.127715  0
C  C49  1  0.37771122  0.46594250  0.16535961  1  0  0.543831  0  3.839785  0  0  0.496139  0  4.128302  0  0  0.525529  0  4.128506  0  0  0.241371  0.476427  0  4.127579  0
C  C50  1  0.62229309  0.96594230  0.33463972  1  0  0.543817  0  3.839747  0  0  0.496108  0  4.128259  0  0  0.525498  0  4.128464  0  0  0.24141  0.4764  0  4.127533  0
C  C51  1  0.62229090  0.03405788  0.66535929  1  0  0.54377  0  3.839888  0  0  0.496055  0  4.12842  0  0  0.525445  0  4.128624  0  0  0.241342  0.476345  0  4.127695  0
C  C52  1  0.25233398  0.51848816  0.92018637  1  0  -0.111828  0  3.761608  0  0  -0.086589  0  3.997927  0  0  -0.098337  0  4.021398  0  0  -0.012767  -0.079373  0  3.982289  0
C  C53  1  0.25233553  0.48151602  0.07981221  1  0  -0.111918  0  3.761631  0  0  -0.086711  0  3.998024  0  0  -0.098458  0  4.021491  0  0  -0.012771  -0.079492  0  3.982383  0
C  C54  1  0.74766719  0.98151295  0.42018718  1  0  -0.111886  0  3.761637  0  0  -0.086637  0  3.997973  0  0  -0.098382  0  4.02144  0  0  -0.012779  -0.079423  0  3.982336  0
C  C55  1  0.74766528  0.01848647  0.57981243  1  0  -0.111861  0  3.761634  0  0  -0.086614  0  3.997977  0  0  -0.098361  0  4.021446  0  0  -0.012763  -0.0794  0  3.982339  0
C  C56  1  0.02310249  0.51610067  0.92344986  1  0  0.10333  0  3.680186  0  0  0.063442  0  3.937619  0  0  0.072459  0  3.951462  0  0  0.051832  0.057839  0  3.928099  0
C  C57  1  0.02310242  0.48390328  0.07655021  1  0  0.103507  0  3.680132  0  0  0.063647  0  3.937589  0  0  0.072665  0  3.951431  0  0  0.051879  0.058044  0  3.928069  0
C  C58  1  0.97689867  0.98389872  0.42344985  1  0  0.103397  0  3.680158  0  0  0.063523  0  3.937608  0  0  0.072538  0  3.951453  0  0  0.051854  0.057919  0  3.928088  0
C  C59  1  0.97689840  0.01609744  0.57655028  1  0  0.103412  0  3.680169  0  0  0.063542  0  3.937614  0  0  0.072559  0  3.951459  0  0  0.051846  0.057939  0  3.928091  0
C  C60  1  0.07949527  0.65052346  0.36024972  1  0  0.32291  0  4.073107  0  0  0.303073  0  4.369857  0  0  0.326424  0  4.383945  0  0  0.152113  0.287359  0  4.359713  0
C  C61  1  0.07948278  0.34947357  0.63975300  1  0  0.322846  0  4.073097  0  0  0.303001  0  4.369861  0  0  0.326352  0  4.383948  0  0  0.152099  0.287287  0  4.359717  0
C  C62  1  0.92050122  0.84947555  0.86025233  1  0  0.322835  0  4.072995  0  0  0.302999  0  4.369745  0  0  0.32635  0  4.383832  0  0  0.15206  0.287284  0  4.359605  0
C  C63  1  0.92051780  0.15052840  0.13975321  1  0  0.322839  0  4.073099  0  0  0.303006  0  4.369847  0  0  0.326356  0  4.38393  0  0  0.152086  0.287294  0  4.359709  0
C  C64  1  0.36828627  0.50000058  0.99999910  1  0  -0.01779  0  3.65416  0  0  -0.053185  0  3.898547  0  0  -0.047141  0  3.914492  0  0  -0.052803  -0.056589  0  3.887609  0
C  C65  1  0.63171620  0.00000092  0.49999964  1  0  -0.017732  0  3.654058  0  0  -0.053145  0  3.898448  0  0  -0.047096  0  3.914384  0  0  -0.052793  -0.056547  0  3.887507  0
S  S66  1  0.21145766  0.73480912  0.29278260  1  0  -0.323235  0  2.053853  0  0  -0.305529  0  2.339546  0  0  -0.32136  0  2.338291  0  0  -0.139534  -0.29443  0  2.340088  0
S  S67  1  0.21145117  0.26519066  0.70721869  1  0  -0.323213  0  2.053875  0  0  -0.305505  0  2.339569  0  0  -0.321337  0  2.338312  0  0  -0.139523  -0.294405  0  2.34011  0
S  S68  1  0.78853582  0.76518949  0.79278433  1  0  -0.32321  0  2.053849  0  0  -0.305504  0  2.339542  0  0  -0.321336  0  2.338287  0  0  -0.139508  -0.294403  0  2.340084  0
S  S69  1  0.78854424  0.23481521  0.20721995  1  0  -0.323215  0  2.053727  0  0  -0.305513  0  2.339411  0  0  -0.321345  0  2.338153  0  0  -0.139494  -0.294413  0  2.339955  0
N  N70  1  0.98334511  0.58848944  0.41041702  1  0  -0.592226  0  3.048686  0  0  -0.519496  0  3.363748  0  0  -0.541971  0  3.36111  0  0  -0.428812  -0.504323  0  3.365351  0
N  N71  1  0.98333138  0.41150498  0.58958647  1  0  -0.592179  0  3.048597  0  0  -0.519438  0  3.363645  0  0  -0.541914  0  3.361008  0  0  -0.428813  -0.504267  0  3.365248  0
N  N72  1  0.01665283  0.91150725  0.91041908  1  0  -0.592144  0  3.048498  0  0  -0.519414  0  3.363551  0  0  -0.541889  0  3.360914  0  0  -0.428779  -0.504243  0  3.365157  0
N  N73  1  0.01666448  0.08849844  0.08958906  1  0  -0.592173  0  3.048798  0  0  -0.519444  0  3.363849  0  0  -0.541917  0  3.36121  0  0  -0.428821  -0.504275  0  3.365457  0
N  N74  1  0.61045385  0.60440099  0.56421325  1  0  -0.326337  0  3.377967  0  0  -0.237797  0  3.653794  0  0  -0.255683  0  3.670521  0  0  -0.338253  -0.22561  0  3.642197  0
N  N75  1  0.61045210  0.39559830  0.43578577  1  0  -0.326321  0  3.377987  0  0  -0.237798  0  3.653826  0  0  -0.255684  0  3.670553  0  0  -0.338258  -0.225603  0  3.642227  0
N  N76  1  0.38954706  0.89559800  0.06421399  1  0  -0.326277  0  3.378014  0  0  -0.237763  0  3.653851  0  0  -0.25565  0  3.670579  0  0  -0.338261  -0.225573  0  3.642254  0
N  N77  1  0.38954570  0.10440020  0.93578585  1  0  -0.326333  0  3.378019  0  0  -0.237805  0  3.653866  0  0  -0.255691  0  3.670595  0  0  -0.338253  -0.22563  0  3.642283  0
N  N78  1  0.27393982  0.59991615  0.76995913  1  0  -0.440868  0  3.369608  0  0  -0.386121  0  3.60296  0  0  -0.408841  0  3.614066  0  0  -0.392397  -0.370381  0  3.594991  0
N  N79  1  0.27394052  0.40008369  0.23003943  1  0  -0.440891  0  3.369631  0  0  -0.386131  0  3.602962  0  0  -0.408848  0  3.614064  0  0  -0.392378  -0.370394  0  3.594997  0
N  N80  1  0.72606030  0.90008319  0.26995967  1  0  -0.440969  0  3.369599  0  0  -0.386195  0  3.60297  0  0  -0.408912  0  3.614073  0  0  -0.392436  -0.370459  0  3.595002  0
N  N81  1  0.72606135  0.09991621  0.73003995  1  0  -0.440958  0  3.369596  0  0  -0.38618  0  3.60296  0  0  -0.4089  0  3.614063  0  0  -0.392413  -0.370441  0  3.594989  0
N  N82  1  0.91152581  0.50000223  0.00000058  1  0  -0.277825  0  3.121772  0  0  -0.226213  0  3.387197  0  0  -0.239077  0  3.399578  0  0  -0.306408  -0.217633  0  3.37837  0
N  N83  1  0.08847534  0.99999726  0.50000021  1  0  -0.277837  0  3.121771  0  0  -0.226198  0  3.38716  0  0  -0.239066  0  3.39955  0  0  -0.306397  -0.217618  0  3.37833  0
O  O84  1  0.56177427  0.49117780  0.82470259  1  0  -0.517913  0  1.958264  0  0  -0.475024  0  2.181805  0  0  -0.496487  0  2.17787  0  0  -0.275075  -0.460186  0  2.184145  0
O  O85  1  0.56177554  0.50882319  0.17529512  1  0  -0.517911  0  1.958179  0  0  -0.475027  0  2.181754  0  0  -0.496491  0  2.177818  0  0  -0.275057  -0.460192  0  2.184092  0
O  O86  1  0.43822723  0.00882091  0.32470396  1  0  -0.517956  0  1.958116  0  0  -0.475049  0  2.181691  0  0  -0.496514  0  2.177758  0  0  -0.2751  -0.460214  0  2.184028  0
O  O87  1  0.43822493  0.99117908  0.67529517  1  0  -0.517904  0  1.958222  0  0  -0.475006  0  2.181797  0  0  -0.49647  0  2.177863  0  0  -0.275052  -0.460169  0  2.184135  0
