# generated using pymatgen
data_CuH4C6SO5
_symmetry_space_group_name_H-M   'P 1'
_cell_length_a   6.03532233
_cell_length_b   10.43481161
_cell_length_c   17.60005250
_cell_angle_alpha   89.99361106
_cell_angle_beta   89.95489646
_cell_angle_gamma   94.22488965
_symmetry_Int_Tables_number   1
_chemical_formula_structural   CuH4C6SO5
_chemical_formula_sum   'Cu4 H16 C24 S4 O20'
_cell_volume   1105.39407493
_cell_formula_units_Z   4
loop_
 _symmetry_equiv_pos_site_id
 _symmetry_equiv_pos_as_xyz
  1  'x, y, z'
loop_
 _atom_site_type_symbol
 _atom_site_label
 _atom_site_symmetry_multiplicity
 _atom_site_fract_x
 _atom_site_fract_y
 _atom_site_fract_z
 _atom_site_occupancy
 _atom_site_hle17_ddec_charge
 _atom_site_hle17_ddec_spin_density
 _atom_site_hle17_ddec_sum_bond_order
 _atom_site_hle17_magmom
 _atom_site_hse06_10hf_ddec_charge
 _atom_site_hse06_10hf_ddec_spin_density
 _atom_site_hse06_10hf_ddec_sum_bond_order
 _atom_site_hse06_10hf_magmom
 _atom_site_hse06_ddec_charge
 _atom_site_hse06_ddec_spin_density
 _atom_site_hse06_ddec_sum_bond_order
 _atom_site_hse06_magmom
 _atom_site_pbe_cm5_charge
 _atom_site_pbe_ddec_charge
 _atom_site_pbe_ddec_spin_density
 _atom_site_pbe_ddec_sum_bond_order
 _atom_site_pbe_magmom
Cu  Cu0  1  0.00000807  0.50000540  0.50000318  1  0.9011  -0.724568  1.810472  -0.483  0.889394  -0.825482  2.219083  -0.615  1.002498  -0.915425  2.110818  -0.703  0.696623  0.824123  -0.739637  2.28366  -0.543
Cu  Cu1  1  0.50000740  0.00000866  0.00000284  1  0.899285  0.670452  1.804473  0.492  0.889624  0.768767  2.211077  0.617  1.002384  0.841068  2.103939  0.704  0.69414  0.821919  0.715538  2.278002  0.56
Cu  Cu2  1  0.49999748  0.49999203  0.50000318  1  1.053397  0.715919  1.636787  0.527  1.052838  0.820498  2.033961  0.661  1.132066  0.886923  1.976768  0.746  0.709195  0.982685  0.755655  2.101745  0.593
Cu  Cu3  1  0.00000783  0.00000862  0.00000227  1  1.055072  0.724099  1.639797  0.534  1.054036  0.824011  2.037685  0.666  1.132339  0.886642  1.98036  0.747  0.713195  0.988136  0.774254  2.102811  0.609
H  H4  1  0.71365259  0.30783411  0.55290508  1  0.4313  0.000199  0.878652  0.0  0.399161  0.000665  0.943669  0.001  0.412566  0.000522  0.924966  0.0  0.285579  0.389335  0.000739  0.957414  0.001
H  H5  1  0.78538588  0.19202119  0.05305075  1  0.431545  -1.2e-05  0.87839  0.0  0.399108  0.000547  0.943838  0.001  0.412472  0.000362  0.925205  0.0  0.285784  0.389507  0.000687  0.957222  0.001
H  H6  1  0.28636212  0.69214890  0.44708990  1  0.431307  0.000199  0.878674  0.0  0.399169  0.000665  0.943689  0.001  0.412576  0.000522  0.924985  0.0  0.285593  0.389347  0.000738  0.957432  0.001
H  H7  1  0.21459029  0.80800622  0.94694935  1  0.43165  -1.2e-05  0.878167  0.0  0.399121  0.000548  0.943755  0.001  0.412483  0.000362  0.925125  0.0  0.285789  0.389521  0.000688  0.957138  0.001
H  H8  1  0.69462812  0.30643248  0.46046744  1  0.438036  6.6e-05  0.81534  -0.001  0.421259  0.000725  0.871353  0.001  0.431985  0.000517  0.858199  0.0  0.317771  0.413076  0.000825  0.880317  0.001
H  H9  1  0.80468420  0.19336020  0.96050078  1  0.437842  -0.000121  0.815503  -0.001  0.421201  0.000656  0.871321  0.001  0.431795  0.000404  0.85836  0.0  0.31787  0.413427  0.000858  0.879611  0.001
H  H10  1  0.30535688  0.69356316  0.53952869  1  0.437912  6.8e-05  0.81558  -0.001  0.421144  0.000725  0.871566  0.001  0.431869  0.000518  0.858368  0.0  0.31772  0.412961  0.000826  0.880527  0.001
H  H11  1  0.19533871  0.80664586  0.03949648  1  0.437854  -0.000119  0.815568  -0.001  0.421242  0.000658  0.871309  0.001  0.43184  0.000405  0.858299  0.0  0.317954  0.41347  0.00086  0.879587  0.001
H  H12  1  0.10992789  0.81137527  0.68679204  1  0.113929  -0.000195  0.938832  0.0  0.120888  -0.000157  1.002481  0.0  0.124203  -0.000104  1.000081  0.0  0.108144  0.118508  -0.000196  1.00432  0.0
H  H13  1  0.39102955  0.68898934  0.18716235  1  0.113757  1.1e-05  0.938394  0.0  0.120394  0.000103  1.002436  0.0  0.12372  6.6e-05  1.000038  0.0  0.107883  0.118025  0.000142  1.004208  0.0
H  H14  1  0.89002578  0.18862146  0.31320295  1  0.113915  -0.000194  0.938766  0.0  0.120823  -0.000157  1.002474  0.0  0.124138  -0.000104  1.000075  0.0  0.108141  0.118445  -0.000196  1.00431  0.0
H  H15  1  0.60897656  0.31100333  0.81284343  1  0.11383  1.1e-05  0.938346  0.0  0.120422  0.000103  1.002434  0.0  0.123754  6.6e-05  1.000034  0.0  0.107908  0.118052  0.000142  1.004207  0.0
H  H16  1  0.98617066  0.91042199  0.81810570  1  0.130358  0.000372  0.970687  0.0  0.135566  0.000257  1.037069  0.0  0.139081  0.000143  1.034857  0.0  0.105479  0.133103  0.000371  1.038506  0.0
H  H17  1  0.51438484  0.58974120  0.31841673  1  0.130916  4e-05  0.970185  0.0  0.135971  5.8e-05  1.036617  0.0  0.139369  3e-06  1.034543  0.0  0.105699  0.133702  0.000119  1.037823  0.0
H  H18  1  0.01380463  0.08958715  0.18188815  1  0.130285  0.00037  0.970755  0.0  0.135567  0.000257  1.037053  0.0  0.13908  0.000143  1.034842  0.0  0.105489  0.133113  0.000371  1.038465  0.0
H  H19  1  0.48563976  0.41025332  0.68158393  1  0.13093  4e-05  0.970166  0.0  0.135897  5.8e-05  1.036706  0.0  0.139298  3e-06  1.034623  0.0  0.105677  0.133645  0.000119  1.037889  0.0
C  C20  1  0.78999316  0.63140463  0.61315146  1  0.666445  4.7e-05  3.889192  0.001  0.628321  0.000972  4.183231  0.002  0.671207  0.001054  4.175  0.002  0.211034  0.598712  0.000851  4.187887  0.002
C  C21  1  0.71103292  0.86864491  0.11334028  1  0.665286  -0.006567  3.888789  -0.012  0.627428  0.00204  4.183247  -0.002  0.670183  0.001094  4.175005  -0.002  0.210837  0.598102  0.003088  4.187678  -0.002
C  C22  1  0.20998955  0.36861025  0.38684353  1  0.666398  4.7e-05  3.88918  0.001  0.628182  0.00097  4.183301  0.002  0.671071  0.001054  4.175088  0.002  0.210955  0.598576  0.000849  4.187955  0.002
C  C23  1  0.28897029  0.13135065  0.88665414  1  0.66539  -0.00656  3.888586  -0.012  0.627559  0.002039  4.183064  -0.002  0.670323  0.001094  4.174818  -0.002  0.210782  0.598236  0.003087  4.187491  -0.002
C  C24  1  0.78533519  0.70519037  0.68374852  1  -0.153235  0.003088  3.734471  0.004  -0.137451  -6.2e-05  3.997864  0.0  -0.14766  -0.000667  4.018633  -0.001  -0.02565  -0.130262  0.00065  3.983974  0.001
C  C25  1  0.71577399  0.79497842  0.18396837  1  -0.151959  0.020978  3.732436  0.022  -0.137493  0.008803  3.997624  0.01  -0.147463  0.00632  4.018314  0.008  -0.02619  -0.130489  0.010787  3.983402  0.012
C  C26  1  0.21463073  0.29481112  0.31624988  1  -0.153176  0.003096  3.734559  0.004  -0.137276  -6.1e-05  3.997828  0.0  -0.147486  -0.000663  4.018608  -0.001  -0.025598  -0.130095  0.00065  3.983946  0.001
C  C27  1  0.28422308  0.20503255  0.81603400  1  -0.151982  0.020957  3.732417  0.022  -0.137563  0.008802  3.997666  0.01  -0.147579  0.006317  4.018418  0.008  -0.026157  -0.130574  0.010784  3.983466  0.012
C  C28  1  0.95011595  0.78973038  0.71431331  1  -0.052322  0.001497  3.718734  0.002  -0.086706  0.000927  3.986731  0.001  -0.083953  0.000879  4.003163  0.001  -0.087474  -0.088645  0.00095  3.975651  0.002
C  C29  1  0.55079912  0.71057292  0.21464831  1  -0.051444  -0.000955  3.716258  -0.001  -0.085554  0.001011  3.984816  0.001  -0.08295  0.000308  4.001388  0.0  -0.086662  -0.087204  0.001548  3.973253  0.002
C  C30  1  0.04984984  0.21027014  0.28568850  1  -0.052334  0.001478  3.718934  0.002  -0.08672  0.000926  3.986946  0.001  -0.083964  0.000876  4.003369  0.001  -0.08749  -0.088663  0.000947  3.975874  0.002
C  C31  1  0.44922355  0.28941968  0.78535065  1  -0.051546  -0.000948  3.716111  -0.001  -0.085583  0.00101  3.984628  0.001  -0.082973  0.000309  4.001212  0.0  -0.086732  -0.087226  0.001546  3.973074  0.002
C  C32  1  0.88515800  0.84206490  0.78383121  1  -0.058694  -0.000181  3.699449  0.0  -0.090921  -8.6e-05  3.964656  0.0  -0.090317  -0.000514  3.982224  -0.001  -0.090581  -0.091093  0.000354  3.952604  0.0
C  C33  1  0.61560818  0.65811280  0.28412947  1  -0.058972  0.004591  3.69841  0.004  -0.091186  0.001146  3.963948  0.001  -0.090614  0.000918  3.98164  0.001  -0.090118  -0.091176  0.001492  3.951428  0.002
C  C34  1  0.11483334  0.15792879  0.21617003  1  -0.058695  -0.000159  3.699462  0.0  -0.090951  -8.7e-05  3.964621  0.0  -0.090343  -0.000513  3.982185  -0.001  -0.090619  -0.091117  0.000353  3.952575  0.0
C  C35  1  0.38442112  0.34187977  0.71586836  1  -0.058842  0.004585  3.698233  0.004  -0.090975  0.001146  3.963811  0.001  -0.090392  0.000918  3.981485  0.001  -0.089993  -0.090979  0.001492  3.951282  0.002
C  C36  1  0.67229268  0.79652870  0.80518446  1  -0.130642  0.01284  3.693102  0.013  -0.115719  0.005419  3.957044  0.006  -0.124259  0.004059  3.978145  0.005  -0.017133  -0.110369  0.006233  3.943233  0.007
C  C37  1  0.82845940  0.70357962  0.30539144  1  -0.130828  -0.002128  3.693387  -0.003  -0.116872  -0.004009  3.958521  -0.004  -0.125304  -0.003598  3.979418  -0.004  -0.017968  -0.111314  -0.003609  3.944489  -0.004
C  C38  1  0.32768895  0.20347849  0.19481565  1  -0.130693  0.012811  3.693124  0.013  -0.115785  0.005419  3.957084  0.006  -0.124319  0.004058  3.978188  0.005  -0.017217  -0.110443  0.00623  3.943291  0.007
C  C39  1  0.17157393  0.29640620  0.69460582  1  -0.130783  -0.002126  3.693296  -0.003  -0.116902  -0.00401  3.958514  -0.004  -0.125331  -0.003598  3.97941  -0.004  -0.017942  -0.111349  -0.003609  3.944473  -0.004
C  C40  1  0.54402659  0.83071775  0.87279561  1  0.672607  -0.003719  3.889489  -0.007  0.633323  0.000309  4.18204  -0.002  0.672659  1.1e-05  4.174075  -0.002  0.214458  0.606394  0.000639  4.186948  -0.002
C  C41  1  0.95644803  0.66934296  0.37297709  1  0.673687  0.001516  3.889155  0.005  0.634513  -0.000846  4.182003  0.002  0.673809  -0.00049  4.174175  0.001  0.215534  0.607451  -0.001106  4.186587  0.001
C  C42  1  0.45595504  0.16928944  0.12720279  1  0.672615  -0.003719  3.889478  -0.007  0.63335  0.000307  4.181982  -0.002  0.672667  8e-06  4.174051  -0.002  0.214524  0.606419  0.000637  4.186887  -0.002
C  C43  1  0.04357921  0.33064674  0.62702130  1  0.673432  0.001511  3.889539  0.005  0.634286  -0.000845  4.182418  0.002  0.673571  -0.000488  4.174604  0.001  0.215409  0.607234  -0.001106  4.18697  0.001
S  S44  1  0.55191938  0.68949576  0.74049062  1  0.185276  0.000256  2.59263  0.0  0.180767  0.000635  2.892494  0.001  0.179753  0.000385  2.902382  0.0  0.117278  0.180776  0.000848  2.886313  0.001
S  S45  1  0.94918842  0.81048790  0.24059186  1  0.185119  -0.001499  2.591331  -0.002  0.180745  -0.000135  2.892175  0.0  0.179538  -0.000209  2.902057  0.0  0.117886  0.18108  0.000149  2.885675  0.0
S  S46  1  0.44807666  0.31049598  0.25951744  1  0.185339  0.000257  2.592523  0.0  0.180814  0.000635  2.892359  0.001  0.179788  0.000385  2.902244  0.0  0.117321  0.180828  0.000847  2.886186  0.001
S  S47  1  0.05081917  0.18951533  0.75940767  1  0.18516  -0.001497  2.591415  -0.002  0.180822  -0.000134  2.892286  0.0  0.179632  -0.000208  2.902181  0.0  0.117902  0.181163  0.00015  2.885789  0.0
O  O48  1  0.96130107  0.64580990  0.57036259  1  -0.583139  -0.083475  2.065574  -0.102  -0.548688  -0.057444  2.325167  -0.078  -0.59378  -0.046847  2.314175  -0.067  -0.312943  -0.518809  -0.061327  2.331689  -0.08
O  O49  1  0.53989182  0.85417018  0.07061120  1  -0.583007  0.077935  2.064021  0.106  -0.548436  0.055427  2.322956  0.082  -0.593184  0.043462  2.311963  0.068  -0.313136  -0.519356  0.062447  2.330057  0.088
O  O50  1  0.03868956  0.35419053  0.42963751  1  -0.58313  -0.083496  2.065423  -0.102  -0.548646  -0.05746  2.325007  -0.078  -0.593749  -0.046861  2.314029  -0.067  -0.312969  -0.518765  -0.061344  2.33152  -0.08
O  O51  1  0.46009877  0.14584178  0.92938947  1  -0.58311  0.077936  2.06389  0.106  -0.548553  0.055423  2.322838  0.082  -0.593308  0.043456  2.31185  0.068  -0.313142  -0.519468  0.062446  2.329937  0.088
O  O52  1  0.61921721  0.55365126  0.59980359  1  -0.614318  0.07754  2.111062  0.105  -0.590095  0.048981  2.404023  0.072  -0.632321  0.037115  2.393345  0.057  -0.320253  -0.559492  0.055034  2.412114  0.077
O  O53  1  0.88200905  0.94634928  0.09984957  1  -0.613099  0.079842  2.109608  0.109  -0.589823  0.049504  2.403313  0.074  -0.632095  0.036282  2.392721  0.058  -0.320065  -0.558685  0.058663  2.410638  0.084
O  O54  1  0.38081089  0.44633266  0.40019309  1  -0.614292  0.077557  2.111102  0.105  -0.590111  0.048996  2.404242  0.072  -0.632294  0.037125  2.393442  0.057  -0.320195  -0.559498  0.055047  2.412325  0.077
O  O55  1  0.11798914  0.05365784  0.90015621  1  -0.613256  0.079825  2.109594  0.109  -0.589898  0.049498  2.403125  0.074  -0.632162  0.036279  2.392513  0.058  -0.320123  -0.558767  0.058657  2.410458  0.084
O  O56  1  0.64186853  0.91638663  0.91672380  1  -0.620711  0.084961  2.127412  0.116  -0.602823  0.053495  2.427724  0.08  -0.65066  0.041187  2.414251  0.066  -0.331339  -0.569895  0.060863  2.436001  0.087
O  O57  1  0.85841971  0.58344525  0.41679016  1  -0.620155  -0.091914  2.128394  -0.112  -0.602714  -0.05889  2.429198  -0.08  -0.650909  -0.047037  2.415866  -0.066  -0.330741  -0.568408  -0.063904  2.436295  -0.084
O  O58  1  0.35812957  0.08360800  0.08328255  1  -0.620803  0.084954  2.127555  0.116  -0.602904  0.053499  2.427828  0.08  -0.650743  0.04119  2.41439  0.066  -0.331416  -0.569978  0.060867  2.436098  0.087
O  O59  1  0.14160131  0.41654735  0.58321051  1  -0.620157  -0.091902  2.128672  -0.112  -0.602709  -0.058882  2.429446  -0.08  -0.650906  -0.047032  2.416143  -0.066  -0.330741  -0.568406  -0.063899  2.436534  -0.084
O  O60  1  0.35078413  0.77737484  0.88153480  1  -0.578754  0.004102  1.963501  0.006  -0.529386  0.001718  2.167826  0.003  -0.554614  0.0003  2.156786  0.001  -0.305628  -0.511673  0.003472  2.17515  0.006
O  O61  1  0.14947914  0.72285055  0.38170606  1  -0.579116  0.003849  1.962653  0.005  -0.530232  0.001704  2.167004  0.002  -0.555545  0.00122  2.155991  0.001  -0.305644  -0.512193  0.0024  2.17434  0.003
O  O62  1  0.64920242  0.22264386  0.11847042  1  -0.57855  0.004104  1.963467  0.006  -0.529241  0.001719  2.167755  0.003  -0.554466  0.0003  2.156731  0.001  -0.305502  -0.511532  0.003474  2.175074  0.006
O  O63  1  0.85056915  0.27712368  0.61828154  1  -0.578994  0.00385  1.962751  0.005  -0.530117  0.001702  2.16711  0.002  -0.555418  0.001218  2.156097  0.001  -0.305547  -0.512086  0.002398  2.174445  0.003
O  O64  1  0.61297361  0.32780456  0.50623297  1  -0.824841  0.061952  1.923793  0.082  -0.788443  0.046757  2.137725  0.066  -0.820434  0.037313  2.101267  0.056  -0.573346  -0.765156  0.050994  2.16492  0.069
O  O65  1  0.88611058  0.17199348  0.00627029  1  -0.825309  0.062151  1.923396  0.083  -0.789064  0.04587  2.137639  0.066  -0.820948  0.035938  2.101337  0.055  -0.572974  -0.765429  0.05204  2.163719  0.071
O  O66  1  0.38702149  0.67218046  0.49376714  1  -0.824748  0.061942  1.924023  0.082  -0.788343  0.046751  2.137968  0.066  -0.820333  0.037307  2.101462  0.056  -0.573313  -0.765056  0.050984  2.165157  0.069
O  O67  1  0.11387552  0.82803389  0.99373777  1  -0.825335  0.062168  1.923499  0.083  -0.789055  0.045884  2.137878  0.066  -0.820946  0.03595  2.101528  0.055  -0.573013  -0.765417  0.052054  2.163959  0.071
