# generated using pymatgen
data_Cu2SiH18C20(N3F4)2
_symmetry_space_group_name_H-M   'P 1'
_cell_length_a   7.27419367
_cell_length_b   11.04958374
_cell_length_c   16.90324247
_cell_angle_alpha   95.09153757
_cell_angle_beta   89.99922301
_cell_angle_gamma   109.20142099
_symmetry_Int_Tables_number   1
_chemical_formula_structural   Cu2SiH18C20(N3F4)2
_chemical_formula_sum   'Cu4 Si2 H36 C40 N12 F16'
_cell_volume   1277.36830263
_cell_formula_units_Z   2
loop_
 _symmetry_equiv_pos_site_id
 _symmetry_equiv_pos_as_xyz
  1  'x, y, z'
loop_
 _atom_site_type_symbol
 _atom_site_label
 _atom_site_symmetry_multiplicity
 _atom_site_fract_x
 _atom_site_fract_y
 _atom_site_fract_z
 _atom_site_occupancy
 _atom_site_pbe_bader_charge
 _atom_site_pbe_bader_spin_density
 _atom_site_pbe_cm5_charge
 _atom_site_pbe_ddec_charge
 _atom_site_pbe_ddec_spin_density
 _atom_site_pbe_ddec_sum_bond_order
 _atom_site_pbe_magmom
Cu  Cu0  1  0.24795894  0.99670899  0.83929343  1  1.165407  0.613057  0.756138  0.893785  0.764424  2.195471  0.612
Cu  Cu1  1  0.25126225  0.00341872  0.66089103  1  1.165167  -0.613081  0.756218  0.894352  -0.764687  2.194561  -0.612
Cu  Cu2  1  0.75222464  0.00330519  0.16070313  1  1.165585  -0.613099  0.756152  0.89419  -0.764479  2.194744  -0.612
Cu  Cu3  1  0.74892509  0.99655347  0.33911828  1  1.165631  0.613121  0.756203  0.894307  0.764749  2.194576  0.612
Si  Si4  1  0.73523035  0.00000221  0.74993161  1  3.21915  0.0  0.255738  1.741157  1e-06  3.901545  0.0
Si  Si5  1  0.26487130  0.99999381  0.25006939  1  3.218957  0.0  0.255737  1.740911  -0.0  3.902115  0.0
H  H6  1  0.19760862  0.00179744  0.08884565  1  0.532555  -0.000105  0.299782  0.299264  -8.3e-05  0.997125  0.0
H  H7  1  0.19564310  0.99822502  0.41134536  1  0.532091  0.000105  0.299421  0.298024  8.3e-05  0.997581  0.0
H  H8  1  0.80278048  0.99816860  0.91114915  1  0.53058  0.000105  0.299887  0.299614  8.3e-05  0.99656  0.0
H  H9  1  0.80476360  0.00181474  0.58867611  1  0.531675  -0.000105  0.299441  0.2982  -8.3e-05  0.997459  0.0
H  H10  1  0.48906885  0.25310586  0.84088934  1  0.140817  0.002355  0.12041  0.111786  0.000888  1.005066  0.002
H  H11  1  0.23630345  0.74708153  0.65934758  1  0.136059  -0.002358  0.120552  0.112258  -0.000887  1.005197  -0.002
H  H12  1  0.51100165  0.74691862  0.15905683  1  0.141336  -0.002352  0.120524  0.111939  -0.000887  1.005043  -0.002
H  H13  1  0.76368568  0.25284617  0.34068914  1  0.136694  0.002356  0.120696  0.112473  0.000887  1.00497  0.002
H  H14  1  0.90475470  0.57457857  0.03519426  1  0.074715  0.000319  0.106514  0.098293  0.000166  1.009401  0.0
H  H15  1  0.33008856  0.42553183  0.46495849  1  0.070685  -0.000319  0.106388  0.098126  -0.000167  1.00937  0.0
H  H16  1  0.09485950  0.42546260  0.96468587  1  0.072671  -0.000319  0.106524  0.098454  -0.000167  1.008042  0.0
H  H17  1  0.66959663  0.57442586  0.53516312  1  0.071125  0.000319  0.10619  0.098107  0.000167  1.008976  0.0
H  H18  1  0.38521634  0.20082100  0.12540789  1  0.17094  0.001344  0.117575  0.150698  0.000676  1.008058  0.001
H  H19  1  0.18448346  0.79916226  0.37479767  1  0.173739  -0.001343  0.117824  0.151272  -0.000677  1.007196  -0.001
H  H20  1  0.61501341  0.79923603  0.87457241  1  0.170449  -0.001345  0.117675  0.151038  -0.000676  1.007764  -0.001
H  H21  1  0.81570631  0.20079281  0.62521909  1  0.173538  0.001345  0.117859  0.151363  0.000677  1.007168  0.001
H  H22  1  0.05760283  0.79723130  0.10076984  1  0.129327  0.001364  0.118422  0.152271  0.000683  1.002109  0.001
H  H23  1  0.26015681  0.20282855  0.39938695  1  0.128442  -0.001367  0.118531  0.152556  -0.000683  1.002088  -0.001
H  H24  1  0.94238518  0.20271063  0.89918119  1  0.128769  -0.001365  0.118438  0.152155  -0.000684  1.001845  -0.001
H  H25  1  0.74003668  0.79723021  0.60066325  1  0.127737  0.001368  0.118587  0.152474  0.000683  1.002308  0.001
H  H26  1  0.07160151  0.72840556  0.80950740  1  0.135609  0.002036  0.120717  0.112383  0.000636  1.004852  0.002
H  H27  1  0.34356761  0.27174935  0.69062459  1  0.133024  -0.002048  0.120518  0.112347  -0.000637  1.004477  -0.002
H  H28  1  0.92789815  0.27170351  0.19039674  1  0.137963  -0.002035  0.120631  0.112153  -0.000636  1.004589  -0.002
H  H29  1  0.65610685  0.72817860  0.30946066  1  0.135112  0.002044  0.120379  0.111935  0.000637  1.004127  0.002
H  H30  1  0.58148813  0.41710069  0.08549235  1  0.076828  0.000338  0.108987  0.101707  0.000176  0.98574  0.0
H  H31  1  0.16469380  0.58293077  0.41480242  1  0.06466  -0.000339  0.108799  0.101206  -0.000176  0.985948  0.0
H  H32  1  0.41843590  0.58296354  0.91442736  1  0.078298  -0.000338  0.108913  0.101471  -0.000176  0.985319  0.0
H  H33  1  0.83525196  0.41702843  0.58526424  1  0.064277  0.000339  0.108786  0.101313  0.000176  0.985385  0.0
H  H34  1  0.63472330  0.44493073  0.93931628  1  0.079756  0.001186  0.101319  0.102518  0.000601  1.049174  0.001
H  H35  1  0.19019820  0.55516868  0.56098788  1  0.0744  -0.001181  0.10128  0.102815  -0.000598  1.049196  -0.001
H  H36  1  0.36516086  0.55512798  0.06061381  1  0.08025  -0.001184  0.101437  0.102666  -0.0006  1.049084  -0.001
H  H37  1  0.80966753  0.44476515  0.43906334  1  0.073949  0.00118  0.101214  0.102749  0.000598  1.048842  0.001
H  H38  1  0.91608596  0.53751693  0.88492974  1  0.050777  0.001182  0.108748  0.115721  0.000579  1.001542  0.001
H  H39  1  0.37890540  0.46264825  0.61520810  1  0.090183  -0.001146  0.108693  0.115726  -0.000577  1.001787  -0.001
H  H40  1  0.08329943  0.46260005  0.11494402  1  0.049994  -0.00118  0.108643  0.115588  -0.000579  1.001586  -0.001
H  H41  1  0.62051699  0.53725672  0.38491863  1  0.091063  0.001145  0.108604  0.115723  0.000577  1.001832  0.001
C  C42  1  0.46765748  0.24867871  0.90439660  1  0.493496  -0.001132  0.045584  0.109924  0.00019  3.935952  -0.001
C  C43  1  0.21927948  0.75145472  0.59583712  1  0.468275  0.001074  0.045605  0.108813  -0.000189  3.936681  0.001
C  C44  1  0.53238770  0.75137761  0.09555408  1  0.493362  0.001133  0.045559  0.110027  -0.000187  3.934909  0.001
C  C45  1  0.78070070  0.24846330  0.40419736  1  0.467049  -0.001068  0.045475  0.108913  0.000186  3.936557  -0.001
C  C46  1  0.97244618  0.65400567  0.99947628  1  -0.041291  -0.003738  -0.073645  -0.022544  -0.00238  4.025315  -0.002
C  C47  1  0.31848088  0.34607851  0.50067478  1  -0.031173  0.003739  -0.073334  -0.022089  0.00238  4.024753  0.002
C  C48  1  0.02727084  0.34600469  0.00044140  1  -0.033954  0.003735  -0.073674  -0.0223  0.002379  4.024234  0.002
C  C49  1  0.68132854  0.65391045  0.49942882  1  -0.031661  -0.00374  -0.073234  -0.021744  -0.002382  4.024656  -0.002
C  C50  1  0.32806319  0.11588176  0.00344254  1  0.970687  1.3e-05  0.234844  0.390832  0.000632  4.012212  0.0
C  C51  1  0.21218454  0.88418676  0.49674944  1  0.95822  -7.6e-05  0.235714  0.391147  -0.000633  4.013052  0.0
C  C52  1  0.67214745  0.88414804  0.99652519  1  0.96864  -2.7e-05  0.235199  0.391361  -0.000637  4.012646  0.0
C  C53  1  0.78794353  0.11575213  0.50327363  1  0.955677  9.3e-05  0.235436  0.39086  0.000636  4.013843  0.0
C  C54  1  0.40892368  0.21830571  0.06309221  1  0.052052  0.006315  -0.081064  -0.204096  0.004351  3.88159  0.005
C  C55  1  0.19070952  0.78172193  0.43712259  1  -0.010707  -0.006307  -0.081756  -0.205043  -0.004362  3.881929  -0.005
C  C56  1  0.59118595  0.78175306  0.93687989  1  0.052954  -0.006309  -0.081413  -0.20524  -0.004352  3.882019  -0.005
C  C57  1  0.80939173  0.21821278  0.56288726  1  -0.011024  0.006302  -0.081871  -0.205255  0.004361  3.882406  0.005
C  C58  1  0.14196818  0.87902686  0.98903996  1  0.975649  -8e-05  0.236593  0.392405  0.000634  4.01284  0.0
C  C59  1  0.26299833  0.12107697  0.51112387  1  0.93961  -8.2e-05  0.235838  0.392072  -0.000628  4.012683  0.0
C  C60  1  0.85810103  0.12094552  0.01093740  1  0.976234  7.4e-05  0.236751  0.392559  -0.000636  4.013665  0.0
C  C61  1  0.73721208  0.87896887  0.48890973  1  0.939895  8.3e-05  0.236353  0.392957  0.000631  4.01343  0.0
C  C62  1  0.05493368  0.77667293  0.03632369  1  0.039085  0.00622  -0.082209  -0.208131  0.004342  3.886239  0.005
C  C63  1  0.27824305  0.22340259  0.46382853  1  0.033718  -0.006223  -0.082154  -0.208505  -0.004336  3.885449  -0.005
C  C64  1  0.94501793  0.22329522  0.96363750  1  0.033257  -0.006216  -0.082316  -0.208584  -0.004341  3.886403  -0.005
C  C65  1  0.72186800  0.77665626  0.53622523  1  0.033584  0.006223  -0.082441  -0.20902  0.004337  3.885998  0.005
C  C66  1  0.06473696  0.73697683  0.87396255  1  0.504031  -0.001505  0.046741  0.110449  -4.6e-05  3.944268  -0.001
C  C67  1  0.32806464  0.26317654  0.62617293  1  0.425632  0.001304  0.046822  0.110084  4.3e-05  3.944833  0.001
C  C68  1  0.93494698  0.26308838  0.12595721  1  0.506454  0.00151  0.047059  0.11061  4.1e-05  3.944791  0.001
C  C69  1  0.67173428  0.73678590  0.37390749  1  0.433925  -0.001328  0.047  0.110843  -4.2e-05  3.94408  -0.001
C  C70  1  0.51806621  0.33706802  0.04037723  1  -0.08514  -0.003805  -0.072886  -0.020692  -0.002425  4.022484  -0.002
C  C71  1  0.18128155  0.66301545  0.45988992  1  -0.067601  0.003821  -0.072546  -0.019933  0.002428  4.02351  0.002
C  C72  1  0.48194300  0.66299884  0.95957219  1  -0.086343  0.003805  -0.072254  -0.019452  0.002426  4.021763  0.002
C  C73  1  0.81870016  0.33692489  0.54015274  1  -0.067071  -0.003825  -0.072687  -0.02036  -0.00243  4.022252  -0.002
C  C74  1  0.54843477  0.35312536  0.95947237  1  -0.10439  0.006313  -0.103487  -0.172914  0.004175  4.036421  0.005
C  C75  1  0.19557781  0.64694456  0.54079313  1  -0.029017  -0.006321  -0.103513  -0.172929  -0.004179  4.036602  -0.005
C  C76  1  0.45151474  0.64693759  0.04047390  1  -0.103498  -0.006306  -0.103932  -0.173534  -0.004172  4.036446  -0.005
C  C77  1  0.80433337  0.35298117  0.45924172  1  -0.026442  0.006319  -0.103326  -0.172882  0.00418  4.035914  0.005
C  C78  1  0.97797038  0.63284918  0.91652964  1  -0.069469  0.006127  -0.10285  -0.180236  0.004037  4.044183  0.005
C  C79  1  0.34541572  0.36730743  0.58360896  1  -0.031979  -0.005984  -0.103495  -0.180718  -0.004045  4.045774  -0.005
C  C80  1  0.02158997  0.36722454  0.08338403  1  -0.070529  -0.006134  -0.102733  -0.179938  -0.004033  4.045196  -0.005
C  C81  1  0.65424583  0.63264972  0.41649073  1  -0.041868  0.006008  -0.10313  -0.180934  0.004042  4.045778  0.005
N  N82  1  0.14547129  0.85834593  0.90908193  1  -1.226151  0.094724  -0.356702  -0.33661  0.061314  3.570871  0.081
N  N83  1  0.28730444  0.14179906  0.59106909  1  -1.193724  -0.094538  -0.356049  -0.336411  -0.061366  3.570866  -0.081
N  N84  1  0.85449596  0.14166175  0.09088413  1  -1.227715  -0.094717  -0.357177  -0.33723  -0.061307  3.571022  -0.081
N  N85  1  0.71277393  0.85821915  0.40897381  1  -1.193902  0.094551  -0.356204  -0.336879  0.061366  3.571307  0.081
N  N86  1  0.35611819  0.13231359  0.92559830  1  -1.213227  0.096556  -0.357995  -0.333879  0.062347  3.578957  0.083
N  N87  1  0.22388278  0.86778325  0.57459407  1  -1.185854  -0.096562  -0.358674  -0.333438  -0.062521  3.578608  -0.083
N  N88  1  0.64404332  0.86773620  0.07436095  1  -1.212913  -0.096551  -0.358113  -0.334305  -0.062351  3.578648  -0.083
N  N89  1  0.77621944  0.13214792  0.42542803  1  -1.184922  0.09657  -0.358509  -0.333442  0.062534  3.578409  0.083
N  N90  1  0.21994929  0.99934888  0.02811137  1  -1.292885  0.000925  -0.392271  -0.386215  0.000402  3.592873  0.001
N  N91  1  0.22048008  0.00070916  0.47207425  1  -1.282607  -0.000937  -0.391037  -0.384163  -0.00041  3.592188  -0.001
N  N92  1  0.78035574  0.00062773  0.97188277  1  -1.292533  -0.000922  -0.392644  -0.38639  -0.0004  3.593303  -0.001
N  N93  1  0.77986373  0.99930654  0.52794605  1  -1.282373  0.000929  -0.391361  -0.384395  0.000407  3.594007  0.001
F  F94  1  0.57089737  0.99580757  0.82332865  1  -0.83928  -0.000989  -0.226874  -0.559818  -0.000585  1.260284  0.0
F  F95  1  0.57527796  0.00425951  0.67644418  1  -0.839878  0.000997  -0.227063  -0.560149  0.00059  1.259764  0.0
F  F96  1  0.42929581  0.00419281  0.17669326  1  -0.838886  0.000993  -0.227091  -0.559973  0.000588  1.259891  0.0
F  F97  1  0.42488557  0.99570080  0.32355153  1  -0.840398  -0.001003  -0.227066  -0.560061  -0.00059  1.259066  0.0
F  F98  1  0.90322111  0.99625788  0.82296046  1  -0.830753  -0.001186  -0.204942  -0.539083  -0.000824  1.266542  0.0
F  F99  1  0.90706950  0.00362578  0.67698820  1  -0.829593  0.001202  -0.204973  -0.538868  0.000827  1.266328  0.0
F  F100  1  0.09692624  0.00373332  0.17703971  1  -0.830909  0.00119  -0.204839  -0.538967  0.000825  1.266842  0.0
F  F101  1  0.09306164  0.99636875  0.32303047  1  -0.829225  -0.001204  -0.205149  -0.538942  -0.000828  1.2662  0.0
F  F102  1  0.29893165  0.11982966  0.75836350  1  -0.6669  -0.00088  -0.339636  -0.506656  -0.000572  1.177197  -0.001
F  F103  1  0.17945191  0.88032364  0.74183997  1  -0.668173  0.001006  -0.339505  -0.506685  0.000648  1.178211  0.001
F  F104  1  0.70123098  0.88015085  0.24163260  1  -0.666889  0.000858  -0.339679  -0.506608  0.000557  1.176569  0.001
F  F105  1  0.82068836  0.11969465  0.25816744  1  -0.668229  -0.001015  -0.339528  -0.506748  -0.000654  1.177596  -0.001
F  F106  1  0.82030038  0.16366824  0.76265509  1  -0.833131  1.8e-05  -0.255586  -0.541894  1.8e-05  1.055167  0.0
F  F107  1  0.65668297  0.83631400  0.73722582  1  -0.832021  -1.8e-05  -0.255742  -0.542155  -1.8e-05  1.055132  0.0
F  F108  1  0.17982533  0.83634016  0.23734119  1  -0.833236  -1.8e-05  -0.255653  -0.541888  -1.8e-05  1.055377  0.0
F  F109  1  0.34343989  0.16366120  0.26278836  1  -0.831999  1.8e-05  -0.255656  -0.542026  1.8e-05  1.055425  0.0
