# generated using pymatgen
data_CoH10C8(N2Cl)2
_symmetry_space_group_name_H-M   'P 1'
_cell_length_a   8.74297802
_cell_length_b   9.58033541
_cell_length_c   14.16858181
_cell_angle_alpha   90.00000878
_cell_angle_beta   90.00008257
_cell_angle_gamma   105.12671336
_symmetry_Int_Tables_number   1
_chemical_formula_structural   CoH10C8(N2Cl)2
_chemical_formula_sum   'Co4 H40 C32 N16 Cl8'
_cell_volume   1145.64948714
_cell_formula_units_Z   4
loop_
 _symmetry_equiv_pos_site_id
 _symmetry_equiv_pos_as_xyz
  1  'x, y, z'
loop_
 _atom_site_type_symbol
 _atom_site_label
 _atom_site_symmetry_multiplicity
 _atom_site_fract_x
 _atom_site_fract_y
 _atom_site_fract_z
 _atom_site_occupancy
 _atom_site_hle17_ddec_charge
 _atom_site_hle17_ddec_spin_density
 _atom_site_hle17_ddec_sum_bond_order
 _atom_site_hle17_magmom
 _atom_site_hse06_10hf_ddec_charge
 _atom_site_hse06_10hf_ddec_spin_density
 _atom_site_hse06_10hf_ddec_sum_bond_order
 _atom_site_hse06_10hf_magmom
 _atom_site_hse06_ddec_charge
 _atom_site_hse06_ddec_spin_density
 _atom_site_hse06_ddec_sum_bond_order
 _atom_site_hse06_magmom
 _atom_site_pbe_cm5_charge
 _atom_site_pbe_ddec_charge
 _atom_site_pbe_ddec_spin_density
 _atom_site_pbe_ddec_sum_bond_order
 _atom_site_pbe_magmom
Co  Co0  1  0.74291329  0.88329481  0.78467171  1  0.75622  2.760301  2.339767  2.454  0.713746  2.786333  2.830878  2.521  0.808816  2.844392  2.745132  2.629  0.547369  0.639499  2.732308  2.896272  2.424
Co  Co1  1  0.75708704  0.61670490  0.28467106  1  0.756227  2.760307  2.339786  2.454  0.713749  2.786344  2.830913  2.521  0.808799  2.844394  2.745183  2.629  0.547356  0.639495  2.732314  2.896293  2.424
Co  Co2  1  0.25708885  0.11670656  0.21532936  1  0.756204  2.760303  2.339788  2.454  0.713693  2.78633  2.830914  2.521  0.808762  2.84439  2.745179  2.629  0.547357  0.639451  2.732308  2.896303  2.424
Co  Co3  1  0.24291189  0.38329322  0.71532931  1  0.756201  2.7603  2.339789  2.454  0.7137  2.786326  2.830916  2.521  0.80878  2.844389  2.745167  2.629  0.547363  0.639469  2.732305  2.896287  2.424
H  H4  1  0.61021991  0.58401322  0.65458734  1  0.113327  -0.00037  0.968349  0.0  0.128511  -0.000145  1.041711  0.0  0.129859  -0.000216  1.041779  0.0  0.096243  0.127455  -5.6e-05  1.041451  0.0
H  H5  1  0.88978124  0.91598639  0.15458684  1  0.113294  -0.000368  0.968375  0.0  0.128469  -0.000145  1.041765  0.0  0.129818  -0.000216  1.04183  0.0  0.096209  0.127415  -5.6e-05  1.041502  0.0
H  H6  1  0.38978162  0.41598599  0.34541303  1  0.113284  -0.000371  0.968371  0.0  0.128462  -0.000145  1.041758  0.0  0.129811  -0.000216  1.041824  0.0  0.096204  0.127408  -5.6e-05  1.041498  0.0
H  H7  1  0.11021945  0.08401390  0.84541212  1  0.11332  -0.000369  0.968357  0.0  0.128506  -0.000145  1.041729  0.0  0.129854  -0.000216  1.041799  0.0  0.096235  0.127453  -5.6e-05  1.041468  0.0
H  H8  1  0.80957661  0.68147013  0.62413343  1  0.111009  -0.000177  0.960781  0.0  0.128736  -4.6e-05  1.029319  0.0  0.129876  -8.8e-05  1.029617  0.0  0.100734  0.12779  1.1e-05  1.028884  0.0
H  H9  1  0.69042331  0.81852945  0.12413345  1  0.11096  -0.000176  0.960793  0.0  0.128697  -4.6e-05  1.029325  0.0  0.129836  -8.8e-05  1.029623  0.0  0.100723  0.127751  1.1e-05  1.028891  0.0
H  H10  1  0.19042377  0.31852908  0.37586623  1  0.110938  -0.000175  0.960781  0.0  0.128676  -4.6e-05  1.029315  0.0  0.129816  -8.8e-05  1.029615  0.0  0.10071  0.127729  1.1e-05  1.028879  0.0
H  H11  1  0.30957738  0.18147084  0.87586621  1  0.110996  -0.000176  0.960781  0.0  0.128727  -4.5e-05  1.029322  0.0  0.129866  -8.8e-05  1.029621  0.0  0.10073  0.12778  1.1e-05  1.028889  0.0
H  H12  1  0.67164856  0.59731772  0.53395215  1  0.114975  -0.000342  0.929098  0.0  0.136718  -0.000194  0.991416  0.0  0.137728  -0.000215  0.99155  0.0  0.112211  0.13579  -0.000143  0.991619  0.0
H  H13  1  0.82835029  0.90268286  0.03395159  1  0.114946  -0.000343  0.929167  0.0  0.136691  -0.000194  0.991479  0.0  0.137699  -0.000215  0.991615  0.0  0.112214  0.135765  -0.000143  0.99168  0.0
H  H14  1  0.32835129  0.40268364  0.46604752  1  0.11496  -0.000344  0.929141  0.0  0.136708  -0.000194  0.991447  0.0  0.137717  -0.000215  0.991583  0.0  0.11222  0.135781  -0.000143  0.991648  0.0
H  H15  1  0.17164895  0.09731635  0.96604737  1  0.114947  -0.000342  0.92918  0.0  0.136698  -0.000194  0.99149  0.0  0.137708  -0.000215  0.991624  0.0  0.112216  0.135772  -0.000143  0.991693  0.0
H  H16  1  0.54256996  0.75659323  0.44954633  1  0.114383  9.2e-05  0.986874  0.001  0.123101  0.000252  1.055428  0.0  0.126697  0.000131  1.052014  0.0  0.111824  0.12021  0.000376  1.058259  0.001
H  H17  1  0.95742820  0.74340553  0.94954434  1  0.114369  9.3e-05  0.986891  0.001  0.123084  0.000252  1.055445  0.0  0.126679  0.000131  1.052033  0.0  0.111821  0.120192  0.000376  1.058276  0.001
H  H18  1  0.45742699  0.24340596  0.55045616  1  0.114376  9.1e-05  0.986886  0.001  0.123095  0.000252  1.055432  0.0  0.126691  0.000131  1.052018  0.0  0.11182  0.120204  0.000376  1.058263  0.001
H  H19  1  0.04257219  0.25659368  0.05045533  1  0.114364  9.2e-05  0.986899  0.001  0.123078  0.000252  1.055457  0.0  0.126675  0.000131  1.05204  0.0  0.111819  0.120186  0.000376  1.058289  0.001
H  H20  1  0.59083541  0.08486154  0.66751662  1  0.110969  0.000363  0.965961  0.0  0.119062  0.000554  1.032515  0.0  0.122278  0.000354  1.029665  0.0  0.110857  0.116832  0.000737  1.034001  0.0
H  H21  1  0.90916697  0.41513978  0.16751543  1  0.110949  0.000365  0.965933  0.0  0.119014  0.000554  1.032529  0.0  0.122228  0.000354  1.029677  0.0  0.110834  0.116781  0.000736  1.034019  0.0
H  H22  1  0.40916758  0.91513876  0.33248587  1  0.110902  0.000362  0.965944  0.0  0.118962  0.000554  1.03255  0.0  0.122176  0.000354  1.029698  0.0  0.110818  0.116731  0.000736  1.03404  0.0
H  H23  1  0.09083258  0.58486051  0.83248494  1  0.110969  0.000362  0.965919  0.0  0.119042  0.000554  1.032496  0.0  0.12226  0.000354  1.029646  0.0  0.110843  0.116809  0.000736  1.033986  0.0
H  H24  1  0.32601940  0.85451120  0.82618450  1  0.118321  9.1e-05  0.925402  0.0  0.137879  0.000225  0.988547  0.0  0.139687  0.000106  0.987656  0.0  0.104632  0.136047  0.000359  0.989718  0.0
H  H25  1  0.17397876  0.64548913  0.32618519  1  0.118352  9.2e-05  0.925392  0.0  0.137906  0.000225  0.988536  0.0  0.139713  0.000106  0.987646  0.0  0.104649  0.136073  0.000359  0.989706  0.0
H  H26  1  0.67398015  0.14548908  0.17381446  1  0.118347  9.3e-05  0.92538  0.0  0.137903  0.000225  0.988528  0.0  0.139711  0.000106  0.987638  0.0  0.104654  0.136071  0.000359  0.989699  0.0
H  H27  1  0.82601965  0.35451115  0.67381447  1  0.118335  9.3e-05  0.925377  0.0  0.137889  0.000225  0.988524  0.0  0.139697  0.000106  0.987635  0.0  0.104642  0.136056  0.000359  0.989695  0.0
H  H28  1  0.48738454  0.98595553  0.88017093  1  0.114173  -0.0  0.975907  0.0  0.130697  0.000229  1.046113  0.0  0.132635  0.000125  1.045559  0.0  0.098072  0.12929  0.000352  1.046106  0.0
H  H29  1  0.01261520  0.51404594  0.38017076  1  0.114177  1e-06  0.975924  0.0  0.130696  0.000228  1.046134  0.0  0.132634  0.000125  1.045579  0.0  0.098071  0.129286  0.000352  1.046126  0.0
H  H30  1  0.51261531  0.01404584  0.11982803  1  0.114179  1e-06  0.975877  0.0  0.130705  0.000229  1.046088  0.0  0.132644  0.000125  1.045535  0.0  0.098056  0.129297  0.000352  1.046084  0.0
H  H31  1  0.98738435  0.48595435  0.61982891  1  0.114178  2e-06  0.975867  0.0  0.130698  0.000228  1.046082  0.0  0.132636  0.000125  1.045529  0.0  0.098059  0.129288  0.000352  1.046074  0.0
H  H32  1  0.31750269  0.89675174  0.94925892  1  0.115277  -0.000201  0.943874  0.0  0.136545  -5.9e-05  1.006813  0.0  0.138294  -8.1e-05  1.006247  0.0  0.108153  0.134851  -3e-05  1.007822  0.0
H  H33  1  0.18249547  0.60324761  0.44925961  1  0.115288  -0.000199  0.943856  0.0  0.136546  -5.9e-05  1.006803  0.0  0.138296  -8.1e-05  1.006235  0.0  0.108177  0.134851  -3e-05  1.00781  0.0
H  H34  1  0.68249685  0.10324854  0.05074004  1  0.115277  -0.000201  0.943885  0.0  0.136545  -5.9e-05  1.006816  0.0  0.138294  -8.1e-05  1.00625  0.0  0.108172  0.134852  -3e-05  1.007822  0.0
H  H35  1  0.81750293  0.39675267  0.55074005  1  0.115299  -0.000198  0.943868  0.0  0.136562  -5.9e-05  1.006796  0.0  0.13832  -8.1e-05  1.00622  0.0  0.108171  0.134866  -3e-05  1.007804  0.0
H  H36  1  0.32397723  0.67277205  0.03121925  1  0.123731  0.000693  0.947182  0.0  0.133795  0.000817  1.010425  0.0  0.137301  0.000599  1.007141  0.0  0.125035  0.13082  0.001011  1.013411  0.001
H  H37  1  0.17602246  0.82722805  0.53121984  1  0.123751  0.000693  0.947165  0.0  0.133815  0.000818  1.010404  0.0  0.137321  0.000599  1.00712  0.0  0.12504  0.130841  0.001011  1.013387  0.001
H  H38  1  0.67602431  0.32722717  0.96877900  1  0.123778  0.000692  0.947165  0.0  0.133841  0.000818  1.0104  0.0  0.137346  0.000599  1.007118  0.0  0.125041  0.130863  0.001011  1.013384  0.001
H  H39  1  0.82397480  0.17277223  0.46877912  1  0.123753  0.000693  0.947124  0.0  0.133821  0.000818  1.010363  0.0  0.137327  0.000599  1.00708  0.0  0.125024  0.130845  0.001011  1.013351  0.001
H  H40  1  0.70165571  0.57428197  0.86645403  1  0.108946  -0.000132  0.941116  0.0  0.120518  0.000102  1.000608  0.0  0.12294  4e-05  0.998379  0.0  0.122096  0.118704  0.000199  1.002128  0.0
H  H41  1  0.79834255  0.92571780  0.36645486  1  0.108964  -0.000131  0.941101  0.0  0.120537  0.000102  1.000589  0.0  0.122959  4e-05  0.99836  0.0  0.122109  0.118727  0.000199  1.002112  0.0
H  H42  1  0.29834300  0.42571939  0.13354281  1  0.108945  -0.000131  0.941111  0.0  0.120514  0.000102  1.000608  0.0  0.122935  4e-05  0.998378  0.0  0.12211  0.118703  0.000199  1.002131  0.0
H  H43  1  0.20165555  0.07428140  0.63354409  1  0.108964  -0.000132  0.941104  0.0  0.120533  0.000102  1.000601  0.0  0.122955  4e-05  0.998371  0.0  0.122116  0.118722  0.000199  1.002125  0.0
C  C44  1  0.68516221  0.65386435  0.60190956  1  -0.201746  3.5e-05  3.633826  0.0  -0.319612  0.000765  3.871559  0.0  -0.318965  0.000525  3.880709  0.0  -0.131206  -0.319529  0.001023  3.865442  0.001
C  C45  1  0.81483880  0.84613521  0.10190828  1  -0.20166  3.2e-05  3.633863  0.0  -0.319508  0.000764  3.871585  0.0  -0.318859  0.000525  3.880732  0.0  -0.131186  -0.319427  0.001023  3.86548  0.001
C  C46  1  0.31483963  0.34613594  0.39809152  1  -0.201658  3.5e-05  3.633799  0.0  -0.319499  0.000765  3.871523  0.0  -0.318853  0.000525  3.880673  0.0  -0.131184  -0.319419  0.001023  3.865416  0.001
C  C47  1  0.18516273  0.15386400  0.89809139  1  -0.201732  3.1e-05  3.633874  0.0  -0.319603  0.000764  3.871634  0.0  -0.318956  0.000525  3.880783  0.0  -0.131221  -0.31952  0.001023  3.865522  0.001
C  C48  1  0.56449658  0.82380208  0.51248066  1  -0.041853  0.002226  3.626285  0.003  -0.107049  0.004681  3.872849  0.006  -0.098937  0.003678  3.883828  0.005  0.02485  -0.112578  0.005846  3.866356  0.007
C  C49  1  0.93550306  0.67619740  0.01247877  1  -0.041823  0.002235  3.626394  0.003  -0.107024  0.004681  3.872943  0.006  -0.098912  0.003678  3.883922  0.005  0.024842  -0.112555  0.005846  3.866448  0.007
C  C50  1  0.43550267  0.17619712  0.48752183  1  -0.04188  0.002229  3.626419  0.003  -0.107056  0.004681  3.872958  0.006  -0.098945  0.003678  3.883937  0.005  0.024835  -0.112585  0.005846  3.866463  0.007
C  C51  1  0.06449733  0.32380181  0.98752090  1  -0.041838  0.002221  3.626348  0.003  -0.107013  0.004682  3.87291  0.006  -0.098902  0.003678  3.88389  0.005  0.024852  -0.112547  0.005846  3.866416  0.007
C  C52  1  0.53458663  0.95737929  0.53149385  1  -0.039019  0.002646  3.905316  0.004  -0.022615  0.001339  4.151346  0.002  -0.029013  0.000671  4.176127  0.001  -0.031419  -0.018748  0.002192  4.135491  0.003
C  C53  1  0.96541306  0.54262021  0.03149126  1  -0.03918  0.002637  3.905482  0.004  -0.022666  0.001339  4.151392  0.002  -0.029061  0.00067  4.176171  0.001  -0.031446  -0.018798  0.002192  4.135531  0.003
C  C54  1  0.46541406  0.04262100  0.46851076  1  -0.03915  0.002644  3.905369  0.004  -0.022665  0.001339  4.151318  0.002  -0.02906  0.000671  4.176098  0.001  -0.031451  -0.018793  0.002192  4.13546  0.003
C  C55  1  0.03458504  0.45737899  0.96850840  1  -0.039023  0.00265  3.905379  0.004  -0.022599  0.001339  4.151356  0.002  -0.028995  0.00067  4.176137  0.001  -0.031424  -0.018726  0.002192  4.135491  0.003
C  C56  1  0.59062409  0.99136626  0.62405572  1  0.00146  -0.007187  3.686652  -0.003  -0.045142  0.0032  3.965972  0.005  -0.035011  0.002765  3.980387  0.004  0.016858  -0.052066  0.003551  3.95593  0.005
C  C57  1  0.90937729  0.50863441  0.12405449  1  0.001616  -0.007173  3.686559  -0.003  -0.044982  0.0032  3.965863  0.005  -0.034844  0.002766  3.980268  0.004  0.016909  -0.051909  0.003551  3.95582  0.005
C  C58  1  0.40937806  0.00863512  0.37594677  1  0.001614  -0.00718  3.686574  -0.003  -0.044967  0.0032  3.965878  0.005  -0.034822  0.002766  3.980272  0.004  0.016909  -0.051894  0.003551  3.955836  0.005
C  C59  1  0.09062196  0.49136480  0.87594588  1  0.00149  -0.007193  3.686585  -0.003  -0.045095  0.0032  3.965888  0.005  -0.034965  0.002767  3.980301  0.004  0.016885  -0.052022  0.003551  3.955843  0.005
C  C60  1  0.39567245  0.88467073  0.89111411  1  -0.201965  0.000166  3.621238  0.0  -0.31583  0.000868  3.853738  0.001  -0.315433  0.000617  3.861921  0.001  -0.129459  -0.315663  0.00116  3.849059  0.001
C  C61  1  0.10432588  0.61532966  0.39111473  1  -0.202025  0.000162  3.621313  0.0  -0.31587  0.000868  3.853794  0.001  -0.315474  0.000617  3.861976  0.001  -0.129514  -0.315702  0.00116  3.849112  0.001
C  C62  1  0.60432710  0.11532956  0.10888485  1  -0.201965  0.000163  3.621215  0.0  -0.315851  0.000868  3.853691  0.001  -0.315456  0.000617  3.861874  0.001  -0.129473  -0.315683  0.00116  3.849012  0.001
C  C63  1  0.89567222  0.38466954  0.60888564  1  -0.201998  0.00016  3.621192  0.0  -0.315838  0.000868  3.85366  0.001  -0.315449  0.000616  3.861837  0.001  -0.129472  -0.315671  0.00116  3.848979  0.001
C  C64  1  0.41792754  0.66656330  0.98267514  1  -0.037626  0.003272  3.596417  0.005  -0.102718  0.004965  3.845039  0.006  -0.0941  0.004015  3.85608  0.005  0.032092  -0.108231  0.005912  3.83792  0.007
C  C65  1  0.08207186  0.83343609  0.48267647  1  -0.037644  0.003261  3.596393  0.005  -0.102725  0.004965  3.845035  0.006  -0.094112  0.004014  3.856071  0.005  0.032092  -0.108234  0.005912  3.837913  0.007
C  C66  1  0.58207285  0.33343591  0.01732311  1  -0.037684  0.003268  3.596365  0.005  -0.102784  0.004965  3.844997  0.006  -0.094168  0.004015  3.856039  0.005  0.032061  -0.108296  0.005912  3.837867  0.007
C  C67  1  0.91792655  0.16656419  0.51732390  1  -0.037656  0.003271  3.596344  0.005  -0.102759  0.004965  3.844964  0.006  -0.094139  0.004014  3.856009  0.005  0.032102  -0.108273  0.005912  3.83784  0.007
C  C68  1  0.50627822  0.56500155  0.97267700  1  -0.019612  0.001919  3.865879  0.003  -0.007346  0.000822  4.118025  0.001  -0.013554  9.9e-05  4.142965  0.001  -0.024191  -0.00367  0.001428  4.102081  0.002
C  C69  1  0.99372145  0.93499832  0.47267800  1  -0.019661  0.001926  3.865876  0.003  -0.007468  0.000821  4.118076  0.001  -0.013657  0.0001  4.142997  0.001  -0.024261  -0.003794  0.001428  4.102145  0.002
C  C70  1  0.49371988  0.43499765  0.02732126  1  -0.019644  0.001923  3.865792  0.003  -0.00747  0.000822  4.11803  0.001  -0.013673  0.0001  4.142965  0.001  -0.024243  -0.003783  0.001428  4.102075  0.002
C  C71  1  0.00627779  0.06500089  0.52732166  1  -0.019643  0.001918  3.865793  0.003  -0.007376  0.000822  4.117935  0.001  -0.0136  0.000101  4.142887  0.001  -0.024248  -0.003692  0.001428  4.101992  0.002
C  C72  1  0.61094774  0.61807728  0.89773518  1  0.012954  -0.005382  3.697515  -0.002  -0.037402  0.003204  3.985614  0.005  -0.02724  0.002862  4.000966  0.004  0.023153  -0.0448  0.003419  3.976107  0.005
C  C73  1  0.88905235  0.88192469  0.39773538  1  0.012976  -0.005395  3.697567  -0.002  -0.037379  0.003204  3.985668  0.005  -0.027222  0.002862  4.001013  0.004  0.023204  -0.044779  0.003419  3.97617  0.005
C  C74  1  0.38905357  0.38192517  0.10226378  1  0.012991  -0.005391  3.697628  -0.002  -0.037374  0.003203  3.985725  0.005  -0.027212  0.002862  4.001073  0.004  0.023143  -0.044778  0.003419  3.976224  0.005
C  C75  1  0.11094719  0.11807560  0.60226287  1  0.012933  -0.005378  3.69755  -0.002  -0.037448  0.003204  3.985644  0.005  -0.027283  0.002861  4.001  0.004  0.023133  -0.044851  0.003419  3.976145  0.005
N  N76  1  0.65192467  0.88650038  0.65805491  1  -0.26131  0.042404  3.270154  0.064  -0.246925  0.031883  3.581881  0.039  -0.274739  0.025289  3.598145  0.03  -0.266043  -0.226731  0.037416  3.572012  0.046
N  N77  1  0.84807680  0.61350031  0.15805434  1  -0.261412  0.042398  3.270205  0.064  -0.24703  0.031883  3.581979  0.039  -0.274841  0.025289  3.598236  0.03  -0.266073  -0.226834  0.037416  3.572107  0.046
N  N78  1  0.34807862  0.11350100  0.34194476  1  -0.261349  0.042401  3.270177  0.064  -0.246955  0.031883  3.581935  0.039  -0.27477  0.025288  3.598199  0.03  -0.266028  -0.226761  0.037415  3.572068  0.046
N  N79  1  0.15192275  0.38649997  0.84194462  1  -0.261339  0.042408  3.270167  0.064  -0.246933  0.031883  3.581904  0.039  -0.27475  0.025288  3.598174  0.03  -0.266029  -0.226743  0.037415  3.572038  0.046
N  N80  1  0.63529971  0.78541094  0.58904164  1  0.122695  -0.000466  3.600248  0.0  0.250919  0.000959  3.777186  0.002  0.245664  0.000347  3.802427  0.001  -0.144846  0.253604  0.00134  3.760332  0.002
N  N81  1  0.86470158  0.71458970  0.08904039  1  0.122739  -0.000474  3.600264  0.0  0.250903  0.000959  3.777278  0.002  0.245647  0.000347  3.802519  0.001  -0.144824  0.253584  0.00134  3.760423  0.002
N  N82  1  0.36470243  0.21459044  0.41096015  1  0.122759  -0.000467  3.600258  0.0  0.250901  0.000959  3.777284  0.002  0.245644  0.000348  3.802528  0.001  -0.14483  0.253585  0.00134  3.76043  0.002
N  N83  1  0.13529881  0.28540951  0.91095928  1  0.122739  -0.000463  3.600267  0.0  0.250897  0.000959  3.777276  0.002  0.245641  0.000347  3.802519  0.001  -0.144856  0.253581  0.00134  3.760422  0.002
N  N84  1  0.58926795  0.74328890  0.86500995  1  -0.274375  0.039293  3.246446  0.06  -0.259966  0.03023  3.559762  0.037  -0.287344  0.023795  3.575878  0.028  -0.265149  -0.24052  0.035717  3.550707  0.044
N  N85  1  0.91073321  0.75671304  0.36501016  1  -0.274377  0.039299  3.246466  0.06  -0.259928  0.030229  3.559727  0.037  -0.287302  0.023794  3.575841  0.028  -0.265138  -0.240477  0.035716  3.550665  0.044
N  N86  1  0.41073336  0.25671355  0.13498830  1  -0.274441  0.039296  3.246679  0.06  -0.259943  0.03023  3.559845  0.037  -0.287323  0.023795  3.575966  0.028  -0.265131  -0.240499  0.035717  3.550796  0.044
N  N87  1  0.08926634  0.24328725  0.63498880  1  -0.274368  0.039294  3.246544  0.06  -0.259894  0.030229  3.559781  0.037  -0.287274  0.023795  3.5759  0.028  -0.265109  -0.240448  0.035716  3.550727  0.044
N  N88  1  0.46970002  0.77093503  0.91718167  1  0.115538  -0.0013  3.5714  -0.001  0.242092  0.000321  3.753341  0.001  0.23637  -0.00023  3.778647  0.001  -0.14431  0.245231  0.000705  3.736357  0.001
N  N89  1  0.03029982  0.72906647  0.41718154  1  0.115519  -0.001294  3.571493  -0.001  0.242072  0.000321  3.753401  0.001  0.236349  -0.000228  3.778709  0.001  -0.144323  0.245212  0.000705  3.736413  0.001
N  N90  1  0.53030098  0.22906634  0.08281729  1  0.115516  -0.001297  3.571484  -0.001  0.242112  0.000321  3.753339  0.001  0.236391  -0.00023  3.778644  0.001  -0.144295  0.24525  0.000705  3.736355  0.001
N  N91  1  0.96969858  0.27093382  0.58281813  1  0.115536  -0.0013  3.571489  -0.001  0.242075  0.000321  3.753415  0.001  0.236353  -0.000229  3.778723  0.001  -0.144317  0.245215  0.000705  3.736427  0.001
Cl  Cl92  1  0.96771188  0.81497624  0.77807764  1  -0.540564  0.077834  0.962333  0.111  -0.51555  0.063098  1.231034  0.079  -0.552705  0.044451  1.204961  0.055  -0.293116  -0.484237  0.080982  1.248342  0.101
Cl  Cl93  1  0.53228990  0.68502456  0.27807750  1  -0.540536  0.077834  0.962324  0.111  -0.515529  0.063098  1.231035  0.079  -0.552679  0.044452  1.20496  0.055  -0.293111  -0.484213  0.080982  1.248342  0.101
Cl  Cl94  1  0.03228882  0.18502405  0.22192132  1  -0.540533  0.077833  0.962333  0.111  -0.515526  0.063097  1.231048  0.079  -0.552682  0.044451  1.20498  0.055  -0.293119  -0.484212  0.080981  1.248352  0.101
Cl  Cl95  1  0.46771049  0.31497465  0.72192216  1  -0.540539  0.077833  0.962336  0.111  -0.515532  0.063098  1.231048  0.079  -0.55269  0.044451  1.204975  0.055  -0.293117  -0.484227  0.080981  1.248353  0.101
Cl  Cl96  1  0.77772393  0.10255004  0.84697997  1  -0.535849  0.084222  0.953806  0.122  -0.522104  0.065598  1.230104  0.084  -0.56104  0.04597  1.206395  0.058  -0.304389  -0.489288  0.084186  1.246404  0.107
Cl  Cl97  1  0.72227829  0.39744927  0.34698002  1  -0.535856  0.084222  0.953836  0.122  -0.522112  0.065597  1.230126  0.084  -0.561048  0.04597  1.206428  0.058  -0.304389  -0.489294  0.084184  1.246423  0.107
Cl  Cl98  1  0.22227676  0.89745025  0.15302181  1  -0.535834  0.084223  0.953798  0.122  -0.522089  0.065599  1.230102  0.084  -0.561033  0.04597  1.206404  0.058  -0.304391  -0.489273  0.084186  1.246401  0.107
Cl  Cl99  1  0.27772324  0.60254994  0.65302176  1  -0.535835  0.084223  0.953796  0.122  -0.522097  0.065599  1.230102  0.084  -0.561041  0.04597  1.206401  0.058  -0.304394  -0.489289  0.084186  1.246399  0.107
