# generated using pymatgen
data_Cd3H28C46(S3N7)2
_symmetry_space_group_name_H-M   'P 1'
_cell_length_a   8.97257092
_cell_length_b   11.32377832
_cell_length_c   14.18151545
_cell_angle_alpha   77.03665861
_cell_angle_beta   81.30154637
_cell_angle_gamma   68.65678944
_symmetry_Int_Tables_number   1
_chemical_formula_structural   Cd3H28C46(S3N7)2
_chemical_formula_sum   'Cd3 H28 C46 S6 N14'
_cell_volume   1304.01601911
_cell_formula_units_Z   1
loop_
 _symmetry_equiv_pos_site_id
 _symmetry_equiv_pos_as_xyz
  1  'x, y, z'
loop_
 _atom_site_type_symbol
 _atom_site_label
 _atom_site_symmetry_multiplicity
 _atom_site_fract_x
 _atom_site_fract_y
 _atom_site_fract_z
 _atom_site_occupancy
 _atom_site_hle17_bader_spin_density
 _atom_site_hle17_ddec_charge
 _atom_site_hle17_ddec_spin_density
 _atom_site_hle17_ddec_sum_bond_order
 _atom_site_hle17_magmom
 _atom_site_hse06_10hf_bader_spin_density
 _atom_site_hse06_10hf_ddec_charge
 _atom_site_hse06_10hf_ddec_spin_density
 _atom_site_hse06_10hf_ddec_sum_bond_order
 _atom_site_hse06_10hf_magmom
 _atom_site_hse06_bader_spin_density
 _atom_site_hse06_ddec_charge
 _atom_site_hse06_ddec_spin_density
 _atom_site_hse06_ddec_sum_bond_order
 _atom_site_hse06_magmom
 _atom_site_pbe_bader_spin_density
 _atom_site_pbe_cm5_charge
 _atom_site_pbe_ddec_charge
 _atom_site_pbe_ddec_spin_density
 _atom_site_pbe_ddec_sum_bond_order
 _atom_site_pbe_magmom
Cd  Cd0  1  0.78382253  0.35798221  0.26572444  1  0  1.021808  0  1.996966  0  0  0.818459  0  2.478404  0  0  0.867625  0  2.433465  0  0  0.793159  0.784233  0  2.508557  0
Cd  Cd1  1  0.21618150  0.64202524  0.73427319  1  0  1.021932  0  1.996961  0  0  0.81861  0  2.478417  0  0  0.867773  0  2.433472  0  0  0.793199  0.784388  0  2.508574  0
Cd  Cd2  1  0.99999675  0.00000042  0.00000508  1  0  0.942175  0  1.986003  0  0  0.762964  0  2.446813  0  0  0.806686  0  2.413893  0  0  0.719703  0.732638  0  2.468999  0
H  H3  1  0.83612405  0.70815630  0.80292524  1  0  0.086445  0  0.907648  0  0  0.098654  0  0.960877  0  0  0.100579  0  0.959949  0  0  0.123657  0.097289  0  0.961538  0
H  H4  1  0.16386527  0.29186163  0.19707556  1  0  0.086408  0  0.907781  0  0  0.098644  0  0.960974  0  0  0.10057  0  0.960043  0  0  0.123683  0.097279  0  0.961638  0
H  H5  1  0.56394041  0.80656371  0.73476327  1  0  0.104318  0  0.9647  0  0  0.112553  0  1.026863  0  0  0.114955  0  1.027091  0  0  0.103179  0.110846  0  1.026792  0
H  H6  1  0.43605608  0.19343846  0.26522723  1  0  0.104272  0  0.964662  0  0  0.112518  0  1.026823  0  0  0.114926  0  1.027056  0  0  0.103175  0.110814  0  1.026748  0
H  H7  1  0.54974906  0.90447509  0.55914052  1  0  0.089777  0  0.943712  0  0  0.100943  0  1.004792  0  0  0.103546  0  1.003195  0  0  0.101975  0.098961  0  1.006104  0
H  H8  1  0.45025490  0.09553835  0.44085202  1  0  0.089763  0  0.94362  0  0  0.100919  0  1.004738  0  0  0.103523  0  1.003139  0  0  0.101968  0.098936  0  1.006052  0
H  H9  1  0.80207162  0.90073192  0.45637118  1  0  0.099802  0  1.01151  0  0  0.107929  0  1.078419  0  0  0.11143  0  1.076261  0  0  0.089681  0.105566  0  1.079685  0
H  H10  1  0.19793632  0.09927175  0.54362528  1  0  0.099749  0  1.011587  0  0  0.107874  0  1.078496  0  0  0.111378  0  1.076346  0  0  0.089667  0.105511  0  1.07976  0
H  H11  1  0.01663953  0.90690589  0.38348222  1  0  0.103782  0  1.003172  0  0  0.108377  0  1.077467  0  0  0.112082  0  1.075576  0  0  0.094963  0.105813  0  1.07865  0
H  H12  1  0.98335621  0.09308911  0.61651783  1  0  0.103848  0  1.0032  0  0  0.108458  0  1.077467  0  0  0.112162  0  1.075575  0  0  0.094998  0.105898  0  1.078637  0
H  H13  1  0.53066626  0.72835552  0.38496039  1  0  0.110676  0  0.992414  0  0  0.117769  0  1.060756  0  0  0.120928  0  1.059567  0  0  0.103572  0.115507  0  1.061699  0
H  H14  1  0.46934059  0.27161386  0.61503471  1  0  0.110749  0  0.992212  0  0  0.117821  0  1.060577  0  0  0.120981  0  1.059386  0  0  0.103602  0.115556  0  1.061527  0
H  H15  1  0.71210470  0.58444074  0.45993048  1  0  0.10541  0  0.985094  0  0  0.112225  0  1.052831  0  0  0.11488  0  1.052214  0  0  0.101284  0.110271  0  1.053438  0
H  H16  1  0.28790082  0.41552085  0.54006796  1  0  0.105407  0  0.985214  0  0  0.11217  0  1.052969  0  0  0.114823  0  1.052359  0  0  0.101286  0.110215  0  1.05358  0
H  H17  1  0.93087210  0.44905772  0.56890546  1  0  0.091687  0  0.949023  0  0  0.102064  0  1.010372  0  0  0.104604  0  1.00884  0  0  0.102164  0.100188  0  1.011487  0
H  H18  1  0.06912507  0.55090169  0.43109959  1  0  0.091812  0  0.948716  0  0  0.102205  0  1.010092  0  0  0.104744  0  1.008568  0  0  0.102199  0.10035  0  1.01118  0
H  H19  1  0.86232402  0.40103265  0.74770457  1  0  0.103366  0  0.989547  0  0  0.106387  0  1.062202  0  0  0.109234  0  1.062005  0  0  0.097197  0.104278  0  1.062548  0
H  H20  1  0.13767169  0.59894877  0.25229955  1  0  0.103322  0  0.989572  0  0  0.106398  0  1.062183  0  0  0.109249  0  1.061958  0  0  0.097222  0.104288  0  1.062528  0
H  H21  1  0.57420065  0.48573401  0.81057414  1  0  0.085877  0  0.907378  0  0  0.0987  0  0.959309  0  0  0.101011  0  0.957663  0  0  0.12438  0.096964  0  0.96065  0
H  H22  1  0.42579668  0.51427059  0.18942441  1  0  0.085877  0  0.907332  0  0  0.098684  0  0.959281  0  0  0.100995  0  0.957637  0  0  0.124379  0.096948  0  0.96062  0
H  H23  1  0.52093657  0.90729016  0.27890182  1  0  0.091976  0  0.983152  0  0  0.098703  0  1.053315  0  0  0.101471  0  1.051646  0  0  0.096821  0.096594  0  1.054614  0
H  H24  1  0.47908476  0.09270877  0.72109145  1  0  0.091958  0  0.98331  0  0  0.098677  0  1.053462  0  0  0.101442  0  1.051798  0  0  0.096803  0.096574  0  1.05475  0
H  H25  1  0.52951290  0.02882591  0.11079211  1  0  0.115675  0  0.968278  0  0  0.123936  0  1.0283  0  0  0.126739  0  1.02804  0  0  0.106957  0.121944  0  1.028621  0
H  H26  1  0.47047585  0.97119139  0.88920246  1  0  0.115695  0  0.968303  0  0  0.123944  0  1.028344  0  0  0.12675  0  1.028076  0  0  0.10693  0.121953  0  1.028666  0
H  H27  1  0.30090628  0.07373446  0.00769320  1  0  0.076904  0  0.957626  0  0  0.08245  0  1.027668  0  0  0.084784  0  1.025681  0  0  0.112589  0.080737  0  1.029116  0
H  H28  1  0.69906885  0.92627663  0.99231321  1  0  0.076872  0  0.957644  0  0  0.082394  0  1.027709  0  0  0.084718  0  1.025739  0  0  0.112583  0.080681  0  1.029152  0
H  H29  1  0.07474738  0.87536673  0.22677857  1  0  0.078698  0  0.969818  0  0  0.082503  0  1.04624  0  0  0.085004  0  1.043962  0  0  0.105383  0.080653  0  1.047911  0
H  H30  1  0.92526367  0.12462585  0.77322841  1  0  0.078779  0  0.969627  0  0  0.082573  0  1.046042  0  0  0.085076  0  1.043762  0  0  0.105424  0.080723  0  1.047715  0
C  C31  1  0.82318571  0.75003356  0.72603077  1  0  0.137115  0  3.702973  0  0  0.106492  0  3.956993  0  0  0.112565  0  3.975978  0  0  0.053824  0.102499  0  3.943928  0
C  C32  1  0.17682061  0.24997396  0.27396526  1  0  0.137097  0  3.703032  0  0  0.106449  0  3.957064  0  0  0.112523  0  3.976048  0  0  0.05371  0.102454  0  3.944  0
C  C33  1  0.67295614  0.80538350  0.68861655  1  0  -0.109361  0  3.73644  0  0  -0.124018  0  3.990984  0  0  -0.130185  0  4.013931  0  0  -0.080579  -0.119967  0  3.975477  0
C  C34  1  0.32704224  0.19462706  0.31137754  1  0  -0.109242  0  3.736355  0  0  -0.123924  0  3.990944  0  0  -0.130101  0  4.013899  0  0  -0.080533  -0.119874  0  3.975439  0
C  C35  1  0.66563452  0.86024716  0.59045335  1  0  -0.00314  0  3.718619  0  0  -0.022031  0  3.972219  0  0  -0.019659  0  3.991122  0  0  -0.069602  -0.023261  0  3.959614  0
C  C36  1  0.33436882  0.13975941  0.40954304  1  0  -0.003134  0  3.718435  0  0  -0.022026  0  3.972046  0  0  -0.019653  0  3.99095  0  0  -0.069605  -0.023258  0  3.959447  0
C  C37  1  0.80695964  0.85743924  0.53302438  1  0  -0.136796  0  3.701643  0  0  -0.156126  0  3.947726  0  0  -0.162062  0  3.968357  0  0  -0.083358  -0.152443  0  3.934234  0
C  C38  1  0.19305022  0.14256245  0.46697292  1  0  -0.136775  0  3.701604  0  0  -0.156061  0  3.947648  0  0  -0.162004  0  3.968284  0  0  -0.083348  -0.152376  0  3.934153  0
C  C39  1  0.95386477  0.79671818  0.57515232  1  0  0.176449  0  3.732964  0  0  0.173205  0  3.971435  0  0  0.178756  0  3.992068  0  0  0.118481  0.16941  0  3.957588  0
C  C40  1  0.04614157  0.20328630  0.42484696  1  0  0.176327  0  3.732497  0  0  0.17307  0  3.971104  0  0  0.178626  0  3.991733  0  0  0.118392  0.169274  0  3.957256  0
C  C41  1  0.11056278  0.78272221  0.51741011  1  0  0.199884  0  3.755855  0  0  0.195401  0  3.998768  0  0  0.203272  0  4.017199  0  0  0.123409  0.190123  0  3.986268  0
C  C42  1  0.88945174  0.21727668  0.48258511  1  0  0.200122  0  3.755248  0  0  0.195449  0  3.998448  0  0  0.20332  0  4.016874  0  0  0.123434  0.190172  0  3.985946  0
C  C43  1  0.12299171  0.84237552  0.42028042  1  0  -0.173704  0  3.641843  0  0  -0.200448  0  3.892081  0  0  -0.207602  0  3.911461  0  0  -0.076837  -0.195892  0  3.879186  0
C  C44  1  0.87702297  0.15761449  0.57972029  1  0  -0.173813  0  3.641607  0  0  -0.200495  0  3.891881  0  0  -0.207646  0  3.911259  0  0  -0.076915  -0.195942  0  3.878991  0
C  C45  1  0.27550909  0.82256188  0.37090372  1  0  0.124869  0  3.754267  0  0  0.135189  0  3.986632  0  0  0.140529  0  4.009106  0  0  0.01493  0.131756  0  3.971817  0
C  C46  1  0.72450841  0.17743182  0.62909906  1  0  0.124664  0  3.754184  0  0  0.13492  0  3.986628  0  0  0.140257  0  4.009105  0  0  0.014845  0.131484  0  3.97182  0
C  C47  1  0.41096046  0.74428539  0.42137832  1  0  -0.169504  0  3.624269  0  0  -0.194818  0  3.868096  0  0  -0.201824  0  3.887464  0  0  -0.074842  -0.190486  0  3.855584  0
C  C48  1  0.58905543  0.25569744  0.57861344  1  0  -0.169391  0  3.623701  0  0  -0.194674  0  3.867584  0  0  -0.201676  0  3.886956  0  0  -0.074761  -0.190342  0  3.855075  0
C  C49  1  0.38977841  0.68877649  0.51879943  1  0  0.197201  0  3.764802  0  0  0.191748  0  4.01058  0  0  0.199457  0  4.029454  0  0  0.123227  0.186592  0  3.997768  0
C  C50  1  0.61021781  0.31122080  0.48119320  1  0  0.197061  0  3.764591  0  0  0.191591  0  4.010393  0  0  0.199291  0  4.02926  0  0  0.123032  0.186436  0  3.99758  0
C  C51  1  0.52649939  0.60720450  0.57878600  1  0  0.171307  0  3.740914  0  0  0.166468  0  3.984338  0  0  0.17209  0  4.005136  0  0  0.11677  0.162727  0  3.97017  0
C  C52  1  0.47351462  0.39278470  0.42121205  1  0  0.171609  0  3.740764  0  0  0.166708  0  3.984245  0  0  0.172346  0  4.00501  0  0  0.116866  0.162961  0  3.97008  0
C  C53  1  0.68464354  0.56216823  0.53790628  1  0  -0.132037  0  3.68195  0  0  -0.151304  0  3.9328  0  0  -0.15716  0  3.953758  0  0  -0.078933  -0.147584  0  3.918961  0
C  C54  1  0.31537222  0.43780081  0.46209383  1  0  -0.132294  0  3.682022  0  0  -0.151422  0  3.932851  0  0  -0.157278  0  3.953801  0  0  -0.079002  -0.1477  0  3.91902  0
C  C55  1  0.80695076  0.48732136  0.59843724  1  0  0.004501  0  3.704431  0  0  -0.014758  0  3.955006  0  0  -0.012011  0  3.974017  0  0  -0.067753  -0.016257  0  3.942201  0
C  C56  1  0.19305676  0.51264576  0.40156449  1  0  0.004385  0  3.704461  0  0  -0.014951  0  3.955118  0  0  -0.012212  0  3.974145  0  0  -0.067819  -0.016467  0  3.94229  0
C  C57  1  0.76990162  0.45917832  0.69811941  1  0  -0.108966  0  3.720827  0  0  -0.122316  0  3.973516  0  0  -0.128813  0  3.995886  0  0  -0.078797  -0.118083  0  3.958632  0
C  C58  1  0.23009761  0.54081074  0.30188405  1  0  -0.108796  0  3.720803  0  0  -0.1222  0  3.97352  0  0  -0.128688  0  3.995893  0  0  -0.078741  -0.117971  0  3.95864  0
C  C59  1  0.60979277  0.50615701  0.73322123  1  0  0.132767  0  3.71125  0  0  0.102883  0  3.962043  0  0  0.109034  0  3.980394  0  0  0.052528  0.098785  0  3.949672  0
C  C60  1  0.39021010  0.49383687  0.26678055  1  0  0.132769  0  3.711291  0  0  0.102908  0  3.962116  0  0  0.10906  0  3.980472  0  0  0.052505  0.098809  0  3.949741  0
C  C61  1  0.29254769  0.88616150  0.26906251  1  0  -0.010498  0  3.748364  0  0  0.012281  0  3.974112  0  0  0.006058  0  3.997817  0  0  -0.004677  0.016025  0  3.958382  0
C  C62  1  0.70744820  0.11383812  0.73094040  1  0  -0.010474  0  3.748537  0  0  0.012395  0  3.974166  0  0  0.006173  0  3.997871  0  0  -0.004645  0.01614  0  3.958438  0
C  C63  1  0.42401808  0.92660518  0.23320639  1  0  -0.030256  0  3.68173  0  0  -0.055087  0  3.921093  0  0  -0.051799  0  3.940163  0  0  -0.061067  -0.056824  0  3.908121  0
C  C64  1  0.57598211  0.07339271  0.76679220  1  0  -0.030203  0  3.682174  0  0  -0.055026  0  3.921482  0  0  -0.051734  0  3.94055  0  0  -0.061029  -0.056764  0  3.908514  0
C  C65  1  0.42987307  0.99415036  0.13858043  1  0  -0.115976  0  3.720499  0  0  -0.122374  0  3.962789  0  0  -0.130556  0  3.985371  0  0  -0.081794  -0.117203  0  3.947507  0
C  C66  1  0.57010931  0.00586601  0.86141477  1  0  -0.115919  0  3.720469  0  0  -0.122341  0  3.962765  0  0  -0.130523  0  3.985342  0  0  -0.081738  -0.117173  0  3.947488  0
C  C67  1  0.30521572  0.01836346  0.08142371  1  0  0.130897  0  3.700786  0  0  0.098625  0  3.949511  0  0  0.105914  0  3.968367  0  0  0.049847  0.094101  0  3.936449  0
C  C68  1  0.69476693  0.98165165  0.91857730  1  0  0.130855  0  3.700526  0  0  0.098629  0  3.949226  0  0  0.105924  0  3.968073  0  0  0.049828  0.094107  0  3.93616  0
C  C69  1  0.17549902  0.91063767  0.20488581  1  0  0.096558  0  3.666875  0  0  0.059517  0  3.914115  0  0  0.066566  0  3.932569  0  0  0.052425  0.05501  0  3.9017  0
C  C70  1  0.82449672  0.08936776  0.79511558  1  0  0.096493  0  3.666595  0  0  0.05944  0  3.913838  0  0  0.066489  0  3.93229  0  0  0.052349  0.054932  0  3.901425  0
C  C71  1  0.80551911  0.64520582  0.28281558  1  0  0.293931  0  4.081506  0  0  0.277447  0  4.380427  0  0  0.300554  0  4.392646  0  0  0.131364  0.261698  0  4.371692  0
C  C72  1  0.19446836  0.35480073  0.71718417  1  0  0.294074  0  4.080652  0  0  0.277607  0  4.379573  0  0  0.300723  0  4.391785  0  0  0.131432  0.261853  0  4.370844  0
C  C73  1  0.89245047  0.30596579  0.03920646  1  0  0.328985  0  4.021403  0  0  0.309387  0  4.317126  0  0  0.332798  0  4.330442  0  0  0.1498  0.293481  0  4.307644  0
C  C74  1  0.10753791  0.69404334  0.96079849  1  0  0.328822  0  4.020787  0  0  0.309231  0  4.316538  0  0  0.332643  0  4.329855  0  0  0.149646  0.293325  0  4.307057  0
C  C75  1  0.77435987  0.07102910  0.19482079  1  0  0.308951  0  4.009881  0  0  0.289068  0  4.313329  0  0  0.310579  0  4.327653  0  0  0.143305  0.274175  0  4.303449  0
C  C76  1  0.22564110  0.92897416  0.80518474  1  0  0.308826  0  4.010164  0  0  0.288935  0  4.313619  0  0  0.310451  0  4.327952  0  0  0.143231  0.27404  0  4.303736  0
S  S77  1  0.82666720  0.76771649  0.31287689  1  0  -0.379265  0  2.121529  0  0  -0.355795  0  2.436339  0  0  -0.372745  0  2.432148  0  0  -0.161917  -0.342985  0  2.438478  0
S  S78  1  0.17331923  0.23228718  0.68712335  1  0  -0.379168  0  2.12154  0  0  -0.355716  0  2.436344  0  0  -0.372664  0  2.432156  0  0  -0.161855  -0.342906  0  2.43848  0
S  S79  1  0.02153695  0.74372959  0.06136826  1  0  -0.339344  0  2.137327  0  0  -0.310978  0  2.444892  0  0  -0.328852  0  2.438547  0  0  -0.149637  -0.298631  0  2.448847  0
S  S80  1  0.97844564  0.25628230  0.93863957  1  0  -0.339494  0  2.137522  0  0  -0.31113  0  2.445083  0  0  -0.329012  0  2.438757  0  0  -0.149783  -0.298776  0  2.449024  0
S  S81  1  0.75908981  0.09942845  0.30402118  1  0  -0.362232  0  2.167168  0  0  -0.33544  0  2.49896  0  0  -0.35119  0  2.492312  0  0  -0.147766  -0.323548  0  2.502755  0
S  S82  1  0.24092598  0.90057935  0.69598607  1  0  -0.362065  0  2.167254  0  0  -0.335268  0  2.499049  0  0  -0.351013  0  2.492398  0  0  -0.147699  -0.32338  0  2.502846  0
N  N83  1  0.95931009  0.74531296  0.67080209  1  0  -0.347547  0  3.249279  0  0  -0.278297  0  3.508633  0  0  -0.296424  0  3.527859  0  0  -0.320952  -0.265757  0  3.495308  0
N  N84  1  0.04069083  0.25469943  0.32919295  1  0  -0.347431  0  3.248669  0  0  -0.278139  0  3.508001  0  0  -0.296264  0  3.527226  0  0  -0.320806  -0.265598  0  3.494673  0
N  N85  1  0.24231790  0.70833010  0.56374876  1  0  -0.383087  0  3.272599  0  0  -0.318195  0  3.522955  0  0  -0.336176  0  3.540072  0  0  -0.327355  -0.305797  0  3.510965  0
N  N86  1  0.75769230  0.29167662  0.43624355  1  0  -0.383087  0  3.272015  0  0  -0.318054  0  3.52236  0  0  -0.336046  0  3.53951  0  0  -0.327173  -0.305661  0  3.510379  0
N  N87  1  0.49154199  0.57792721  0.67538060  1  0  -0.35281  0  3.263015  0  0  -0.282319  0  3.522555  0  0  -0.300537  0  3.54178  0  0  -0.321225  -0.270011  0  3.509291  0
N  N88  1  0.50845757  0.42207731  0.32461921  1  0  -0.352953  0  3.263071  0  0  -0.282458  0  3.522644  0  0  -0.300682  0  3.541868  0  0  -0.321256  -0.270149  0  3.509381  0
N  N89  1  0.18235727  0.97480118  0.11362002  1  0  -0.315416  0  3.288908  0  0  -0.235628  0  3.546939  0  0  -0.256505  0  3.569505  0  0  -0.325243  -0.221441  0  3.531209  0
N  N90  1  0.81763753  0.02521635  0.88638746  1  0  -0.315419  0  3.28865  0  0  -0.23564  0  3.54669  0  0  -0.256515  0  3.569251  0  0  -0.325213  -0.22145  0  3.530957  0
N  N91  1  0.78586754  0.55664249  0.26165092  1  0  -0.567206  0  2.893467  0  0  -0.507788  0  3.171263  0  0  -0.529565  0  3.174185  0  0  -0.421628  -0.492786  0  3.169097  0
N  N92  1  0.21412898  0.44337876  0.73835802  1  0  -0.567463  0  2.892738  0  0  -0.508053  0  3.170585  0  0  -0.529837  0  3.173499  0  0  -0.421734  -0.493045  0  3.168423  0
N  N93  1  0.83014032  0.34428942  0.11143492  1  0  -0.559283  0  2.931849  0  0  -0.491424  0  3.205444  0  0  -0.514649  0  3.208467  0  0  -0.414441  -0.475901  0  3.203374  0
N  N94  1  0.16984914  0.65572574  0.88856414  1  0  -0.559301  0  2.931378  0  0  -0.491455  0  3.20499  0  0  -0.514681  0  3.208014  0  0  -0.414441  -0.475934  0  3.202922  0
N  N95  1  0.78437978  0.05014725  0.11535231  1  0  -0.544246  0  2.853099  0  0  -0.491691  0  3.123685  0  0  -0.51206  0  3.13094  0  0  -0.398258  -0.477677  0  3.118721  0
N  N96  1  0.21560586  0.94987003  0.88466157  1  0  -0.544238  0  2.853208  0  0  -0.49168  0  3.123814  0  0  -0.512058  0  3.131078  0  0  -0.398208  -0.477663  0  3.118849  0
