# generated using pymatgen
data_ZnH40C52(N5O2)2
_symmetry_space_group_name_H-M   'P 1'
_cell_length_a   12.79600104
_cell_length_b   13.76050378
_cell_length_c   14.98963716
_cell_angle_alpha   87.88006497
_cell_angle_beta   84.21365652
_cell_angle_gamma   63.37775272
_symmetry_Int_Tables_number   1
_chemical_formula_structural   ZnH40C52(N5O2)2
_chemical_formula_sum   'Zn2 H80 C104 N20 O8'
_cell_volume   2347.41994394
_cell_formula_units_Z   2
loop_
 _symmetry_equiv_pos_site_id
 _symmetry_equiv_pos_as_xyz
  1  'x, y, z'
loop_
 _atom_site_type_symbol
 _atom_site_label
 _atom_site_symmetry_multiplicity
 _atom_site_fract_x
 _atom_site_fract_y
 _atom_site_fract_z
 _atom_site_occupancy
 _atom_site_pbe_bader_charge
 _atom_site_pbe_bader_spin_density
 _atom_site_pbe_cm5_charge
 _atom_site_pbe_ddec_charge
 _atom_site_pbe_ddec_spin_density
 _atom_site_pbe_ddec_sum_bond_order
 _atom_site_pbe_magmom
Zn  Zn0  1  0.27881830  0.94429214  0.73981481  1  1.273407  0  0.705223  0.683362  0  2.499281  0
Zn  Zn1  1  0.72118424  0.05570954  0.26018724  1  1.273424  0  0.705244  0.683341  0  2.499251  0
H  H2  1  0.26319251  0.30226168  0.86807581  1  0.119304  0  0.111957  0.12453  0  1.025342  0
H  H3  1  0.73680808  0.69774082  0.13192437  1  0.11936  0  0.111941  0.12452  0  1.025363  0
H  H4  1  0.31274712  0.15088633  0.75933101  1  0.082155  0  0.112234  0.074869  0  1.049341  0
H  H5  1  0.68725543  0.84911535  0.24066771  1  0.082136  0  0.112212  0.074826  0  1.049335  0
H  H6  1  0.16212512  0.00092897  0.93459359  1  0.110894  0  0.11645  0.092222  0  0.989824  0
H  H7  1  0.83787782  0.99907026  0.06540318  1  0.110909  0  0.116456  0.092213  0  0.989831  0
H  H8  1  0.11035483  0.14153058  0.05258850  1  0.101229  0  0.104671  0.113598  0  1.047923  0
H  H9  1  0.88964615  0.85846947  0.94740907  1  0.101204  0  0.104657  0.113601  0  1.047895  0
H  H10  1  0.04894370  0.35654335  0.05759918  1  0.085732  0  0.107096  0.081017  0  1.019106  0
H  H11  1  0.95105608  0.64345427  0.94240124  1  0.085727  0  0.107107  0.081024  0  1.019117  0
H  H12  1  0.19105422  0.29778738  0.09629555  1  0.084266  0  0.109522  0.085519  0  0.99196  0
H  H13  1  0.80894595  0.70221106  0.90370481  1  0.084228  0  0.109508  0.085522  0  0.991974  0
H  H14  1  0.06839773  0.45926247  0.16584115  1  0.078822  0  0.106093  0.119308  0  1.013033  0
H  H15  1  0.93160204  0.54073516  0.83416127  1  0.078304  0  0.106024  0.119237  0  1.013072  0
H  H16  1  0.02851932  0.62786931  0.24434543  1  0.07999  0  0.097715  0.091405  0  1.036098  0
H  H17  1  0.97148241  0.37212750  0.75565686  1  0.08004  0  0.097708  0.091376  0  1.036074  0
H  H18  1  0.07296507  0.77066345  0.16391420  1  0.034262  0  0.095651  0.096888  0  1.022874  0
H  H19  1  0.92703509  0.22933500  0.83609083  1  0.034335  0  0.095685  0.096926  0  1.022823  0
H  H20  1  0.15340848  0.74162178  0.00497272  1  0.094577  0  0.097749  0.099216  0  1.013696  0
H  H21  1  0.84659207  0.25837586  0.99503231  1  0.093563  0  0.097728  0.099178  0  1.013704  0
H  H22  1  0.06394019  0.70822247  0.85623512  1  0.04571  0  0.094999  0.089544  0  1.052014  0
H  H23  1  0.93605289  0.29177275  0.14376929  1  0.04563  0  0.095  0.08958  0  1.052047  0
H  H24  1  0.14215574  0.68957086  0.69633456  1  0.059619  0  0.091763  0.086466  0  1.045925  0
H  H25  1  0.85783498  0.31042437  0.30366938  1  0.059951  0  0.091778  0.086531  0  1.045878  0
H  H26  1  0.33417634  0.53353762  0.64716096  1  0.069229  0  0.097968  0.096967  0  1.00582  0
H  H27  1  0.66581598  0.46646409  0.35284062  1  0.069184  0  0.097989  0.096969  0  1.005799  0
H  H28  1  0.44855340  0.40024676  0.75833772  1  0.097634  0  0.101086  0.111871  0  1.059464  0
H  H29  1  0.55144483  0.59975574  0.24166133  1  0.097618  0  0.101107  0.111885  0  1.059357  0
H  H30  1  0.55598238  0.37105861  0.88372531  1  0.053154  0  0.106779  0.084484  0  0.968625  0
H  H31  1  0.44401898  0.62893901  0.11627231  1  0.052968  0  0.106758  0.084398  0  0.968731  0
H  H32  1  0.49970293  0.27724695  0.86301319  1  0.084082  0  0.105723  0.088917  0  1.000284  0
H  H33  1  0.50029450  0.72275232  0.13698804  1  0.084105  0  0.105737  0.088925  0  1.000224  0
H  H34  1  0.63508285  0.37026700  0.02611688  1  0.096537  0  0.107743  0.115809  0  1.030726  0
H  H35  1  0.36491340  0.62973307  0.97388242  1  0.096558  0  0.10772  0.115779  0  1.030665  0
H  H36  1  0.70681209  0.26917249  0.16727828  1  0.119664  0  0.111354  0.081021  0  1.041425  0
H  H37  1  0.29318771  0.73083001  0.83272197  1  0.119683  0  0.111356  0.081029  0  1.041465  0
H  H38  1  0.53204099  0.08303201  0.14194460  1  0.098259  0  0.117485  0.087884  0  0.996192  0
H  H39  1  0.46796350  0.91696560  0.85805676  1  0.098293  0  0.117474  0.087857  0  0.996182  0
H  H40  1  0.45781353  0.17207342  0.99681406  1  0.075415  0  0.109911  0.11984  0  0.992079  0
H  H41  1  0.54219370  0.82792013  0.00318654  1  0.075512  0  0.109933  0.119799  0  0.992102  0
H  H42  1  0.93295120  0.30121105  0.63630045  1  0.114699  0  0.111188  0.123852  0  1.01798  0
H  H43  1  0.06704428  0.69879227  0.36370014  1  0.114732  0  0.111187  0.12382  0  1.018046  0
H  H44  1  0.04326499  0.14459893  0.73593380  1  0.090643  0  0.110511  0.075365  0  1.039353  0
H  H45  1  0.95673206  0.85540439  0.26406665  1  0.090682  0  0.110485  0.075344  0  1.039379  0
H  H46  1  0.31600744  0.00067620  0.53747983  1  0.131054  0  0.114015  0.085124  0  1.014197  0
H  H47  1  0.68398842  0.99932631  0.46252009  1  0.131151  0  0.114048  0.085182  0  1.014216  0
H  H48  1  0.21501392  0.14497936  0.42833774  1  0.11836  0  0.108931  0.124483  0  1.024035  0
H  H49  1  0.78498077  0.85502396  0.57166224  1  0.118353  0  0.108946  0.124511  0  1.024129  0
H  H50  1  0.07645147  0.35580932  0.43347339  1  0.087777  0  0.108801  0.084222  0  1.014578  0
H  H51  1  0.92354636  0.64419238  0.56652839  1  0.087747  0  0.108802  0.084216  0  1.01454  0
H  H52  1  0.97821852  0.30524720  0.40675278  1  0.082723  0  0.105776  0.081523  0  1.003757  0
H  H53  1  0.02177970  0.69475531  0.59324827  1  0.082726  0  0.105778  0.081537  0  1.003757  0
H  H54  1  0.95832725  0.46140744  0.33787397  1  0.093781  0  0.104698  0.118406  0  1.018868  0
H  H55  1  0.04167058  0.53859425  0.66212647  1  0.093749  0  0.104708  0.118381  0  1.018889  0
H  H56  1  0.83893291  0.63171072  0.26262224  1  0.062693  0  0.095586  0.089782  0  1.031841  0
H  H57  1  0.16106532  0.36829016  0.73737687  1  0.062736  0  0.095536  0.089759  0  1.031794  0
H  H58  1  0.66711559  0.78172363  0.34902025  1  0.061137  0  0.090594  0.084197  0  1.064556  0
H  H59  1  0.33288263  0.21827725  0.65097886  1  0.061198  0  0.090616  0.084222  0  1.06454  0
H  H60  1  0.62078793  0.75788500  0.50916848  1  0.068661  0  0.10042  0.103708  0  1.007403  0
H  H61  1  0.37921068  0.24211669  0.49083190  1  0.068648  0  0.100408  0.103669  0  1.0074  0
H  H62  1  0.74857935  0.72015437  0.65620816  1  0.078012  0  0.098346  0.105109  0  1.037977  0
H  H63  1  0.25142005  0.27984570  0.34379155  1  0.077999  0  0.098358  0.105127  0  1.037981  0
H  H64  1  0.67957134  0.71048519  0.81371412  1  0.053037  0  0.092739  0.089804  0  1.033441  0
H  H65  1  0.32042844  0.28951406  0.18628625  1  0.053025  0  0.092736  0.089824  0  1.033395  0
H  H66  1  0.61846005  0.56625259  0.86231628  1  0.063214  0  0.094605  0.09361  0  1.018628  0
H  H67  1  0.38154014  0.43374747  0.13768269  1  0.063174  0  0.094593  0.093594  0  1.018639  0
H  H68  1  0.61830104  0.43873481  0.75030107  1  0.083058  0  0.097254  0.101568  0  1.057781  0
H  H69  1  0.38169954  0.56126444  0.24969789  1  0.083054  0  0.097265  0.10158  0  1.057766  0
H  H70  1  0.54463137  0.40884786  0.61879971  1  0.038198  0  0.106077  0.082718  0  0.987157  0
H  H71  1  0.45536568  0.59115545  0.38119941  1  0.038241  0  0.106069  0.082711  0  0.987133  0
H  H72  1  0.68430961  0.31103606  0.64946807  1  0.083459  0  0.107027  0.089452  0  0.986623  0
H  H73  1  0.31568782  0.68896319  0.35053116  1  0.083456  0  0.107029  0.089448  0  0.986578  0
H  H74  1  0.84553583  0.20742912  0.51888946  1  0.088195  0  0.109535  0.120131  0  1.004066  0
H  H75  1  0.15445885  0.79257422  0.48111386  1  0.088226  0  0.109534  0.120132  0  1.00396  0
H  H76  1  0.87179336  0.10067862  0.37957379  1  0.097691  0  0.116124  0.084613  0  1.002438  0
H  H77  1  0.12820368  0.89932308  0.62042739  1  0.097609  0  0.116121  0.084573  0  1.002441  0
H  H78  1  0.51775616  0.26326931  0.34453567  1  0.110699  0  0.114862  0.086145  0  1.029581  0
H  H79  1  0.48224325  0.73673400  0.65546326  1  0.110719  0  0.114824  0.08612  0  1.029557  0
H  H80  1  0.47662353  0.37891869  0.48160676  1  0.111741  0  0.108266  0.1173  0  1.036803  0
H  H81  1  0.52337392  0.62108544  0.51839163  1  0.111805  0  0.10828  0.117328  0  1.036796  0
C  C82  1  0.03078023  0.92787988  0.79546550  1  1.525807  0  0.298644  0.438777  0  4.295614  0
C  C83  1  0.96923642  0.07211366  0.20454098  1  1.525973  0  0.29882  0.438959  0  4.29547  0
C  C84  1  0.90182376  0.86039260  0.76326449  1  1.469982  0  0.267788  0.401121  0  4.314631  0
C  C85  1  0.09819371  0.13960254  0.23673386  1  1.469625  0  0.267706  0.40104  0  4.31486  0
C  C86  1  0.49573268  0.99625817  0.66513312  1  1.53059  0  0.303147  0.445626  0  4.275175  0
C  C87  1  0.50426516  0.00374189  0.33486204  1  1.530748  0  0.303095  0.445583  0  4.275082  0
C  C88  1  0.57174907  0.11783230  0.67420274  1  1.445137  0  0.265551  0.408325  0  4.309092  0
C  C89  1  0.42824527  0.88217019  0.32578329  1  1.444751  0  0.265761  0.408724  0  4.308811  0
C  C90  1  0.24042998  0.23633002  0.88592475  1  -0.004331  0  -0.086419  -0.184304  0  3.945081  0
C  C91  1  0.75957100  0.76367166  0.11407409  1  -0.004532  0  -0.086411  -0.184261  0  3.945053  0
C  C92  1  0.26714061  0.15286642  0.82503031  1  0.459  0  0.044595  0.092736  0  3.967974  0
C  C93  1  0.73286155  0.84713607  0.17496908  1  0.459309  0  0.044681  0.092812  0  3.967913  0
C  C94  1  0.18389408  0.06877682  0.92314828  1  0.492293  0  0.045694  0.097538  0  3.948566  0
C  C95  1  0.81611162  0.93122322  0.07684756  1  0.492066  0  0.045659  0.097558  0  3.948387  0
C  C96  1  0.15458824  0.14829168  0.98828221  1  0.012055  0  -0.085384  -0.18081  0  3.940675  0
C  C97  1  0.84541197  0.85171162  0.01171464  1  0.012004  0  -0.085355  -0.180823  0  3.940451  0
C  C98  1  0.18096975  0.23567366  0.96925451  1  -0.074763  0  0.014478  0.143202  0  3.939892  0
C  C99  1  0.81903201  0.76432803  0.03074627  1  -0.074686  0  0.014447  0.14314  0  3.939836  0
C  C100  1  0.14321720  0.32664932  0.03585915  1  0.4242  0  -0.0538  -0.024726  0  3.897918  0
C  C101  1  0.85678299  0.67335074  0.96413982  1  0.42423  0  -0.053804  -0.02474  0  3.897907  0
C  C102  1  0.13853326  0.50268172  0.04162260  1  0.423176  0  0.086123  0.212794  0  4.021818  0
C  C103  1  0.86146809  0.49731753  0.95837963  1  0.423167  0  0.086151  0.212747  0  4.021799  0
C  C104  1  0.08822465  0.52037867  0.13039226  1  -0.043645  0  -0.107118  -0.206996  0  3.997496  0
C  C105  1  0.91177473  0.47961978  0.86961084  1  -0.04274  0  -0.107132  -0.206991  0  3.997473  0
C  C106  1  0.06543462  0.61635037  0.17463067  1  0.015774  0  -0.094261  -0.056768  0  4.033162  0
C  C107  1  0.93456397  0.38364808  0.82537249  1  0.0153  0  -0.094254  -0.056725  0  4.033102  0
C  C108  1  0.08975511  0.69563944  0.13021915  1  -0.050267  0  -0.111616  -0.118431  0  4.063304  0
C  C109  1  0.91024545  0.30435820  0.86978320  1  -0.050153  0  -0.111603  -0.118445  0  4.063343  0
C  C110  1  0.13614087  0.67902533  0.04065722  1  -0.110466  0  -0.09714  -0.126423  0  4.027426  0
C  C111  1  0.86386009  0.32097311  0.95934508  1  -0.109471  0  -0.097159  -0.126445  0  4.027474  0
C  C112  1  0.16288990  0.58262185  0.99492591  1  0.027356  0  -0.022718  -0.033663  0  4.006868  0
C  C113  1  0.83711144  0.41737578  0.00507704  1  0.02729  0  -0.022733  -0.033618  0  4.006738  0
C  C114  1  0.21132859  0.56778335  0.89950223  1  -0.000514  0  -0.022221  -0.030656  0  4.005696  0
C  C115  1  0.78867158  0.43221510  0.10050013  1  -0.000206  0  -0.022212  -0.030637  0  4.00565  0
C  C116  1  0.14918197  0.64154954  0.83493346  1  -0.07382  0  -0.09608  -0.125946  0  4.01305  0
C  C117  1  0.85081742  0.35844890  0.16506896  1  -0.07367  0  -0.096077  -0.125991  0  4.012917  0
C  C118  1  0.19320679  0.63120684  0.74490266  1  -0.0682  0  -0.108801  -0.111061  0  4.053651  0
C  C119  1  0.80678511  0.36879082  0.25510176  1  -0.068589  0  -0.108865  -0.111165  0  4.05343  0
C  C120  1  0.30097256  0.54439027  0.71782760  1  0.023914  0  -0.091811  -0.048574  0  4.025788  0
C  C121  1  0.69902487  0.45561061  0.28217358  1  0.023851  0  -0.091803  -0.048557  0  4.025676  0
C  C122  1  0.36583390  0.46946647  0.78047499  1  -0.068936  0  -0.113478  -0.230442  0  4.014953  0
C  C123  1  0.63416195  0.53053117  0.21952510  1  -0.06896  0  -0.113513  -0.230448  0  4.014844  0
C  C124  1  0.32225511  0.48229214  0.87097404  1  0.437385  0  0.080208  0.206526  0  4.040805  0
C  C125  1  0.67774625  0.51770874  0.12902880  1  0.43704  0  0.080163  0.206464  0  4.040919  0
C  C126  1  0.50012786  0.33373477  0.91307778  1  0.410157  0  -0.05686  -0.02243  0  3.879374  0
C  C127  1  0.49987191  0.66625961  0.08692208  1  0.41047  0  -0.056847  -0.022349  0  3.879512  0
C  C128  1  0.54368908  0.27666581  0.99864805  1  -0.000588  0  0.011735  0.137958  0  3.957161  0
C  C129  1  0.45631424  0.72333100  0.00135210  1  -0.000422  0  0.011656  0.137951  0  3.957274  0
C  C130  1  0.61168325  0.30580899  0.04870081  1  -0.00407  0  -0.080036  -0.179048  0  3.933156  0
C  C131  1  0.38831812  0.69419351  0.95129864  1  -0.004067  0  -0.079998  -0.179055  0  3.933191  0
C  C132  1  0.65099636  0.25055642  0.12766095  1  0.48316  0  0.050456  0.103281  0  3.929256  0
C  C133  1  0.34900540  0.74944202  0.87233794  1  0.482847  0  0.050477  0.103308  0  3.929193  0
C  C134  1  0.55400006  0.14605095  0.11261591  1  0.51953  0  0.048451  0.0926  0  3.969891  0
C  C135  1  0.44600640  0.85394423  0.88738270  1  0.519402  0  0.04844  0.092642  0  3.969831  0
C  C136  1  0.51292618  0.19594276  0.03255579  1  -0.058665  0  -0.078068  -0.166742  0  3.924765  0
C  C137  1  0.48707753  0.80405323  0.96744302  1  -0.058732  0  -0.078023  -0.166686  0  3.924729  0
C  C138  1  0.01692138  0.23520989  0.61183629  1  -0.007206  0  -0.088806  -0.188948  0  3.953037  0
C  C139  1  0.98307918  0.76478611  0.38816412  1  -0.007414  0  -0.088833  -0.188937  0  3.952872  0
C  C140  1  0.07825330  0.14938099  0.66748870  1  0.510654  0  0.042094  0.091708  0  3.96972  0
C  C141  1  0.92174530  0.85061745  0.33251180  1  0.510665  0  0.042158  0.091757  0  3.969491  0
C  C142  1  0.23019648  0.06784646  0.55690501  1  0.445943  0  0.045392  0.095756  0  3.949175  0
C  C143  1  0.76979821  0.93215524  0.44309437  1  0.445778  0  0.045388  0.095689  0  3.949154  0
C  C144  1  0.17415471  0.14937627  0.49644965  1  -0.016303  0  -0.080493  -0.175635  0  3.924827  0
C  C145  1  0.82584194  0.85062461  0.50355092  1  -0.016297  0  -0.080506  -0.175672  0  3.92498  0
C  C146  1  0.06659424  0.23717368  0.52477999  1  -0.07134  0  0.014902  0.143951  0  3.933415  0
C  C147  1  0.93340240  0.76282721  0.47522125  1  -0.071262  0  0.014884  0.143932  0  3.933469  0
C  C148  1  0.01014156  0.33056691  0.46303654  1  0.423575  0  -0.056501  -0.025914  0  3.903062  0
C  C149  1  0.98985587  0.66943398  0.53696463  1  0.423693  0  -0.056468  -0.025892  0  3.902918  0
C  C150  1  0.85487933  0.51114324  0.46624384  1  0.441768  0  0.085586  0.215544  0  4.014974  0
C  C151  1  0.14512009  0.48886007  0.53375375  1  0.441421  0  0.085548  0.215433  0  4.015117  0
C  C152  1  0.88423819  0.52569050  0.37596417  1  -0.000659  0  -0.110764  -0.215611  0  4.006598  0
C  C153  1  0.11575808  0.47431282  0.62403635  1  -0.000733  0  -0.110834  -0.215588  0  4.006553  0
C  C154  1  0.81661978  0.62277253  0.33351843  1  -0.101206  0  -0.096696  -0.058724  0  4.037807  0
C  C155  1  0.18337768  0.37722997  0.66647802  1  -0.101207  0  -0.096593  -0.058742  0  4.037878  0
C  C156  1  0.72164573  0.70604285  0.38094294  1  -0.044533  0  -0.110991  -0.112181  0  4.058459  0
C  C157  1  0.27834975  0.29395885  0.61905570  1  -0.044507  0  -0.110975  -0.112063  0  4.058399  0
C  C158  1  0.69471864  0.69248133  0.47153905  1  -0.022825  0  -0.093432  -0.118166  0  4.01253  0
C  C159  1  0.30527684  0.30752199  0.52845954  1  -0.022922  0  -0.093468  -0.118235  0  4.012547  0
C  C160  1  0.75912226  0.59546448  0.51572961  1  -0.020598  0  -0.021959  -0.034585  0  4.005983  0
C  C161  1  0.24087519  0.40453803  0.48426884  1  -0.02046  0  -0.021913  -0.034491  0  4.005967  0
C  C162  1  0.72474479  0.58465445  0.61160922  1  0.027295  0  -0.021482  -0.029639  0  4.006562  0
C  C163  1  0.27525266  0.41534806  0.38838923  1  0.027254  0  -0.021523  -0.029722  0  4.006683  0
C  C164  1  0.72020609  0.65800807  0.67587859  1  -0.066297  0  -0.092929  -0.119764  0  3.989437  0
C  C165  1  0.27979331  0.34199200  0.32412245  1  -0.066329  0  -0.092941  -0.119737  0  3.989371  0
C  C166  1  0.68141172  0.65246006  0.76547493  1  -0.022981  0  -0.107789  -0.107195  0  4.052362  0
C  C167  1  0.31859083  0.34753999  0.23452384  1  -0.022682  0  -0.10777  -0.107195  0  4.052338  0
C  C168  1  0.64631024  0.57269716  0.79213890  1  -0.02094  0  -0.097342  -0.057049  0  4.039973  0
C  C169  1  0.35369073  0.42730128  0.20785872  1  -0.021193  0  -0.097353  -0.057065  0  4.040008  0
C  C170  1  0.64801615  0.49944430  0.72925675  1  -0.093668  0  -0.117527  -0.230738  0  4.034703  0
C  C171  1  0.35198482  0.50055576  0.27074349  1  -0.093646  0  -0.117524  -0.230734  0  4.03473  0
C  C172  1  0.68641961  0.50574886  0.63947520  1  0.439854  0  0.079766  0.204664  0  4.045811  0
C  C173  1  0.31358176  0.49425201  0.36052364  1  0.439914  0  0.079769  0.204676  0  4.046  0
C  C174  1  0.63865686  0.36536113  0.59558329  1  0.45193  0  -0.059225  -0.024629  0  3.894654  0
C  C175  1  0.36134176  0.63464057  0.40441709  1  0.451851  0  -0.059174  -0.024488  0  3.894433  0
C  C176  1  0.65777642  0.30085471  0.51195129  1  0.021699  0  0.014844  0.145848  0  3.947443  0
C  C177  1  0.34221944  0.69914780  0.48804929  1  0.021695  0  0.014847  0.145818  0  3.947362  0
C  C178  1  0.77065992  0.22275959  0.48186354  1  -0.011352  0  -0.078418  -0.162325  0  3.919191  0
C  C179  1  0.22933711  0.77724048  0.51813769  1  -0.011416  0  -0.07845  -0.162346  0  3.919007  0
C  C180  1  0.78577864  0.16346279  0.40479198  1  0.457027  0  0.044037  0.086193  0  3.97657  0
C  C181  1  0.21422115  0.83653809  0.59520966  1  0.457067  0  0.044089  0.086301  0  3.976529  0
C  C182  1  0.58787763  0.25443028  0.38483050  1  0.473846  0  0.053591  0.107168  0  3.918409  0
C  C183  1  0.41212059  0.74557060  0.61516928  1  0.47371  0  0.053601  0.10716  0  3.91828  0
C  C184  1  0.56560941  0.31798296  0.46124250  1  -0.028017  0  -0.078168  -0.173525  0  3.916179  0
C  C185  1  0.43438805  0.68202116  0.53875590  1  -0.027938  0  -0.078182  -0.173555  0  3.916236  0
N  N186  1  0.11767402  0.93875298  0.79367934  1  -1.288126  0  -0.390114  -0.562403  0  3.179152  0
N  N187  1  0.88234146  0.06124300  0.20632715  1  -1.288112  0  -0.390099  -0.562313  0  3.179011  0
N  N188  1  0.93144098  0.92448915  0.80532733  1  -1.326328  0  -0.322385  -0.397429  0  3.557226  0
N  N189  1  0.06857567  0.07550600  0.19467909  1  -1.326322  0  -0.322521  -0.397642  0  3.557433  0
N  N190  1  0.86661990  0.80488089  0.73124413  1  -1.209695  0  -0.378333  -0.537769  0  2.792807  0
N  N191  1  0.13339683  0.19512237  0.26875134  1  -1.209577  0  -0.378326  -0.537788  0  2.792755  0
N  N192  1  0.43839912  0.95041084  0.68827690  1  -1.278274  0  -0.39297  -0.559825  0  3.167015  0
N  N193  1  0.56160066  0.04958842  0.31172614  1  -1.278298  0  -0.392921  -0.559738  0  3.166927  0
N  N194  1  0.56128351  0.04053215  0.63325356  1  -1.305209  0  -0.316305  -0.390224  0  3.509516  0
N  N195  1  0.43870730  0.95947116  0.36673275  1  -1.305565  0  -0.316492  -0.390541  0  3.509505  0
N  N196  1  0.58512737  0.18852365  0.70544888  1  -1.219681  0  -0.389004  -0.559118  0  2.816676  0
N  N197  1  0.41486501  0.81147966  0.29453596  1  -1.219077  0  -0.389044  -0.559271  0  2.816561  0
N  N198  1  0.23829461  0.07113446  0.84195604  1  -1.249304  0  -0.322936  -0.241644  0  3.552127  0
N  N199  1  0.76170675  0.92886642  0.15804413  1  -1.249235  0  -0.322901  -0.241621  0  3.551965  0
N  N200  1  0.18407612  0.06810844  0.64186055  1  -1.263843  0  -0.32549  -0.246483  0  3.554843  0
N  N201  1  0.81592171  0.93189488  0.35813984  1  -1.263861  0  -0.325518  -0.246496  0  3.554895  0
N  N202  1  0.69587848  0.17764694  0.35767129  1  -1.252653  0  -0.321839  -0.226937  0  3.543448  0
N  N203  1  0.30411934  0.82235475  0.64232915  1  -1.252633  0  -0.321846  -0.226971  0  3.543331  0
N  N204  1  0.62411811  0.17087614  0.15840030  1  -1.255733  0  -0.316868  -0.227332  0  3.527399  0
N  N205  1  0.37588678  0.82912229  0.84159967  1  -1.2554  0  -0.316912  -0.227391  0  3.527304  0
O  O206  1  0.68518754  0.44147252  0.57233127  1  -1.077706  0  -0.180587  -0.209904  0  2.602168  0
O  O207  1  0.31481421  0.55852591  0.42766896  1  -1.077691  0  -0.180614  -0.20998  0  2.602221  0
O  O208  1  0.91635929  0.41827850  0.51232858  1  -1.089753  0  -0.175231  -0.197379  0  2.617626  0
O  O209  1  0.08364051  0.58172400  0.48767034  1  -1.089351  0  -0.175229  -0.197309  0  2.61768  0
O  O210  1  0.16448426  0.41113855  0.99338259  1  -1.085252  0  -0.17208  -0.192181  0  2.637507  0
O  O211  1  0.83551552  0.58886071  0.00661778  1  -1.085262  0  -0.172005  -0.192046  0  2.637462  0
O  O212  1  0.38318336  0.41711352  0.93767679  1  -1.068063  0  -0.179133  -0.206864  0  2.584809  0
O  O213  1  0.61681760  0.58288492  0.06232484  1  -1.068336  0  -0.179061  -0.206809  0  2.584895  0
