# generated using pymatgen
data_H14PbC20(N2O3)3
_symmetry_space_group_name_H-M   'P 1'
_cell_length_a   6.76637687
_cell_length_b   11.76854643
_cell_length_c   14.20500729
_cell_angle_alpha   86.10762147
_cell_angle_beta   76.19609912
_cell_angle_gamma   73.40519455
_symmetry_Int_Tables_number   1
_chemical_formula_structural   H14PbC20(N2O3)3
_chemical_formula_sum   'H28 Pb2 C40 N12 O18'
_cell_volume   1052.72740158
_cell_formula_units_Z   2
loop_
 _symmetry_equiv_pos_site_id
 _symmetry_equiv_pos_as_xyz
  1  'x, y, z'
loop_
 _atom_site_type_symbol
 _atom_site_label
 _atom_site_symmetry_multiplicity
 _atom_site_fract_x
 _atom_site_fract_y
 _atom_site_fract_z
 _atom_site_occupancy
 _atom_site_pbe_bader_spin_density
 _atom_site_pbe_cm5_charge
 _atom_site_pbe_ddec_charge
 _atom_site_pbe_ddec_spin_density
 _atom_site_pbe_ddec_sum_bond_order
 _atom_site_pbe_magmom
H  H0  1  0.78961036  0.50588223  0.92022559  1  0  0.107258  0.122653  0  1.0487  0
H  H1  1  0.21544106  0.49396783  0.07954358  1  0  0.106929  0.122022  0  1.050547  0
H  H2  1  0.45966068  0.00591682  0.57970072  1  0  0.107002  0.122449  0  1.049412  0
H  H3  1  0.04457581  0.99422654  0.42052375  1  0  0.106836  0.121952  0  1.050096  0
H  H4  1  0.77940581  0.29654347  0.94793043  1  0  0.113685  0.115279  0  0.964831  0
H  H5  1  0.02421298  0.70317987  0.05200965  1  0  0.1134  0.115546  0  0.964595  0
H  H6  1  0.47717188  0.79658935  0.55195829  1  0  0.113405  0.115529  0  0.964838  0
H  H7  1  0.82573061  0.20343340  0.44814702  1  0  0.113291  0.115064  0  0.964453  0
H  H8  1  0.85791161  0.16427706  0.80273976  1  0  0.10567  0.124742  0  1.03847  0
H  H9  1  0.82524443  0.83516078  0.19727102  1  0  0.106187  0.125428  0  1.036309  0
H  H10  1  0.41046337  0.66431704  0.69710257  1  0  0.105834  0.125017  0  1.037728  0
H  H11  1  0.77228122  0.33540882  0.30291672  1  0  0.105959  0.125286  0  1.035877  0
H  H12  1  0.95601796  0.24724184  0.63789814  1  0  0.11696  0.092139  0  0.976984  0
H  H13  1  0.84104046  0.75205623  0.36203816  1  0  0.116943  0.09161  0  0.97752  0
H  H14  1  0.34377438  0.74729870  0.86193171  1  0  0.116787  0.091928  0  0.976858  0
H  H15  1  0.95327680  0.25227350  0.13813258  1  0  0.117277  0.091805  0  0.978305  0
H  H16  1  0.76957246  0.69994884  0.87799424  1  0  0.313638  0.296539  0  0.980802  0
H  H17  1  0.34775025  0.29983689  0.12203709  1  0  0.314372  0.29697  0  0.980399  0
H  H18  1  0.39737432  0.19999537  0.62206253  1  0  0.314268  0.296553  0  0.980705  0
H  H19  1  0.21942243  0.80001270  0.37801303  1  0  0.313797  0.296105  0  0.98169  0
H  H20  1  0.67367427  0.52798512  0.44809055  1  0  0.291513  0.392191  0  0.94373  0
H  H21  1  0.64931615  0.47227314  0.55178273  1  0  0.290363  0.390256  0  0.946263  0
H  H22  1  0.87174409  0.02769274  0.05195352  1  0  0.29068  0.391736  0  0.944413  0
H  H23  1  0.95140630  0.97193074  0.94826658  1  0  0.290717  0.391171  0  0.945129  0
H  H24  1  0.94579989  0.96569990  0.64974376  1  0  0.289177  0.341671  0  1.018953  0
H  H25  1  0.56116376  0.03467563  0.35035871  1  0  0.289102  0.341781  0  1.019008  0
H  H26  1  0.34524738  0.46579394  0.85034111  1  0  0.289165  0.341819  0  1.017566  0
H  H27  1  0.66125447  0.53477720  0.14950179  1  0  0.289165  0.341879  0  1.018352  0
Pb  Pb28  1  0.11281418  0.49993304  0.49993828  1  0  0.666803  1.085926  0  1.83503  0
Pb  Pb29  1  0.36269777  0.99994436  0.99998082  1  0  0.666915  1.086755  0  1.83322  0
C  C30  1  0.94157342  0.76051916  0.65517275  1  0  0.08657  -0.012618  0  4.046747  0
C  C31  1  0.35748024  0.23963957  0.34480324  1  0  0.086285  -0.012748  0  4.047149  0
C  C32  1  0.34641500  0.26062369  0.84483181  1  0  0.086312  -0.013795  0  4.048631  0
C  C33  1  0.45205984  0.73977240  0.15515942  1  0  0.085461  -0.014296  0  4.049162  0
C  C34  1  0.87723107  0.79599790  0.75249387  1  0  0.095166  0.002809  0  3.942517  0
C  C35  1  0.42584819  0.20406840  0.24758082  1  0  0.093707  0.00104  0  3.93941  0
C  C36  1  0.37938072  0.29608843  0.74752457  1  0  0.094604  0.002708  0  3.942339  0
C  C37  1  0.42306756  0.70421246  0.25239360  1  0  0.094543  0.001839  0  3.940137  0
C  C38  1  0.00091442  0.82549338  0.56524779  1  0  0.229523  0.566921  0  4.184526  0
C  C39  1  0.39139524  0.17475797  0.43471691  1  0  0.228663  0.565608  0  4.187121  0
C  C40  1  0.31597256  0.32557751  0.93475826  1  0  0.22983  0.567466  0  4.186199  0
C  C41  1  0.57597757  0.67490066  0.06520653  1  0  0.230666  0.569738  0  4.185528  0
C  C42  1  0.85338589  0.90939201  0.79910214  1  0  0.212447  0.546438  0  4.274918  0
C  C43  1  0.56220952  0.09067561  0.20093264  1  0  0.214166  0.55105  0  4.268215  0
C  C44  1  0.40211225  0.40949930  0.70096049  1  0  0.213302  0.547349  0  4.274885  0
C  C45  1  0.51267561  0.59079573  0.29896193  1  0  0.213255  0.548484  0  4.2717  0
C  C46  1  0.88836170  0.60747358  0.74040141  1  0  0.233512  0.276747  0  3.99133  0
C  C47  1  0.23611751  0.39229516  0.25957909  1  0  0.234541  0.276514  0  3.991933  0
C  C48  1  0.37840132  0.10754786  0.75960966  1  0  0.234246  0.276062  0  3.990282  0
C  C49  1  0.24552283  0.89249024  0.24047801  1  0  0.234419  0.276905  0  3.990081  0
C  C50  1  0.87715466  0.48654538  0.76334488  1  0  0.116611  0.137376  0  4.045724  0
C  C51  1  0.12662659  0.51314428  0.23645196  1  0  0.117557  0.13994  0  4.043318  0
C  C52  1  0.39020895  0.98663172  0.73659191  1  0  0.116263  0.137564  0  4.044343  0
C  C53  1  0.11297812  0.01336732  0.26361924  1  0  0.117289  0.138563  0  4.044517  0
C  C54  1  0.82462344  0.44716995  0.85879390  1  0  -0.083941  -0.152614  0  3.923746  0
C  C55  1  0.13031589  0.55250890  0.14104419  1  0  -0.084094  -0.152465  0  3.926204  0
C  C56  1  0.43330854  0.94721200  0.64113582  1  0  -0.083918  -0.152912  0  3.923088  0
C  C57  1  0.02107617  0.05274341  0.35904079  1  0  -0.084215  -0.153067  0  3.924575  0
C  C58  1  0.81854714  0.33000275  0.87431536  1  0  -0.066883  -0.01717  0  3.956978  0
C  C59  1  0.02287724  0.66960412  0.12559254  1  0  -0.066233  -0.017283  0  3.960892  0
C  C60  1  0.44261080  0.83007570  0.62556347  1  0  -0.066441  -0.017248  0  3.958131  0
C  C61  1  0.89818529  0.16986258  0.37454552  1  0  -0.06589  -0.015675  0  3.956616  0
C  C62  1  0.86190512  0.25636100  0.79484400  1  0  -0.088164  -0.134622  0  3.953295  0
C  C63  1  0.91320585  0.74313315  0.20508686  1  0  -0.087864  -0.134413  0  3.953647  0
C  C64  1  0.40651518  0.75640899  0.70499892  1  0  -0.088086  -0.134888  0  3.952091  0
C  C65  1  0.86813122  0.24337498  0.29507214  1  0  -0.087892  -0.13506  0  3.954982  0
C  C66  1  0.91576401  0.30284182  0.70204062  1  0  0.046074  0.097427  0  3.966498  0
C  C67  1  0.92035879  0.69663410  0.29782477  1  0  0.045755  0.098022  0  3.96797  0
C  C68  1  0.36757350  0.80290226  0.79780604  1  0  0.046316  0.09844  0  3.964809  0
C  C69  1  0.96826177  0.19686631  0.20232152  1  0  0.045385  0.096965  0  3.969546  0
N  N70  1  0.94742742  0.64439670  0.64979258  1  0  -0.308811  -0.358574  0  3.4174  0
N  N71  1  0.24175214  0.35573476  0.35012523  1  0  -0.309049  -0.358696  0  3.420461  0
N  N72  1  0.34688445  0.14449333  0.85020270  1  0  -0.308636  -0.358109  0  3.41872  0
N  N73  1  0.34178220  0.85588981  0.14990542  1  0  -0.309406  -0.359726  0  3.42081  0
N  N74  1  0.84483907  0.69763211  0.80442676  1  0  -0.352309  -0.246753  0  3.580888  0
N  N75  1  0.34697588  0.30225177  0.19559494  1  0  -0.353045  -0.24672  0  3.580652  0
N  N76  1  0.39888663  0.19770651  0.69560033  1  0  -0.353094  -0.245969  0  3.580618  0
N  N77  1  0.29227781  0.80241379  0.30441604  1  0  -0.352254  -0.245348  0  3.580343  0
N  N78  1  0.92566582  0.41464499  0.68552574  1  0  -0.296274  -0.288726  0  3.37483  0
N  N79  1  0.02539696  0.58486830  0.31425370  1  0  -0.296791  -0.290545  0  3.378953  0
N  N80  1  0.36098864  0.91470673  0.81438526  1  0  -0.29642  -0.289285  0  3.374754  0
N  N81  1  0.08971427  0.08508595  0.18585220  1  0  -0.296342  -0.288147  0  3.377232  0
O  O82  1  0.05617747  0.77248056  0.48576153  1  0  -0.283049  -0.522563  0  2.227042  0
O  O83  1  0.31407982  0.22766350  0.51424468  1  0  -0.28352  -0.523007  0  2.226604  0
O  O84  1  0.29173129  0.27265046  0.01425899  1  0  -0.283943  -0.523695  0  2.22701  0
O  O85  1  0.57820558  0.72779758  0.98569614  1  0  -0.284823  -0.525436  0  2.227433  0
O  O86  1  0.99435447  0.93680102  0.57212780  1  0  -0.316015  -0.473593  0  2.304502  0
O  O87  1  0.50243578  0.06348673  0.42787597  1  0  -0.315519  -0.472839  0  2.305828  0
O  O88  1  0.31619762  0.43689961  0.92791676  1  0  -0.315946  -0.473257  0  2.304924  0
O  O89  1  0.68040901  0.56366826  0.07198543  1  0  -0.315664  -0.473565  0  2.305116  0
O  O90  1  0.88846454  0.99505295  0.74242754  1  0  -0.304499  -0.499759  0  2.255539  0
O  O91  1  0.62689127  0.00533733  0.25753419  1  0  -0.305679  -0.502017  0  2.252694  0
O  O92  1  0.38051699  0.49516114  0.75764930  1  0  -0.304595  -0.500066  0  2.256407  0
O  O93  1  0.63364722  0.50540490  0.24226046  1  0  -0.305396  -0.501239  0  2.255145  0
O  O94  1  0.80400456  0.91539308  0.89042855  1  0  -0.304825  -0.557711  0  2.231579  0
O  O95  1  0.60979621  0.08476569  0.10959622  1  0  -0.30502  -0.559821  0  2.229042  0
O  O96  1  0.44407306  0.41548933  0.60962872  1  0  -0.305453  -0.558537  0  2.231078  0
O  O97  1  0.46909677  0.58484730  0.39029315  1  0  -0.304696  -0.558516  0  2.22843  0
O  O98  1  0.75261145  0.50018054  0.49995358  1  0  -0.570672  -0.778978  0  2.077627  0
O  O99  1  0.00281930  0.99961820  0.00019133  1  0  -0.5702  -0.779705  0  2.077676  0
