# generated using pymatgen
data_H14PbC12(BrN)2
_symmetry_space_group_name_H-M   'P 1'
_cell_length_a   7.98413831
_cell_length_b   9.88214906
_cell_length_c   9.88209917
_cell_angle_alpha   86.95777725
_cell_angle_beta   87.15471379
_cell_angle_gamma   87.15412539
_symmetry_Int_Tables_number   1
_chemical_formula_structural   H14PbC12(BrN)2
_chemical_formula_sum   'H28 Pb2 C24 Br4 N4'
_cell_volume   776.77884001
_cell_formula_units_Z   2
loop_
 _symmetry_equiv_pos_site_id
 _symmetry_equiv_pos_as_xyz
  1  'x, y, z'
loop_
 _atom_site_type_symbol
 _atom_site_label
 _atom_site_symmetry_multiplicity
 _atom_site_fract_x
 _atom_site_fract_y
 _atom_site_fract_z
 _atom_site_occupancy
 _atom_site_hle17_bader_spin_density
 _atom_site_hle17_ddec_charge
 _atom_site_hle17_ddec_spin_density
 _atom_site_hle17_ddec_sum_bond_order
 _atom_site_hle17_magmom
 _atom_site_hse06_10hf_bader_spin_density
 _atom_site_hse06_10hf_ddec_charge
 _atom_site_hse06_10hf_ddec_spin_density
 _atom_site_hse06_10hf_ddec_sum_bond_order
 _atom_site_hse06_10hf_magmom
 _atom_site_hse06_bader_spin_density
 _atom_site_hse06_ddec_charge
 _atom_site_hse06_ddec_spin_density
 _atom_site_hse06_ddec_sum_bond_order
 _atom_site_hse06_magmom
 _atom_site_pbe_bader_spin_density
 _atom_site_pbe_cm5_charge
 _atom_site_pbe_ddec_charge
 _atom_site_pbe_ddec_spin_density
 _atom_site_pbe_ddec_sum_bond_order
 _atom_site_pbe_magmom
H  H0  1  0.62372262  0.13621556  0.75177649  1  0  0.066771  0  0.977019  0  0  0.070378  0  1.056515  0  0  0.072657  0  1.054544  0  0  0.098827  0.066929  0  1.061137  0
H  H1  1  0.87628196  0.24823398  0.86378100  1  0  0.066689  0  0.976897  0  0  0.07029  0  1.056421  0  0  0.072571  0  1.054448  0  0  0.098825  0.066835  0  1.06105  0
H  H2  1  0.37628356  0.86378076  0.24822672  1  0  0.066679  0  0.976906  0  0  0.070318  0  1.05639  0  0  0.072598  0  1.054418  0  0  0.098814  0.066861  0  1.061019  0
H  H3  1  0.12371728  0.75177239  0.13621777  1  0  0.066768  0  0.977019  0  0  0.070404  0  1.056507  0  0  0.072687  0  1.054533  0  0  0.098868  0.066951  0  1.061132  0
H  H4  1  0.55128574  0.22929137  0.32629292  1  0  0.095688  0  0.968279  0  0  0.106017  0  1.033366  0  0  0.10901  0  1.030917  0  0  0.093929  0.102741  0  1.036846  0
H  H5  1  0.94871465  0.67370891  0.77069243  1  0  0.095706  0  0.968196  0  0  0.10598  0  1.033352  0  0  0.108977  0  1.030909  0  0  0.093924  0.102714  0  1.036822  0
H  H6  1  0.44870928  0.77070286  0.67370992  1  0  0.095652  0  0.968248  0  0  0.105963  0  1.033362  0  0  0.108956  0  1.030916  0  0  0.093904  0.102694  0  1.036834  0
H  H7  1  0.05128355  0.32629208  0.22928854  1  0  0.095698  0  0.968236  0  0  0.106022  0  1.033322  0  0  0.109013  0  1.030873  0  0  0.093933  0.102742  0  1.036806  0
H  H8  1  0.24758433  0.18680888  0.37184801  1  0  0.1012  0  0.971414  0  0  0.109953  0  1.035706  0  0  0.113247  0  1.034263  0  0  0.095014  0.107296  0  1.037256  0
H  H9  1  0.25241134  0.62816038  0.81318364  1  0  0.101136  0  0.971437  0  0  0.109912  0  1.035703  0  0  0.113204  0  1.034265  0  0  0.095008  0.107256  0  1.037252  0
H  H10  1  0.75241061  0.81318753  0.62816379  1  0  0.101139  0  0.97145  0  0  0.109887  0  1.035753  0  0  0.113179  0  1.034316  0  0  0.09499  0.107263  0  1.037271  0
H  H11  1  0.74758282  0.37184578  0.18680423  1  0  0.101161  0  0.97138  0  0  0.109917  0  1.035686  0  0  0.113212  0  1.034242  0  0  0.09497  0.107275  0  1.037221  0
H  H12  1  0.14517824  0.12364342  0.60992369  1  0  0.069803  0  0.974151  0  0  0.077265  0  1.044531  0  0  0.079752  0  1.042268  0  0  0.10216  0.075493  0  1.04561  0
H  H13  1  0.35482026  0.39008881  0.87635971  1  0  0.069743  0  0.974325  0  0  0.077222  0  1.044682  0  0  0.079706  0  1.042427  0  0  0.102184  0.075449  0  1.045757  0
H  H14  1  0.85482133  0.87635913  0.39008950  1  0  0.069762  0  0.974305  0  0  0.077223  0  1.044682  0  0  0.079705  0  1.042429  0  0  0.102192  0.075449  0  1.045756  0
H  H15  1  0.64517628  0.60992061  0.12363998  1  0  0.069804  0  0.97421  0  0  0.077267  0  1.044587  0  0  0.079752  0  1.042327  0  0  0.102173  0.075489  0  1.045674  0
H  H16  1  0.86345457  0.19343817  0.60818873  1  0  0.104189  0  0.982846  0  0  0.121309  0  1.052282  0  0  0.122803  0  1.052001  0  0  0.081688  0.120273  0  1.052229  0
H  H17  1  0.63654754  0.39181401  0.80655203  1  0  0.104251  0  0.982883  0  0  0.121353  0  1.052305  0  0  0.122866  0  1.052008  0  0  0.081725  0.120315  0  1.052253  0
H  H18  1  0.13655053  0.80655503  0.39181070  1  0  0.104235  0  0.982879  0  0  0.121338  0  1.052322  0  0  0.122841  0  1.052035  0  0  0.081698  0.1203  0  1.05227  0
H  H19  1  0.36345080  0.60818617  0.19344114  1  0  0.10418  0  0.982898  0  0  0.1213  0  1.052323  0  0  0.1228  0  1.052038  0  0  0.081679  0.120265  0  1.052267  0
H  H20  1  0.85532421  0.15142445  0.43578485  1  0  0.114859  0  0.963784  0  0  0.132171  0  1.033685  0  0  0.133569  0  1.033368  0  0  0.081979  0.130992  0  1.034037  0
H  H21  1  0.64467388  0.56421583  0.84856928  1  0  0.114852  0  0.963853  0  0  0.132173  0  1.033731  0  0  0.133575  0  1.033413  0  0  0.08197  0.130994  0  1.034084  0
H  H22  1  0.14467435  0.84857276  0.56421256  1  0  0.114836  0  0.963835  0  0  0.132162  0  1.033719  0  0  0.133567  0  1.033398  0  0  0.08197  0.130983  0  1.03407  0
H  H23  1  0.35532320  0.43578433  0.15142293  1  0  0.114851  0  0.963805  0  0  0.132159  0  1.033713  0  0  0.133558  0  1.033397  0  0  0.081973  0.130981  0  1.034067  0
H  H24  1  0.81533960  0.32126352  0.47997681  1  0  0.109112  0  0.940339  0  0  0.133385  0  0.994763  0  0  0.134174  0  0.995574  0  0  0.091373  0.132841  0  0.99423  0
H  H25  1  0.68465263  0.52002814  0.67872553  1  0  0.10918  0  0.940195  0  0  0.133422  0  0.994655  0  0  0.134211  0  0.995467  0  0  0.091375  0.132877  0  0.994122  0
H  H26  1  0.18465791  0.67873069  0.52002390  1  0  0.109144  0  0.940197  0  0  0.133406  0  0.994646  0  0  0.134195  0  0.995458  0  0  0.091387  0.132861  0  0.994114  0
H  H27  1  0.31533818  0.47997200  0.32126697  1  0  0.10909  0  0.940259  0  0  0.133379  0  0.99468  0  0  0.134164  0  0.995495  0  0  0.091369  0.132835  0  0.994148  0
Pb  Pb28  1  0.25000448  0.06922839  0.93078815  1  0  0.999304  0  1.736369  0  0  0.799422  0  2.191985  0  0  0.856381  0  2.155223  0  0  0.425465  0.762217  0  2.215203  0
Pb  Pb29  1  0.74999723  0.93078032  0.06922856  1  0  0.999304  0  1.736342  0  0  0.799424  0  2.191926  0  0  0.856393  0  2.155145  0  0  0.425487  0.762274  0  2.215041  0
C  C30  1  0.54423454  0.15117274  0.66477809  1  0  0.056067  0  3.697385  0  0  0.019925  0  3.942695  0  0  0.025302  0  3.963062  0  0  0.040465  0.016919  0  3.929886  0
C  C31  1  0.95576445  0.33523574  0.84881708  1  0  0.056319  0  3.697261  0  0  0.020197  0  3.942544  0  0  0.025572  0  3.962912  0  0  0.04052  0.017198  0  3.929738  0
C  C32  1  0.45576671  0.84882260  0.33522845  1  0  0.056317  0  3.697201  0  0  0.020173  0  3.942448  0  0  0.025548  0  3.962819  0  0  0.040541  0.017172  0  3.929646  0
C  C33  1  0.04423449  0.66477457  0.15117434  1  0  0.056148  0  3.697259  0  0  0.019948  0  3.942631  0  0  0.025324  0  3.962995  0  0  0.040421  0.016946  0  3.929828  0
C  C34  1  0.61341095  0.18994645  0.53646613  1  0  0.101347  0  3.744468  0  0  0.135324  0  3.972664  0  0  0.131611  0  3.99891  0  0  -0.002199  0.137753  0  3.954638  0
C  C35  1  0.88659257  0.46353949  0.81004038  1  0  0.10124  0  3.744601  0  0  0.135213  0  3.97283  0  0  0.131495  0  3.99909  0  0  -0.00223  0.137641  0  3.954806  0
C  C36  1  0.38659159  0.81004780  0.46353638  1  0  0.101268  0  3.74453  0  0  0.135263  0  3.97273  0  0  0.131546  0  3.998988  0  0  -0.002166  0.137692  0  3.954702  0
C  C37  1  0.11341076  0.53646062  0.18994751  1  0  0.101334  0  3.744343  0  0  0.135269  0  3.972621  0  0  0.131553  0  3.998873  0  0  -0.002167  0.137697  0  3.954596  0
C  C38  1  0.50396593  0.20317251  0.42947724  1  0  -0.068046  0  3.690157  0  0  -0.093311  0  3.929953  0  0  -0.091578  0  3.94931  0  0  -0.071056  -0.09351  0  3.917434  0
C  C39  1  0.99603256  0.57052777  0.79681392  1  0  -0.068007  0  3.689886  0  0  -0.093234  0  3.929719  0  0  -0.091508  0  3.949081  0  0  -0.070998  -0.093444  0  3.917196  0
C  C40  1  0.49603274  0.79682381  0.57052833  1  0  -0.068071  0  3.690122  0  0  -0.093343  0  3.929938  0  0  -0.091611  0  3.949297  0  0  -0.071092  -0.093551  0  3.917423  0
C  C41  1  0.00396554  0.42947532  0.20317095  1  0  -0.068108  0  3.690113  0  0  -0.093344  0  3.929914  0  0  -0.09161  0  3.949272  0  0  -0.071088  -0.093541  0  3.917406  0
C  C42  1  0.33430548  0.18000017  0.45395293  1  0  -0.112784  0  3.759531  0  0  -0.122678  0  4.009422  0  0  -0.128946  0  4.030941  0  0  -0.087792  -0.1192  0  3.995416  0
C  C43  1  0.16569636  0.54605420  0.81999317  1  0  -0.112667  0  3.75952  0  0  -0.122551  0  4.009382  0  0  -0.128819  0  4.030903  0  0  -0.087778  -0.119069  0  3.995371  0
C  C44  1  0.66569308  0.81999823  0.54605553  1  0  -0.112563  0  3.759519  0  0  -0.122421  0  4.009379  0  0  -0.128689  0  4.030897  0  0  -0.087696  -0.118968  0  3.995353  0
C  C45  1  0.83430289  0.45395102  0.17999758  1  0  -0.112675  0  3.759329  0  0  -0.122572  0  4.009194  0  0  -0.12884  0  4.030713  0  0  -0.087746  -0.119107  0  3.995181  0
C  C46  1  0.27668756  0.14380963  0.58546076  1  0  0.112735  0  3.728812  0  0  0.080071  0  3.978241  0  0  0.086378  0  3.998239  0  0  0.038182  0.07633  0  3.964401  0
C  C47  1  0.22331522  0.41455178  0.85618557  1  0  0.112788  0  3.729195  0  0  0.080093  0  3.978639  0  0  0.086404  0  3.998628  0  0  0.038166  0.076354  0  3.964802  0
C  C48  1  0.72331478  0.85618883  0.41455057  1  0  0.112696  0  3.729066  0  0  0.080009  0  3.978522  0  0  0.086319  0  3.998513  0  0  0.038109  0.076264  0  3.964697  0
C  C49  1  0.77668493  0.58545959  0.14380875  1  0  0.112654  0  3.728823  0  0  0.079986  0  3.978247  0  0  0.086293  0  3.998247  0  0  0.038114  0.076244  0  3.964412  0
C  C50  1  0.79662334  0.21523217  0.51470257  1  0  -0.335813  0  3.727526  0  0  -0.413595  0  3.954793  0  0  -0.415992  0  3.965714  0  0  -0.243982  -0.41152  0  3.946963  0
C  C51  1  0.70337185  0.48530187  0.78475757  1  0  -0.335965  0  3.727468  0  0  -0.413699  0  3.954749  0  0  -0.416117  0  3.965647  0  0  -0.244036  -0.411622  0  3.94692  0
C  C52  1  0.20337661  0.78476304  0.48529694  1  0  -0.335848  0  3.727422  0  0  -0.413624  0  3.954705  0  0  -0.416034  0  3.965614  0  0  -0.244018  -0.411548  0  3.946875  0
C  C53  1  0.29662266  0.51469928  0.21523368  1  0  -0.335754  0  3.727433  0  0  -0.413523  0  3.954733  0  0  -0.415923  0  3.965652  0  0  -0.243956  -0.411449  0  3.946904  0
Br  Br54  1  0.96164692  0.95429970  0.79527634  1  0  -0.584158  0  0.908497  0  0  -0.507184  0  1.186566  0  0  -0.530138  0  1.167436  0  0  -0.223781  -0.489324  0  1.200031  0
Br  Br55  1  0.53837881  0.20473933  0.04567818  1  0  -0.584164  0  0.908643  0  0  -0.507174  0  1.186679  0  0  -0.530138  0  1.167572  0  0  -0.223736  -0.489305  0  1.200123  0
Br  Br56  1  0.03837734  0.04567061  0.20474610  1  0  -0.584189  0  0.908583  0  0  -0.507189  0  1.186603  0  0  -0.530148  0  1.167485  0  0  -0.223759  -0.489322  0  1.200046  0
Br  Br57  1  0.46162499  0.79527416  0.95431989  1  0  -0.584134  0  0.908537  0  0  -0.507179  0  1.186631  0  0  -0.530139  0  1.167516  0  0  -0.223742  -0.489311  0  1.200079  0
N  N58  1  0.38039307  0.12916497  0.68882808  1  0  -0.330619  0  3.276436  0  0  -0.248755  0  3.529376  0  0  -0.270048  0  3.554934  0  0  -0.307563  -0.23515  0  3.511611  0
N  N59  1  0.11960836  0.31118610  0.87083134  1  0  -0.330784  0  3.276525  0  0  -0.248929  0  3.529526  0  0  -0.270219  0  3.555076  0  0  -0.307647  -0.235325  0  3.511763  0
N  N60  1  0.61960931  0.87083245  0.31118129  1  0  -0.330729  0  3.276556  0  0  -0.248865  0  3.529539  0  0  -0.270154  0  3.555091  0  0  -0.307624  -0.235264  0  3.511776  0
N  N61  1  0.88039063  0.68882434  0.12916817  1  0  -0.330617  0  3.276494  0  0  -0.248723  0  3.529431  0  0  -0.270017  0  3.55499  0  0  -0.30752  -0.235124  0  3.511669  0
