# generated using pymatgen
data_ZnH24C28(NO)4
_symmetry_space_group_name_H-M   'P 1'
_cell_length_a   10.71595459
_cell_length_b   11.64517075
_cell_length_c   13.61618957
_cell_angle_alpha   76.20589823
_cell_angle_beta   66.80706752
_cell_angle_gamma   62.59723514
_symmetry_Int_Tables_number   1
_chemical_formula_structural   ZnH24C28(NO)4
_chemical_formula_sum   'Zn2 H48 C56 N8 O8'
_cell_volume   1383.17742567
_cell_formula_units_Z   2
loop_
 _symmetry_equiv_pos_site_id
 _symmetry_equiv_pos_as_xyz
  1  'x, y, z'
loop_
 _atom_site_type_symbol
 _atom_site_label
 _atom_site_symmetry_multiplicity
 _atom_site_fract_x
 _atom_site_fract_y
 _atom_site_fract_z
 _atom_site_occupancy
 _atom_site_hle17_bader_spin_density
 _atom_site_hle17_ddec_charge
 _atom_site_hle17_ddec_spin_density
 _atom_site_hle17_ddec_sum_bond_order
 _atom_site_hle17_magmom
 _atom_site_hse06_10hf_bader_spin_density
 _atom_site_hse06_10hf_ddec_charge
 _atom_site_hse06_10hf_ddec_spin_density
 _atom_site_hse06_10hf_ddec_sum_bond_order
 _atom_site_hse06_10hf_magmom
 _atom_site_hse06_bader_spin_density
 _atom_site_hse06_ddec_charge
 _atom_site_hse06_ddec_spin_density
 _atom_site_hse06_ddec_sum_bond_order
 _atom_site_hse06_magmom
 _atom_site_pbe_bader_spin_density
 _atom_site_pbe_cm5_charge
 _atom_site_pbe_ddec_charge
 _atom_site_pbe_ddec_spin_density
 _atom_site_pbe_ddec_sum_bond_order
 _atom_site_pbe_magmom
Zn  Zn0  1  0.30884003  0.24998529  0.74996013  1  0  1.019594  0  1.858135  0  0  0.827832  0  2.347  0  0  0.876053  0  2.290211  0  0  0.689623  0.794551  0  2.385641  0
Zn  Zn1  1  0.69115997  0.75001459  0.25004007  1  0  1.019604  0  1.858165  0  0  0.827842  0  2.347045  0  0  0.876064  0  2.290253  0  0  0.689634  0.794558  0  2.385687  0
H  H2  1  0.10736992  0.15745821  0.92606593  1  0  0.139159  0  0.94358  0  0  0.161189  0  0.998795  0  0  0.163275  0  0.997653  0  0  0.10592  0.159704  0  0.999555  0
H  H3  1  0.19066504  0.34269077  0.57396105  1  0  0.140134  0  0.942066  0  0  0.161658  0  0.997889  0  0  0.163724  0  0.996776  0  0  0.105548  0.160177  0  0.998644  0
H  H4  1  0.89263127  0.84254070  0.07393360  1  0  0.13918  0  0.943569  0  0  0.161208  0  0.998782  0  0  0.163294  0  0.99764  0  0  0.105936  0.159723  0  0.999542  0
H  H5  1  0.80933570  0.65730911  0.42603842  1  0  0.140171  0  0.942033  0  0  0.161714  0  0.997829  0  0  0.16378  0  0.996715  0  0  0.105564  0.160232  0  0.998585  0
H  H6  1  0.91411413  0.22347850  0.00366592  1  0  0.131202  0  0.934189  0  0  0.15198  0  0.991245  0  0  0.154082  0  0.990655  0  0  0.104029  0.150464  0  0.991675  0
H  H7  1  0.14106510  0.27669393  0.49640264  1  0  0.130958  0  0.934589  0  0  0.15192  0  0.991365  0  0  0.153963  0  0.990835  0  0  0.10391  0.150432  0  0.991766  0
H  H8  1  0.08588706  0.77652041  0.99633361  1  0  0.131209  0  0.934161  0  0  0.151974  0  0.991233  0  0  0.154073  0  0.990647  0  0  0.104022  0.150457  0  0.991662  0
H  H9  1  0.85893490  0.72330595  0.50359757  1  0  0.130956  0  0.934607  0  0  0.151917  0  0.991386  0  0  0.15396  0  0.990855  0  0  0.103911  0.150428  0  0.991788  0
H  H10  1  0.04759110  0.23056153  0.04605679  1  0  0.14023  0  0.940104  0  0  0.159548  0  1.000542  0  0  0.161771  0  1.000341  0  0  0.104298  0.158086  0  1.000423  0
H  H11  1  0.32404939  0.26959391  0.45390474  1  0  0.141591  0  0.940297  0  0  0.160882  0  1.00068  0  0  0.163133  0  1.000455  0  0  0.104906  0.159394  0  1.000584  0
H  H12  1  0.95241009  0.76943738  0.95394274  1  0  0.140228  0  0.940122  0  0  0.159546  0  1.000557  0  0  0.161769  0  1.000358  0  0  0.104303  0.158083  0  1.000439  0
H  H13  1  0.67595064  0.73040596  0.54609442  1  0  0.141605  0  0.940277  0  0  0.160896  0  1.00066  0  0  0.163146  0  1.000434  0  0  0.104917  0.159408  0  1.000564  0
H  H14  1  0.19571079  0.54188736  0.63480398  1  0  0.102542  0  0.983821  0  0  0.112877  0  1.045199  0  0  0.114877  0  1.045155  0  0  0.100773  0.111388  0  1.045415  0
H  H15  1  0.37253418  0.95815706  0.86500029  1  0  0.101428  0  0.984084  0  0  0.11189  0  1.045539  0  0  0.11383  0  1.045546  0  0  0.100472  0.110433  0  1.045735  0
H  H16  1  0.80428970  0.45811154  0.36519524  1  0  0.102515  0  0.983836  0  0  0.112847  0  1.045223  0  0  0.114847  0  1.045177  0  0  0.100757  0.111358  0  1.04544  0
H  H17  1  0.62746585  0.04184282  0.13499886  1  0  0.101448  0  0.984032  0  0  0.111901  0  1.045501  0  0  0.113843  0  1.045505  0  0  0.100464  0.110443  0  1.045697  0
H  H18  1  0.04026915  0.77906519  0.61957471  1  0  0.084212  0  0.988272  0  0  0.092267  0  1.054053  0  0  0.093772  0  1.055855  0  0  0.092274  0.091243  0  1.052782  0
H  H19  1  0.43938995  0.72094702  0.88013779  1  0  0.084083  0  0.987905  0  0  0.092347  0  1.053501  0  0  0.0938  0  1.055345  0  0  0.091562  0.091313  0  1.052246  0
H  H20  1  0.95973158  0.22093469  0.38042476  1  0  0.08416  0  0.988365  0  0  0.092227  0  1.054125  0  0  0.093732  0  1.055927  0  0  0.092255  0.091204  0  1.052854  0
H  H21  1  0.56061008  0.27905285  0.11986136  1  0  0.084102  0  0.987879  0  0  0.092364  0  1.053479  0  0  0.093817  0  1.055322  0  0  0.091567  0.091329  0  1.052225  0
H  H22  1  0.79704023  0.88247909  0.75916329  1  0  0.099236  0  0.987297  0  0  0.105939  0  1.054627  0  0  0.109237  0  1.05308  0  0  0.095976  0.103606  0  1.055672  0
H  H23  1  0.43894033  0.61756766  0.74069992  1  0  0.100305  0  0.986864  0  0  0.106857  0  1.054293  0  0  0.110079  0  1.052836  0  0  0.096157  0.104561  0  1.055288  0
H  H24  1  0.20296096  0.11751981  0.24083624  1  0  0.099222  0  0.987309  0  0  0.105928  0  1.054637  0  0  0.109214  0  1.053102  0  0  0.095969  0.103594  0  1.055685  0
H  H25  1  0.56106113  0.38243222  0.25929882  1  0  0.100309  0  0.986856  0  0  0.106879  0  1.054263  0  0  0.110101  0  1.052806  0  0  0.096158  0.104577  0  1.055266  0
H  H26  1  0.70493711  0.75249672  0.92170848  1  0  0.111597  0  0.96554  0  0  0.118866  0  1.031415  0  0  0.121161  0  1.031453  0  0  0.103839  0.117268  0  1.031344  0
H  H27  1  0.37914963  0.74758901  0.57826599  1  0  0.109693  0  0.965655  0  0  0.117083  0  1.031745  0  0  0.119323  0  1.031839  0  0  0.103229  0.115538  0  1.031611  0
H  H28  1  0.29506338  0.24750218  0.07829074  1  0  0.111586  0  0.965524  0  0  0.118853  0  1.031406  0  0  0.121148  0  1.031444  0  0  0.103835  0.117255  0  1.031335  0
H  H29  1  0.62084970  0.25241087  0.42173285  1  0  0.109711  0  0.965671  0  0  0.117089  0  1.031772  0  0  0.11933  0  1.031859  0  0  0.103229  0.115536  0  1.031646  0
H  H30  1  0.71931087  0.58283847  0.07621884  1  0  0.105608  0  0.924355  0  0  0.11646  0  0.993018  0  0  0.118064  0  0.991428  0  0  0.118428  0.115139  0  0.9943  0
H  H31  1  0.37850633  0.91725605  0.42373170  1  0  0.104969  0  0.924978  0  0  0.115396  0  0.993723  0  0  0.117001  0  0.992162  0  0  0.118457  0.11414  0  0.99491  0
H  H32  1  0.28068913  0.41716141  0.92378137  1  0  0.105596  0  0.924351  0  0  0.116467  0  0.993  0  0  0.118072  0  0.99141  0  0  0.118429  0.115145  0  0.994279  0
H  H33  1  0.62149223  0.08274383  0.57626892  1  0  0.104967  0  0.924969  0  0  0.115393  0  0.993729  0  0  0.116992  0  0.992168  0  0  0.118455  0.114138  0  0.994915  0
H  H34  1  0.78321796  0.41380236  0.10031657  1  0  0.093131  0  0.913648  0  0  0.11165  0  0.972147  0  0  0.111907  0  0.972984  0  0  0.119878  0.111465  0  0.971442  0
H  H35  1  0.29740154  0.08628729  0.39963253  1  0  0.092877  0  0.914039  0  0  0.111096  0  0.972518  0  0  0.111341  0  0.973357  0  0  0.119657  0.110901  0  0.971844  0
H  H36  1  0.21678319  0.58619655  0.89968401  1  0  0.093086  0  0.913729  0  0  0.111622  0  0.972211  0  0  0.111881  0  0.973044  0  0  0.119846  0.111438  0  0.971505  0
H  H37  1  0.70259941  0.91371356  0.60036824  1  0  0.092796  0  0.914033  0  0  0.11105  0  0.972504  0  0  0.111291  0  0.97334  0  0  0.119645  0.110855  0  0.97183  0
H  H38  1  0.75688048  0.37412878  0.88569616  1  0  0.087881  0  0.955389  0  0  0.10172  0  1.009773  0  0  0.104145  0  1.009222  0  0  0.099464  0.099869  0  1.010383  0
H  H39  1  0.01654125  0.12599024  0.61422152  1  0  0.088533  0  0.955427  0  0  0.102102  0  1.010006  0  0  0.104534  0  1.009444  0  0  0.099734  0.100223  0  1.010642  0
H  H40  1  0.24311952  0.62587110  0.11430405  1  0  0.087874  0  0.955395  0  0  0.101715  0  1.009777  0  0  0.10414  0  1.009226  0  0  0.099456  0.099865  0  1.010387  0
H  H41  1  0.98345756  0.87401061  0.38577936  1  0  0.088399  0  0.955375  0  0  0.101966  0  1.009968  0  0  0.104397  0  1.009406  0  0  0.099664  0.100087  0  1.010603  0
H  H42  1  0.45717748  0.62241278  0.14506571  1  0  0.119727  0  0.966297  0  0  0.131116  0  1.021575  0  0  0.134562  0  1.019506  0  0  0.105399  0.128557  0  1.02321  0
H  H43  1  0.22477109  0.87753306  0.35499229  1  0  0.119451  0  0.966355  0  0  0.130613  0  1.021985  0  0  0.133995  0  1.020011  0  0  0.105457  0.128087  0  1.023592  0
H  H44  1  0.54282297  0.37758613  0.85493456  1  0  0.119733  0  0.966294  0  0  0.131126  0  1.02157  0  0  0.134571  0  1.019503  0  0  0.105409  0.128567  0  1.023205  0
H  H45  1  0.77522723  0.12246877  0.64500958  1  0  0.119441  0  0.966352  0  0  0.130643  0  1.021938  0  0  0.134025  0  1.019965  0  0  0.105462  0.128117  0  1.023546  0
H  H46  1  0.66383316  0.98144989  0.94626419  1  0  0.118142  0  0.938355  0  0  0.129784  0  0.993155  0  0  0.133584  0  0.991078  0  0  0.109977  0.12718  0  0.994418  0
H  H47  1  0.59178388  0.51868857  0.55337476  1  0  0.117048  0  0.936922  0  0  0.128701  0  0.992036  0  0  0.132569  0  0.98988  0  0  0.109491  0.126112  0  0.993301  0
H  H48  1  0.33617094  0.01854901  0.05373344  1  0  0.118066  0  0.938346  0  0  0.129702  0  0.993151  0  0  0.133498  0  0.991098  0  0  0.109913  0.127143  0  0.994366  0
H  H49  1  0.40821451  0.48131324  0.44662501  1  0  0.117061  0  0.936927  0  0  0.128731  0  0.992019  0  0  0.1326  0  0.98986  0  0  0.109505  0.126143  0  0.993282  0
C  C50  1  0.01818295  0.23670174  0.97555228  1  0  -0.390779  0  3.696381  0  0  -0.468857  0  3.927118  0  0  -0.472807  0  3.930661  0  0  -0.227331  -0.465899  0  3.924344  0
C  C51  1  0.23028247  0.26345539  0.52445956  1  0  -0.393579  0  3.69623  0  0  -0.471417  0  3.927505  0  0  -0.475344  0  3.930979  0  0  -0.227776  -0.468441  0  3.924787  0
C  C52  1  0.98181824  0.76329716  0.02444725  1  0  -0.390783  0  3.696356  0  0  -0.468833  0  3.927115  0  0  -0.472777  0  3.930654  0  0  -0.227334  -0.465874  0  3.92434  0
C  C53  1  0.76971897  0.73654449  0.47554022  1  0  -0.393608  0  3.696223  0  0  -0.471468  0  3.927496  0  0  -0.475396  0  3.930973  0  0  -0.227793  -0.468488  0  3.924769  0
C  C54  1  0.00182744  0.36301234  0.91285273  1  0  0.414243  0  3.671713  0  0  0.385031  0  3.949626  0  0  0.405079  0  3.960327  0  0  0.236809  0.371738  0  3.942113  0
C  C55  1  0.27753406  0.13711639  0.58713464  1  0  0.413021  0  3.673523  0  0  0.383676  0  3.952141  0  0  0.403822  0  3.962717  0  0  0.23595  0.370338  0  3.944677  0
C  C56  1  0.99817305  0.63698657  0.08714649  1  0  0.41417  0  3.671637  0  0  0.384917  0  3.949618  0  0  0.404966  0  3.960324  0  0  0.236788  0.371625  0  3.942104  0
C  C57  1  0.72246738  0.86288349  0.41286514  1  0  0.413098  0  3.673474  0  0  0.383747  0  3.952094  0  0  0.403893  0  3.96267  0  0  0.235986  0.37041  0  3.944631  0
C  C58  1  0.03751546  0.51414779  0.78760835  1  0  0.149695  0  3.847116  0  0  0.145611  0  4.095964  0  0  0.149224  0  4.119666  0  0  0.080431  0.143191  0  4.079821  0
C  C59  1  0.33926628  0.98591304  0.71229651  1  0  0.147942  0  3.850108  0  0  0.144383  0  4.098429  0  0  0.147975  0  4.122135  0  0  0.079962  0.14198  0  4.082252  0
C  C60  1  0.96248432  0.48585112  0.21239055  1  0  0.149712  0  3.846977  0  0  0.145564  0  4.095929  0  0  0.149175  0  4.119635  0  0  0.080391  0.143144  0  4.079786  0
C  C61  1  0.66073134  0.01408878  0.28770504  1  0  0.147907  0  3.850263  0  0  0.144388  0  4.098492  0  0  0.147979  0  4.122198  0  0  0.079951  0.141982  0  4.082319  0
C  C62  1  0.08985973  0.58707748  0.69670914  1  0  -0.153176  0  3.761067  0  0  -0.169109  0  4.004492  0  0  -0.172294  0  4.025714  0  0  -0.100408  -0.167005  0  3.990328  0
C  C63  1  0.37388101  0.91297116  0.80309738  1  0  -0.149316  0  3.760233  0  0  -0.165458  0  4.003487  0  0  -0.168557  0  4.024741  0  0  -0.09957  -0.163393  0  3.98929  0
C  C64  1  0.91014002  0.41292143  0.30329081  1  0  -0.153202  0  3.761048  0  0  -0.169114  0  4.004505  0  0  -0.172293  0  4.02572  0  0  -0.100405  -0.167011  0  3.990342  0
C  C65  1  0.62611755  0.08702872  0.19690324  1  0  -0.149269  0  3.76021  0  0  -0.16542  0  4.00344  0  0  -0.168519  0  4.024695  0  0  -0.099531  -0.163355  0  3.989246  0
C  C66  1  0.00160280  0.71947898  0.68886006  1  0  -0.081114  0  3.798898  0  0  -0.095603  0  4.050575  0  0  -0.097797  0  4.074006  0  0  -0.1041  -0.094076  0  4.034736  0
C  C67  1  0.41031333  0.78055559  0.81091665  1  0  -0.083061  0  3.798505  0  0  -0.097851  0  4.050173  0  0  -0.100005  0  4.073597  0  0  -0.103974  -0.096313  0  4.034358  0
C  C68  1  0.99839839  0.28051993  0.31113946  1  0  -0.080996  0  3.798963  0  0  -0.095486  0  4.050612  0  0  -0.097681  0  4.074041  0  0  -0.104045  -0.093959  0  4.034772  0
C  C69  1  0.58968783  0.21944332  0.18908393  1  0  -0.083134  0  3.798604  0  0  -0.097931  0  4.050286  0  0  -0.100085  0  4.073712  0  0  -0.104001  -0.096391  0  4.03447  0
C  C70  1  0.86377631  0.77865434  0.76846972  1  0  -0.085011  0  3.77467  0  0  -0.100773  0  4.027465  0  0  -0.103412  0  4.049388  0  0  -0.102744  -0.098932  0  4.012492  0
C  C71  1  0.41113067  0.72139360  0.73138587  1  0  -0.086397  0  3.774651  0  0  -0.101879  0  4.027253  0  0  -0.104461  0  4.049211  0  0  -0.102509  -0.100053  0  4.01222  0
C  C72  1  0.13622417  0.22134456  0.23152949  1  0  -0.085073  0  3.774739  0  0  -0.10084  0  4.027546  0  0  -0.10347  0  4.049475  0  0  -0.102772  -0.098999  0  4.012573  0
C  C73  1  0.58886817  0.27860725  0.26861396  1  0  -0.086367  0  3.774708  0  0  -0.101861  0  4.027292  0  0  -0.104443  0  4.049249  0  0  -0.102505  -0.10003  0  4.012257  0
C  C74  1  0.81031004  0.70693052  0.85942123  1  0  -0.146729  0  3.762701  0  0  -0.164735  0  4.017133  0  0  -0.167475  0  4.037685  0  0  -0.096781  -0.162774  0  4.002867  0
C  C75  1  0.37670527  0.79315194  0.64052226  1  0  -0.142478  0  3.760563  0  0  -0.160488  0  4.015037  0  0  -0.163163  0  4.035617  0  0  -0.095574  -0.158578  0  4.000757  0
C  C76  1  0.18969045  0.29306839  0.14057799  1  0  -0.146685  0  3.762497  0  0  -0.164684  0  4.016937  0  0  -0.16742  0  4.037482  0  0  -0.096759  -0.162723  0  4.002671  0
C  C77  1  0.62329196  0.20685085  0.35947714  1  0  -0.142446  0  3.760537  0  0  -0.160459  0  4.014985  0  0  -0.163132  0  4.035566  0  0  -0.09554  -0.15854  0  4.000709  0
C  C78  1  0.89997857  0.57472398  0.86729527  1  0  0.100776  0  3.794843  0  0  0.088183  0  4.042831  0  0  0.091463  0  4.065721  0  0  0.088269  0.086073  0  4.026971  0
C  C79  1  0.34198303  0.92537988  0.63263329  1  0  0.099386  0  3.79412  0  0  0.086243  0  4.04315  0  0  0.089541  0  4.06601  0  0  0.088065  0.084126  0  4.02731  0
C  C80  1  0.10001915  0.42527783  0.13270314  1  0  0.100738  0  3.794659  0  0  0.08816  0  4.0427  0  0  0.091439  0  4.065593  0  0  0.088273  0.086049  0  4.026839  0
C  C81  1  0.65801438  0.07462097  0.36736697  1  0  0.099349  0  3.794313  0  0  0.086224  0  4.043268  0  0  0.089521  0  4.066131  0  0  0.088055  0.084109  0  4.027425  0
C  C82  1  0.75109178  0.49394924  0.04084678  1  0  -0.027238  0  3.632382  0  0  -0.09551  0  3.884297  0  0  -0.090801  0  3.89447  0  0  -0.042981  -0.098514  0  3.877277  0
C  C83  1  0.28595006  0.00613756  0.45910367  1  0  -0.02804  0  3.632332  0  0  -0.094837  0  3.882435  0  0  -0.090149  0  3.892638  0  0  -0.04303  -0.097853  0  3.875374  0
C  C84  1  0.24890868  0.50604967  0.95915349  1  0  -0.027182  0  3.632459  0  0  -0.095469  0  3.884371  0  0  -0.090758  0  3.894543  0  0  -0.042961  -0.098469  0  3.877346  0
C  C85  1  0.71404951  0.99386328  0.54089543  1  0  -0.027938  0  3.632294  0  0  -0.094806  0  3.882418  0  0  -0.090096  0  3.892599  0  0  -0.043018  -0.097825  0  3.875359  0
C  C86  1  0.62179472  0.49886146  0.01749826  1  0  0.064542  0  3.747163  0  0  0.082623  0  3.99218  0  0  0.081847  0  4.016531  0  0  -0.013262  0.082906  0  3.97593  0
C  C87  1  0.13819686  0.00118899  0.48246673  1  0  0.066063  0  3.744997  0  0  0.084681  0  3.988537  0  0  0.083926  0  4.012813  0  0  -0.012974  0.084932  0  3.972348  0
C  C88  1  0.37820545  0.50113648  0.98250280  1  0  0.064581  0  3.747171  0  0  0.082644  0  3.992224  0  0  0.081867  0  4.016574  0  0  -0.01323  0.082925  0  3.975974  0
C  C89  1  0.86180174  0.99881380  0.51753434  1  0  0.066009  0  3.745048  0  0  0.084687  0  3.988533  0  0  0.083924  0  4.012807  0  0  -0.012975  0.084938  0  3.972344  0
C  C90  1  0.64426937  0.42963779  0.93658013  1  0  -0.123846  0  3.780162  0  0  -0.144168  0  4.029599  0  0  -0.146507  0  4.051172  0  0  -0.096524  -0.142658  0  4.015204  0
C  C91  1  0.01042477  0.07041474  0.56336084  1  0  -0.124384  0  3.783523  0  0  -0.144817  0  4.032898  0  0  -0.147155  0  4.05446  0  0  -0.096477  -0.143302  0  4.018547  0
C  C92  1  0.35573080  0.57036015  0.06342093  1  0  -0.123864  0  3.780187  0  0  -0.144186  0  4.029635  0  0  -0.146526  0  4.051211  0  0  -0.096522  -0.142677  0  4.015242  0
C  C93  1  0.98957499  0.92958709  0.43664061  1  0  -0.124241  0  3.783371  0  0  -0.144678  0  4.032693  0  0  -0.147014  0  4.054256  0  0  -0.096412  -0.143163  0  4.01834  0
C  C94  1  0.47582404  0.56990943  0.08072211  1  0  -0.117366  0  3.735356  0  0  -0.133747  0  3.976496  0  0  -0.136441  0  3.996946  0  0  -0.091663  -0.13186  0  3.962848  0
C  C95  1  0.12650107  0.93006315  0.41933196  1  0  -0.118129  0  3.737124  0  0  -0.134602  0  3.978488  0  0  -0.137271  0  3.998903  0  0  -0.092124  -0.132742  0  3.964859  0
C  C96  1  0.52417641  0.43008948  0.91927815  1  0  -0.117355  0  3.735336  0  0  -0.133743  0  3.976498  0  0  -0.136435  0  3.996946  0  0  -0.091654  -0.131856  0  3.962851  0
C  C97  1  0.87349781  0.06994061  0.58066832  1  0  -0.118189  0  3.737167  0  0  -0.134708  0  3.978513  0  0  -0.137382  0  3.998941  0  0  -0.09218  -0.132848  0  3.964886  0
C  C98  1  0.49987616  0.09780902  0.86329846  1  0  0.661167  0  3.955868  0  0  0.616952  0  4.246275  0  0  0.650977  0  4.237481  0  0  0.194258  0.59393  0  4.251586  0
C  C99  1  0.46146103  0.40213369  0.63670745  1  0  0.659189  0  3.957282  0  0  0.614394  0  4.248686  0  0  0.648411  0  4.2399  0  0  0.19349  0.591374  0  4.254004  0
C  C100  1  0.50012646  0.90218988  0.13670065  1  0  0.661093  0  3.955821  0  0  0.616855  0  4.246267  0  0  0.650875  0  4.237479  0  0  0.194246  0.593831  0  4.251588  0
C  C101  1  0.53853778  0.59786716  0.36329343  1  0  0.659142  0  3.957371  0  0  0.614364  0  4.24875  0  0  0.648381  0  4.239963  0  0  0.193491  0.591344  0  4.254067  0
C  C102  1  0.54608054  0.01837538  0.95609205  1  0  -0.169685  0  3.670334  0  0  -0.185747  0  3.918978  0  0  -0.189947  0  3.931305  0  0  -0.085162  -0.183188  0  3.910723  0
C  C103  1  0.52069646  0.48166924  0.54380111  1  0  -0.167499  0  3.67036  0  0  -0.183566  0  3.91921  0  0  -0.187807  0  3.93156  0  0  -0.08439  -0.181115  0  3.911065  0
C  C104  1  0.45392296  0.98162159  0.04390822  1  0  -0.169573  0  3.670268  0  0  -0.185595  0  3.918874  0  0  -0.189801  0  3.931227  0  0  -0.085099  -0.183071  0  3.910588  0
C  C105  1  0.47930003  0.51833355  0.45619902  1  0  -0.167484  0  3.67039  0  0  -0.183574  0  3.919225  0  0  -0.187813  0  3.931573  0  0  -0.084417  -0.181124  0  3.91108  0
N  N106  1  0.09821682  0.38235608  0.81849454  1  0  -0.499234  0  3.180777  0  0  -0.431649  0  3.477302  0  0  -0.454001  0  3.485332  0  0  -0.357911  -0.416743  0  3.471838  0
N  N107  1  0.29895276  0.11773146  0.68145096  1  0  -0.498465  0  3.183985  0  0  -0.430607  0  3.480112  0  0  -0.453007  0  3.48817  0  0  -0.357298  -0.415666  0  3.47456  0
N  N108  1  0.90178293  0.61764283  0.18150541  1  0  -0.499157  0  3.180596  0  0  -0.431553  0  3.477172  0  0  -0.453906  0  3.485205  0  0  -0.357886  -0.416647  0  3.471704  0
N  N109  1  0.70104650  0.88226842  0.31854998  1  0  -0.498558  0  3.184002  0  0  -0.430717  0  3.480118  0  0  -0.45312  0  3.488176  0  0  -0.357357  -0.415777  0  3.474568  0
N  N110  1  0.88206330  0.47684611  0.94555480  1  0  -0.16738  0  3.486919  0  0  -0.084867  0  3.712182  0  0  -0.102075  0  3.734929  0  0  -0.240008  -0.073319  0  3.696481  0
N  N111  1  0.30438720  0.02326343  0.55440996  1  0  -0.164477  0  3.484658  0  0  -0.082749  0  3.710758  0  0  -0.099996  0  3.733487  0  0  -0.239309  -0.071181  0  3.695051  0
N  N112  1  0.11793645  0.52315280  0.05444515  1  0  -0.167356  0  3.486889  0  0  -0.084844  0  3.712195  0  0  -0.102055  0  3.734948  0  0  -0.24  -0.073295  0  3.696492  0
N  N113  1  0.69561164  0.97673742  0.44558987  1  0  -0.164517  0  3.48467  0  0  -0.082774  0  3.710752  0  0  -0.100028  0  3.733475  0  0  -0.239336  -0.071207  0  3.695045  0
O  O114  1  0.35904494  0.17276750  0.88276410  1  0  -0.66713  0  2.048407  0  0  -0.592366  0  2.326017  0  0  -0.621783  0  2.311076  0  0  -0.337263  -0.57184  0  2.335317  0
O  O115  1  0.41501728  0.32712742  0.61736272  1  0  -0.667031  0  2.050778  0  0  -0.591151  0  2.327716  0  0  -0.620621  0  2.312834  0  0  -0.336585  -0.57049  0  2.33685  0
O  O116  1  0.64095713  0.82722947  0.11723659  1  0  -0.667148  0  2.048432  0  0  -0.592362  0  2.326031  0  0  -0.621775  0  2.31109  0  0  -0.337302  -0.571835  0  2.335329  0
O  O117  1  0.58498128  0.67287246  0.38263791  1  0  -0.667032  0  2.050823  0  0  -0.59114  0  2.327728  0  0  -0.62061  0  2.312848  0  0  -0.336575  -0.570477  0  2.336864  0
O  O118  1  0.59577399  0.08356772  0.77205524  1  0  -0.604064  0  1.931269  0  0  -0.558659  0  2.157374  0  0  -0.581733  0  2.148304  0  0  -0.309012  -0.542453  0  2.163151  0
O  O119  1  0.45208229  0.41637737  0.72784931  1  0  -0.603713  0  1.931363  0  0  -0.558321  0  2.157884  0  0  -0.581419  0  2.148845  0  0  -0.308925  -0.542021  0  2.163686  0
O  O120  1  0.40422703  0.91643312  0.22794343  1  0  -0.604034  0  1.93123  0  0  -0.558622  0  2.157352  0  0  -0.581693  0  2.148286  0  0  -0.309002  -0.542414  0  2.163132  0
O  O121  1  0.54791651  0.58362348  0.27215157  1  0  -0.603665  0  1.931373  0  0  -0.558297  0  2.157916  0  0  -0.581397  0  2.148875  0  0  -0.308907  -0.541997  0  2.163717  0
