# generated using pymatgen
data_Zn4H13C21S2O19
_symmetry_space_group_name_H-M   'P 1'
_cell_length_a   18.50720180
_cell_length_b   18.50684422
_cell_length_c   18.52331082
_cell_angle_alpha   60.67074615
_cell_angle_beta   60.76002598
_cell_angle_gamma   60.16005606
_symmetry_Int_Tables_number   1
_chemical_formula_structural   Zn4H13C21S2O19
_chemical_formula_sum   'Zn8 H26 C42 S4 O38'
_cell_volume   4539.64880334
_cell_formula_units_Z   2
loop_
 _symmetry_equiv_pos_site_id
 _symmetry_equiv_pos_as_xyz
  1  'x, y, z'
loop_
 _atom_site_type_symbol
 _atom_site_label
 _atom_site_symmetry_multiplicity
 _atom_site_fract_x
 _atom_site_fract_y
 _atom_site_fract_z
 _atom_site_occupancy
 _atom_site_pbe_bader_charge
 _atom_site_pbe_bader_spin_density
 _atom_site_pbe_cm5_charge
 _atom_site_pbe_ddec_charge
 _atom_site_pbe_ddec_spin_density
 _atom_site_pbe_ddec_sum_bond_order
 _atom_site_pbe_magmom
Zn  Zn0  1  0.54764956  0.53753808  0.04943274  1  1.31405  0  0.675526  0.972399  0  2.349076  0
Zn  Zn1  1  0.54252421  0.53996391  0.87713455  1  1.306381  0  0.67606  0.958192  0  2.394486  0
Zn  Zn2  1  0.37237949  0.54208360  0.04488076  1  1.322743  0  0.671114  0.962088  0  2.373974  0
Zn  Zn3  1  0.54346551  0.36809829  0.04533272  1  1.314365  0  0.673109  0.962853  0  2.377373  0
Zn  Zn4  1  0.95562888  0.95572127  0.45989355  1  1.334284  0  0.688325  0.972607  0  2.36552  0
Zn  Zn5  1  0.12788287  0.95909557  0.45383627  1  1.311001  0  0.672701  0.965222  0  2.354773  0
Zn  Zn6  1  0.95466703  0.96041353  0.62948241  1  1.307354  0  0.673922  0.967637  0  2.35155  0
Zn  Zn7  1  0.95641146  0.13152906  0.45563098  1  1.320221  0  0.672378  0.964842  0  2.362488  0
H  H8  1  0.74648016  0.39311237  0.16079672  1  0.09653  0  0.111944  0.116628  0  0.984247  0
H  H9  1  0.11058717  0.81639724  0.79611537  1  0.116382  0  0.123291  0.126236  0  0.956063  0
H  H10  1  0.57309760  0.22408205  0.23993665  1  0.077992  0  0.104326  0.115272  0  1.024926  0
H  H11  1  0.34877066  0.73732442  0.73803928  1  0.123863  0  0.118808  0.141078  0  0.971323  0
H  H12  1  0.79077844  0.80057054  0.81491318  1  0.091609  0  0.114998  0.113429  0  0.975006  0
H  H13  1  0.78012933  0.80373344  0.65192816  1  0.134944  0  0.119427  0.148372  0  0.987642  0
H  H14  1  0.73606056  0.67650060  0.89131745  1  0.103192  0  0.119447  0.119983  0  0.963103  0
H  H15  1  0.55717952  0.08234987  0.35136688  1  0.083054  0  0.114278  0.118531  0  0.977834  0
H  H16  1  0.76692785  0.03526915  0.42573520  1  0.161221  0  0.113662  0.130574  0  1.035837  0
H  H17  1  0.19284241  0.72522126  0.17821082  1  0.101607  0  0.115923  0.116394  0  0.98609  0
H  H18  1  0.78168511  0.31545771  0.59543012  1  0.10861  0  0.116218  0.114609  0  0.970565  0
H  H19  1  0.35073438  0.74065065  0.17914413  1  0.08672  0  0.117438  0.138087  0  0.975987  0
H  H20  1  0.29232285  0.80663776  0.52700789  1  0.640427  0  0.32101  0.385598  0  0.909256  0
H  H21  1  0.19429019  0.68708303  0.89848576  1  0.10103  0  0.118199  0.11829  0  0.969171  0
H  H22  1  0.50958055  0.73892338  0.78100560  1  0.648221  0  0.325482  0.391708  0  0.895944  0
H  H23  1  0.66466023  0.84144493  0.46031339  1  0.62706  0  0.353201  0.408841  0  0.830029  0
H  H24  1  0.84433105  0.29846545  0.25371222  1  0.097199  0  0.112627  0.117942  0  0.984469  0
H  H25  1  0.06588920  0.86774555  0.12005981  1  0.62949  0  0.355939  0.40436  0  0.836606  0
H  H26  1  0.25148958  0.75469330  0.32050347  1  0.132705  0  0.128376  0.15189  0  0.956832  0
H  H27  1  0.09617358  0.31201683  0.30114634  1  0.117051  0  0.114649  0.112672  0  0.974028  0
H  H28  1  0.26695383  0.15200281  0.28178180  1  0.094405  0  0.114421  0.132871  0  0.982571  0
H  H29  1  0.19061539  0.40324216  0.19293715  1  0.104915  0  0.113785  0.110889  0  0.975154  0
H  H30  1  0.34536926  0.23759913  0.24192772  1  0.083825  0  0.114079  0.132532  0  0.982633  0
H  H31  1  0.81370109  0.16011414  0.76163714  1  0.086628  0  0.113181  0.130788  0  0.985546  0
H  H32  1  0.70250662  0.40828536  0.69117917  1  0.111053  0  0.117455  0.116569  0  0.969105  0
H  H33  1  0.68379346  0.23689482  0.84356724  1  0.081829  0  0.114612  0.133567  0  0.983158  0
C  C34  1  0.62286834  0.36361446  0.86416136  1  1.530728  0  0.222549  0.644077  0  4.180906  0
C  C35  1  0.18998618  0.80422979  0.30854582  1  0.023236  0  -0.058372  -0.192711  0  3.808076  0
C  C36  1  0.22535488  0.74784188  0.19496263  1  0.053428  0  -0.065635  -0.035141  0  3.998295  0
C  C37  1  0.36709144  0.65056793  0.12382066  1  1.58888  0  0.222458  0.649439  0  4.174306  0
C  C38  1  0.31388392  0.71745769  0.16869756  1  -0.117931  0  -0.0854  -0.221765  0  3.874183  0
C  C39  1  0.16735194  0.27869592  0.27926168  1  -0.06339  0  -0.063421  -0.017292  0  3.967853  0
C  C40  1  0.19716231  0.18990016  0.30359177  1  -0.025007  0  -0.083884  -0.222992  0  3.870275  0
C  C41  1  0.22233088  0.33354224  0.22463992  1  -0.018341  0  -0.06266  -0.014745  0  3.966574  0
C  C42  1  0.30936287  0.30550301  0.21063600  1  -0.031706  0  -0.084496  -0.224487  0  3.873361  0
C  C43  1  0.77283028  0.28309917  0.66539603  1  -0.054787  0  -0.060604  -0.014426  0  3.963758  0
C  C44  1  0.81691310  0.19589767  0.69327688  1  0.00533  0  -0.085081  -0.224821  0  3.877987  0
C  C45  1  0.72614004  0.07763901  0.38380046  1  0.087402  0  -0.072099  -0.122203  0  3.924382  0
C  C46  1  0.71569125  0.33726673  0.72172612  1  -0.121354  0  -0.059623  -0.011456  0  3.956736  0
C  C47  1  0.67650295  0.30643733  0.80891672  1  0.066808  0  -0.084474  -0.227322  0  3.874058  0
C  C48  1  0.17567210  0.77085493  0.77109268  1  -0.039406  0  -0.045974  -0.001369  0  3.931214  0
C  C49  1  0.63094453  0.63865765  0.87394837  1  1.574755  0  0.223836  0.628678  0  4.203778  0
C  C50  1  0.19585248  0.77444630  0.68903733  1  -0.14151  0  -0.020934  -0.259188  0  3.868204  0
C  C51  1  0.22787628  0.71668014  0.82949230  1  -0.039821  0  -0.06196  -0.01823  0  3.960263  0
C  C52  1  0.31298989  0.70627992  0.80501596  1  0.052647  0  -0.0762  -0.200307  0  3.867208  0
C  C53  1  0.76850291  0.78644312  0.77984532  1  0.017712  0  -0.064883  -0.023296  0  3.968196  0
C  C54  1  0.79615155  0.81826334  0.69165031  1  -0.033777  0  -0.069064  -0.188611  0  3.819587  0
C  C55  1  0.71951417  0.72612120  0.83210508  1  0.020173  0  -0.049076  -0.005946  0  3.93649  0
C  C56  1  0.73627044  0.15926060  0.32146426  1  -0.066256  0  0.008942  0.073047  0  3.920848  0
C  C57  1  0.65859470  0.71788135  0.81885191  1  -0.145006  0  -0.017265  -0.23981  0  3.846285  0
C  C58  1  0.13851366  0.13686838  0.36137709  1  1.52595  0  0.221802  0.645309  0  4.179269  0
C  C59  1  0.85420063  0.87204167  0.64067441  1  1.548565  0  0.227904  0.646994  0  4.156133  0
C  C60  1  0.13617782  0.86000513  0.36601533  1  1.622248  0  0.230147  0.652842  0  4.180114  0
C  C61  1  0.36329520  0.36301897  0.15018428  1  1.561027  0  0.220083  0.641469  0  4.183849  0
C  C62  1  0.87097101  0.14150115  0.63518433  1  1.552245  0  0.220011  0.643182  0  4.18203  0
C  C63  1  0.13752879  0.84633333  0.63508382  1  1.602296  0  0.23524  0.643412  0  4.15855  0
C  C64  1  0.86063564  0.13680974  0.36425198  1  1.546593  0  0.235263  0.613701  0  4.145021  0
C  C65  1  0.36495766  0.64845936  0.86550005  1  1.540622  0  0.227556  0.650823  0  4.150275  0
C  C66  1  0.63569912  0.35679529  0.14555502  1  1.58401  0  0.232832  0.614714  0  4.152466  0
C  C67  1  0.67986581  0.21350107  0.26786463  1  0.045225  0  0.008616  0.066981  0  3.924317  0
C  C68  1  0.61621130  0.18321775  0.27978020  1  0.052814  0  -0.084851  -0.12235  0  3.958811  0
C  C69  1  0.60732991  0.10404597  0.34136152  1  -0.071273  0  -0.07704  -0.076699  0  3.993769  0
C  C70  1  0.66351299  0.05161698  0.39287724  1  -0.184281  0  -0.012841  -0.069672  0  3.985914  0
C  C71  1  0.68708896  0.29780428  0.20798864  1  -0.042471  0  -0.004489  -0.067449  0  3.918488  0
C  C72  1  0.74402795  0.32773453  0.20528130  1  0.008611  0  -0.075145  -0.085297  0  3.985153  0
C  C73  1  0.79891581  0.27468929  0.25747499  1  -0.089156  0  -0.075852  -0.085558  0  3.984208  0
C  C74  1  0.79732922  0.19094850  0.31344200  1  0.022985  0  -0.000441  -0.061325  0  3.905715  0
C  C75  1  0.17012129  0.80818637  0.24543730  1  -0.158422  0  0.002348  -0.040802  0  3.934497  0
S  S76  1  0.28363704  0.69488820  0.63670631  1  3.126344  0  0.531688  1.170548  0  6.046284  0
S  S77  1  0.60762986  0.79572880  0.73558348  1  3.102285  0  0.540782  1.186584  0  5.978828  0
S  S78  1  0.64986249  0.95331171  0.47920309  1  3.022779  0  0.538632  1.158799  0  5.966579  0
S  S79  1  0.06954619  0.88789804  0.22178816  1  3.039457  0  0.544752  1.152429  0  5.952874  0
O  O80  1  0.50170875  0.49738594  0.00498245  1  -1.22395  0  -0.572625  -1.030568  0  2.542367  0
O  O81  1  0.89922528  0.05831748  0.67450288  1  -1.165503  0  -0.322158  -0.55395  0  2.289898  0
O  O82  1  0.17700875  0.87247778  0.55205661  1  -1.17521  0  -0.304401  -0.560431  0  2.349572  0
O  O83  1  0.60073671  0.32359453  0.94688852  1  -1.173181  0  -0.318401  -0.549096  0  2.290533  0
O  O84  1  0.88102988  0.17912312  0.38497953  1  -1.152435  0  -0.313104  -0.546013  0  2.321553  0
O  O85  1  0.05646993  0.87705242  0.67446308  1  -1.174508  0  -0.297642  -0.518694  0  2.309221  0
O  O86  1  0.89008941  0.05359928  0.38162016  1  -1.162063  0  -0.300511  -0.526688  0  2.381642  0
O  O87  1  0.05423055  0.87277833  0.39905200  1  -1.168986  0  -0.298789  -0.53019  0  2.352655  0
O  O88  1  0.88464877  0.17981946  0.55292371  1  -1.164285  0  -0.317378  -0.553192  0  2.312897  0
O  O89  1  0.17821156  0.05318523  0.38590780  1  -1.163479  0  -0.321967  -0.552402  0  2.289718  0
O  O90  1  0.87496260  0.89479093  0.68132167  1  -1.172941  0  -0.31962  -0.560532  0  2.304313  0
O  O91  1  0.62665863  0.60446996  0.95399016  1  -1.16995  0  -0.312823  -0.539256  0  2.300428  0
O  O92  1  0.45030261  0.62519307  0.10556506  1  -1.163899  0  -0.315956  -0.545466  0  2.287338  0
O  O93  1  0.61460949  0.61162608  0.83386182  1  -1.176459  0  -0.315045  -0.5526  0  2.374904  0
O  O94  1  0.32421760  0.44562241  0.11901055  1  -1.179658  0  -0.318157  -0.553664  0  2.311716  0
O  O95  1  0.44722558  0.63941972  0.83109281  1  -1.171676  0  -0.314709  -0.555933  0  2.290145  0
O  O96  1  0.62516499  0.32077569  0.10937464  1  -1.165278  0  -0.310038  -0.543108  0  2.34675  0
O  O97  1  0.32665204  0.61050042  0.94500309  1  -1.174088  0  -0.313391  -0.550468  0  2.305225  0
O  O98  1  0.60853526  0.43941981  0.13187572  1  -1.172759  0  -0.31347  -0.547131  0  2.324807  0
O  O99  1  0.34166940  0.62949405  0.68644658  1  -1.298943  0  -0.303521  -0.507353  0  2.135601  0
O  O100  1  0.24016329  0.66951881  0.61070457  1  -1.269148  0  -0.32374  -0.533757  0  2.077299  0
O  O101  1  0.33799224  0.75478638  0.55281138  1  -1.216918  0  -0.365383  -0.525362  0  2.130923  0
O  O102  1  0.44662690  0.32328415  0.13368615  1  -1.168523  0  -0.319465  -0.551828  0  2.293894  0
O  O103  1  0.59624349  0.88197191  0.72576616  1  -1.268896  0  -0.297279  -0.496152  0  2.120954  0
O  O104  1  0.65063715  0.76359377  0.66273226  1  -1.280891  0  -0.317682  -0.540317  0  2.121504  0
O  O105  1  0.51007565  0.79028443  0.78429215  1  -1.205452  0  -0.365532  -0.535507  0  2.146417  0
O  O106  1  0.71189889  0.91799467  0.52341348  1  -1.276521  0  -0.298612  -0.515959  0  2.195076  0
O  O107  1  0.55754271  0.96722379  0.52720877  1  -1.290323  0  -0.325289  -0.544726  0  2.090435  0
O  O108  1  0.68255459  0.89344237  0.42041531  1  -1.17443  0  -0.37433  -0.555529  0  2.095962  0
O  O109  1  0.00152430  0.84890023  0.27202391  1  -1.273278  0  -0.310112  -0.522616  0  2.075642  0
O  O110  1  0.05781965  0.97157413  0.21912179  1  -1.261879  0  -0.297701  -0.494425  0  2.119097  0
O  O111  1  0.09822094  0.89609004  0.12070430  1  -1.168242  0  -0.363115  -0.535779  0  2.117422  0
O  O112  1  0.60359361  0.44706487  0.82596031  1  -1.17353  0  -0.316045  -0.546833  0  2.325992  0
O  O113  1  0.32633400  0.62365690  0.10799642  1  -1.168304  0  -0.319995  -0.556773  0  2.316919  0
O  O114  1  0.99992843  0.00160038  0.50090340  1  -1.235023  0  -0.570694  -1.031837  0  2.531975  0
O  O115  1  0.05536362  0.17672736  0.38226145  1  -1.165437  0  -0.317025  -0.555118  0  2.316572  0
O  O116  1  0.87977254  0.89053484  0.55792845  1  -1.142899  0  -0.306404  -0.525958  0  2.322491  0
O  O117  1  0.17919398  0.88689850  0.37868009  1  -1.144278  0  -0.311475  -0.536099  0  2.271551  0
