# generated using pymatgen
data_SbH10C6S4Br3N2
_symmetry_space_group_name_H-M   'P 1'
_cell_length_a   8.52110062
_cell_length_b   12.29498860
_cell_length_c   14.88240000
_cell_angle_alpha   90.00000000
_cell_angle_beta   90.00000000
_cell_angle_gamma   100.36274548
_symmetry_Int_Tables_number   1
_chemical_formula_structural   SbH10C6S4Br3N2
_chemical_formula_sum   'Sb4 H40 C24 S16 Br12 N8'
_cell_volume   1533.74956445
_cell_formula_units_Z   4
loop_
 _symmetry_equiv_pos_site_id
 _symmetry_equiv_pos_as_xyz
  1  'x, y, z'
loop_
 _atom_site_type_symbol
 _atom_site_label
 _atom_site_symmetry_multiplicity
 _atom_site_fract_x
 _atom_site_fract_y
 _atom_site_fract_z
 _atom_site_occupancy
 _atom_site_hle17_bader_spin_density
 _atom_site_hle17_ddec_charge
 _atom_site_hle17_ddec_spin_density
 _atom_site_hle17_ddec_sum_bond_order
 _atom_site_hle17_magmom
 _atom_site_hse06_10hf_bader_spin_density
 _atom_site_hse06_10hf_ddec_charge
 _atom_site_hse06_10hf_ddec_spin_density
 _atom_site_hse06_10hf_ddec_sum_bond_order
 _atom_site_hse06_10hf_magmom
 _atom_site_hse06_bader_spin_density
 _atom_site_hse06_ddec_charge
 _atom_site_hse06_ddec_spin_density
 _atom_site_hse06_ddec_sum_bond_order
 _atom_site_hse06_magmom
 _atom_site_pbe_bader_charge
 _atom_site_pbe_bader_spin_density
 _atom_site_pbe_cm5_charge
 _atom_site_pbe_ddec_charge
 _atom_site_pbe_ddec_spin_density
 _atom_site_pbe_ddec_sum_bond_order
 _atom_site_pbe_magmom
Sb  Sb0  1  0.25029660  0.21292676  0.76393727  1  0  0.716164  0  2.943327  0  0  0.643773  0  3.447941  0  0  0.669546  0  3.437524  0  1.266485  0  0.343695  0.622248  0  3.456257  0
Sb  Sb1  1  0.74969525  0.28706082  0.26394197  1  0  0.716155  0  2.943173  0  0  0.643767  0  3.447757  0  0  0.669541  0  3.437337  0  1.266131  0  0.343694  0.622229  0  3.456096  0
Sb  Sb2  1  0.74968060  0.78707733  0.23605736  1  0  0.716274  0  2.942943  0  0  0.643929  0  3.447428  0  0  0.669704  0  3.437004  0  1.266185  0  0.343712  0.622344  0  3.455857  0
Sb  Sb3  1  0.25030774  0.71292508  0.73607012  1  0  0.716211  0  2.943097  0  0  0.64382  0  3.447707  0  0  0.669597  0  3.437286  0  1.26643  0  0.343718  0.622263  0  3.45608  0
H  H4  1  0.69590757  0.99707051  0.82302384  1  0  0.109591  0  0.933946  0  0  0.120128  0  0.997333  0  0  0.121748  0  0.997248  0  0.076357  0  0.091017  0.118867  0  0.99759  0
H  H5  1  0.30410065  0.50295423  0.32302048  1  0  0.109726  0  0.933994  0  0  0.120241  0  0.997394  0  0  0.121857  0  0.997301  0  0.076202  0  0.091025  0.118982  0  0.997659  0
H  H6  1  0.30411638  0.00294185  0.17697347  1  0  0.109581  0  0.933942  0  0  0.12011  0  0.997357  0  0  0.121741  0  0.997274  0  0.076522  0  0.090999  0.11885  0  0.997617  0
H  H7  1  0.69590836  0.49706392  0.67696944  1  0  0.109618  0  0.933992  0  0  0.120145  0  0.997376  0  0  0.121772  0  0.997291  0  0.076388  0  0.091009  0.118887  0  0.99763  0
H  H8  1  0.73269243  0.88018209  0.88644506  1  0  0.109299  0  0.955489  0  0  0.117917  0  1.025865  0  0  0.119886  0  1.0253  0  0.131882  0  0.09128  0.116458  0  1.026361  0
H  H9  1  0.26729465  0.61983355  0.38645380  1  0  0.109302  0  0.955442  0  0  0.117951  0  1.025792  0  0  0.119915  0  1.025221  0  0.131461  0  0.09132  0.116494  0  1.026294  0
H  H10  1  0.26731923  0.11982365  0.11354956  1  0  0.109211  0  0.955615  0  0  0.117844  0  1.02598  0  0  0.119822  0  1.025419  0  0.131742  0  0.091251  0.116387  0  1.026478  0
H  H11  1  0.73270412  0.38018129  0.61354217  1  0  0.109275  0  0.955662  0  0  0.11793  0  1.02596  0  0  0.119907  0  1.025393  0  0.131624  0  0.091275  0.116471  0  1.02646  0
H  H12  1  0.59637530  0.04609473  0.96374711  1  0  0.082711  0  0.947009  0  0  0.098273  0  1.009265  0  0  0.099139  0  1.008863  0  0.097682  0  0.103054  0.097558  0  1.009761  0
H  H13  1  0.40364144  0.45391186  0.46373972  1  0  0.082642  0  0.947025  0  0  0.098237  0  1.009225  0  0  0.099104  0  1.008826  0  0.097651  0  0.103037  0.097521  0  1.009722  0
H  H14  1  0.40363583  0.95390439  0.03625087  1  0  0.082677  0  0.947174  0  0  0.098279  0  1.009344  0  0  0.099141  0  1.008957  0  0.097488  0  0.103106  0.097562  0  1.00984  0
H  H15  1  0.59637908  0.54609636  0.53624819  1  0  0.08268  0  0.947023  0  0  0.09827  0  1.009271  0  0  0.099138  0  1.008867  0  0.097712  0  0.10309  0.097553  0  1.009768  0
H  H16  1  0.72568527  0.97501822  0.02752647  1  0  0.064839  0  0.93961  0  0  0.072851  0  1.017916  0  0  0.073802  0  1.01737  0  0.070644  0  0.092215  0.071998  0  1.018417  0
H  H17  1  0.27432399  0.52498335  0.52752311  1  0  0.064826  0  0.939702  0  0  0.072823  0  1.018003  0  0  0.073815  0  1.01742  0  0.070551  0  0.092232  0.07197  0  1.018504  0
H  H18  1  0.27433289  0.02498090  0.97247084  1  0  0.064847  0  0.939598  0  0  0.072801  0  1.017952  0  0  0.073799  0  1.017364  0  0.070476  0  0.092251  0.071947  0  1.018454  0
H  H19  1  0.72569100  0.47503065  0.47246681  1  0  0.064796  0  0.939852  0  0  0.072774  0  1.018167  0  0  0.07377  0  1.017583  0  0.071014  0  0.092234  0.071922  0  1.018666  0
H  H20  1  0.84014355  0.88312642  0.54556187  1  0  0.095837  0  0.985461  0  0  0.102425  0  1.064241  0  0  0.1042  0  1.063911  0  0.105653  0  0.084287  0.10123  0  1.064438  0
H  H21  1  0.15984084  0.61686524  0.04555112  1  0  0.095752  0  0.985531  0  0  0.102269  0  1.064439  0  0  0.104045  0  1.064119  0  0.105288  0  0.084225  0.101072  0  1.06463  0
H  H22  1  0.15984036  0.11686278  0.45445829  1  0  0.095743  0  0.985475  0  0  0.102292  0  1.064372  0  0  0.104068  0  1.064052  0  0.105418  0  0.084198  0.101089  0  1.064565  0
H  H23  1  0.84015268  0.38313388  0.95444821  1  0  0.095792  0  0.985534  0  0  0.102327  0  1.064408  0  0  0.104104  0  1.064082  0  0.1053  0  0.084245  0.10113  0  1.064601  0
H  H24  1  0.79777758  0.88326450  0.66338225  1  0  0.104019  0  0.951687  0  0  0.116591  0  1.015919  0  0  0.118286  0  1.015772  0  0.082909  0  0.083468  0.115275  0  1.016288  0
H  H25  1  0.20220809  0.61673212  0.16336948  1  0  0.104061  0  0.951703  0  0  0.116591  0  1.016016  0  0  0.11834  0  1.015819  0  0.083298  0  0.083482  0.115265  0  1.016388  0
H  H26  1  0.20219235  0.11672967  0.33663791  1  0  0.104007  0  0.951765  0  0  0.116605  0  1.015994  0  0  0.118356  0  1.015796  0  0.083396  0  0.083455  0.115276  0  1.016364  0
H  H27  1  0.79778895  0.38326700  0.83662245  1  0  0.104049  0  0.951375  0  0  0.116603  0  1.015699  0  0  0.118314  0  1.015537  0  0.083286  0  0.083489  0.115276  0  1.016072  0
H  H28  1  0.68089282  0.02058053  0.51228229  1  0  0.072765  0  0.912124  0  0  0.086576  0  0.977372  0  0  0.087302  0  0.977131  0  0.069755  0  0.096645  0.08583  0  0.977796  0
H  H29  1  0.31909369  0.47940456  0.01227759  1  0  0.072728  0  0.912236  0  0  0.086421  0  0.977549  0  0  0.087181  0  0.977269  0  0.069564  0  0.096558  0.085678  0  0.977973  0
H  H30  1  0.31910217  0.97940619  0.48772241  1  0  0.072754  0  0.912223  0  0  0.086477  0  0.977498  0  0  0.087218  0  0.977238  0  0.069755  0  0.096558  0.085732  0  0.977923  0
H  H31  1  0.68089502  0.52058960  0.98772577  1  0  0.072864  0  0.912061  0  0  0.086568  0  0.977382  0  0  0.0873  0  0.977131  0  0.069769  0  0.096614  0.085824  0  0.977807  0
H  H32  1  0.56899304  0.95268152  0.60490848  1  0  0.082568  0  0.948859  0  0  0.094049  0  1.018437  0  0  0.095387  0  1.017333  0  0.129554  0  0.096599  0.092905  0  1.019302  0
H  H33  1  0.43099476  0.54731428  0.10489840  1  0  0.082385  0  0.949001  0  0  0.093841  0  1.018537  0  0  0.095176  0  1.017439  0  0.129479  0  0.096518  0.092699  0  1.019403  0
H  H34  1  0.43099119  0.04731347  0.39510025  1  0  0.08243  0  0.949045  0  0  0.09387  0  1.018599  0  0  0.095206  0  1.017498  0  0.129491  0  0.09652  0.092727  0  1.019467  0
H  H35  1  0.56900568  0.45267989  0.89509824  1  0  0.082394  0  0.949009  0  0  0.093892  0  1.018522  0  0  0.095228  0  1.017421  0  0.129758  0  0.096528  0.092752  0  1.019388  0
H  H36  1  0.80835860  0.19116552  0.01668682  1  0  0.288961  0  0.912061  0  0  0.268973  0  0.983924  0  0  0.27722  0  0.977398  0  0.49459  0  0.288719  0.26328  0  0.988397  0
H  H37  1  0.19166496  0.30884025  0.51668414  1  0  0.288864  0  0.912228  0  0  0.268856  0  0.984057  0  0  0.277103  0  0.977531  0  0.49424  0  0.288655  0.263164  0  0.988528  0
H  H38  1  0.19165082  0.80883609  0.98331653  1  0  0.288881  0  0.912178  0  0  0.268893  0  0.98398  0  0  0.277136  0  0.977467  0  0.494222  0  0.288686  0.263205  0  0.988448  0
H  H39  1  0.80835834  0.69116963  0.48330713  1  0  0.288975  0  0.911984  0  0  0.268995  0  0.983838  0  0  0.277246  0  0.977303  0  0.494135  0  0.288683  0.263304  0  0.988309  0
H  H40  1  0.64148976  0.14827556  0.65092189  1  0  0.293991  0  0.906822  0  0  0.273078  0  0.98021  0  0  0.281396  0  0.973264  0  0.489717  0  0.29072  0.267278  0  0.985043  0
H  H41  1  0.35848962  0.35172276  0.15092257  1  0  0.293935  0  0.906964  0  0  0.273002  0  0.980378  0  0  0.281324  0  0.973428  0  0.489456  0  0.290675  0.267203  0  0.985208  0
H  H42  1  0.35850068  0.85173431  0.34907004  1  0  0.293948  0  0.906959  0  0  0.273022  0  0.980337  0  0  0.281342  0  0.973391  0  0.489607  0  0.290715  0.267227  0  0.985159  0
H  H43  1  0.64149279  0.64826975  0.84908281  1  0  0.294067  0  0.906685  0  0  0.273062  0  0.980172  0  0  0.281381  0  0.973226  0  0.489833  0  0.290737  0.267264  0  0.985002  0
C  C44  1  0.96839834  0.13545728  0.93083239  1  0  0.226959  0  3.833136  0  0  0.202751  0  4.143929  0  0  0.226048  0  4.152305  0  0.301569  0  0.136121  0.187159  0  4.137453  0
C  C45  1  0.03160890  0.36454435  0.43084046  1  0  0.227167  0  3.833047  0  0  0.202948  0  4.143755  0  0  0.226248  0  4.152131  0  0.301904  0  0.136244  0.187355  0  4.137278  0
C  C46  1  0.03161110  0.86455342  0.06916290  1  0  0.227296  0  3.832797  0  0  0.203053  0  4.143566  0  0  0.226352  0  4.151941  0  0.301515  0  0.136294  0.187464  0  4.137084  0
C  C47  1  0.96840191  0.63545808  0.56915887  1  0  0.227045  0  3.832946  0  0  0.20285  0  4.143709  0  0  0.226148  0  4.152085  0  0.301923  0  0.136202  0.18726  0  4.137227  0
C  C48  1  0.75746197  0.97046159  0.88163603  1  0  -0.156149  0  3.571154  0  0  -0.189843  0  3.82581  0  0  -0.189922  0  3.835281  0  -0.118618  0  -0.145325  -0.189688  0  3.819244  0
C  C49  1  0.24255221  0.52954992  0.38163267  1  0  -0.15631  0  3.570913  0  0  -0.190075  0  3.825583  0  0  -0.190158  0  3.835101  0  -0.118213  0  -0.145403  -0.18991  0  3.818963  0
C  C50  1  0.24255536  0.02955242  0.11835725  1  0  -0.156101  0  3.571228  0  0  -0.189882  0  3.826019  0  0  -0.190027  0  3.835597  0  -0.118743  0  -0.145351  -0.189715  0  3.819411  0
C  C51  1  0.75745732  0.47045665  0.61835322  1  0  -0.156371  0  3.571084  0  0  -0.190061  0  3.82575  0  0  -0.190213  0  3.835357  0  -0.127824  0  -0.145386  -0.189897  0  3.819154  0
C  C52  1  0.71661073  0.02651549  0.96781164  1  0  0.05596  0  3.619769  0  0  -0.003103  0  3.876264  0  0  0.001486  0  3.886978  0  0.291199  0  -0.0609  -0.005921  0  3.868988  0
C  C53  1  0.28340259  0.47348697  0.46780963  1  0  0.056249  0  3.619776  0  0  -0.00281  0  3.876144  0  0  0.00174  0  3.886838  0  0.291544  0  -0.060789  -0.005622  0  3.868873  0
C  C54  1  0.28341181  0.97348694  0.03218634  1  0  0.056177  0  3.619755  0  0  -0.002873  0  3.876191  0  0  0.001694  0  3.886894  0  0.291898  0  -0.060903  -0.005686  0  3.868919  0
C  C55  1  0.71661025  0.52651877  0.53218029  1  0  0.056325  0  3.619815  0  0  -0.002781  0  3.876379  0  0  0.001785  0  3.88708  0  0.300347  0  -0.060856  -0.005598  0  3.869111  0
C  C56  1  0.87992905  0.13630477  0.65301094  1  0  0.225158  0  3.851202  0  0  0.200765  0  4.162795  0  0  0.224234  0  4.170945  0  0.301703  0  0.13146  0.18532  0  4.156119  0
C  C57  1  0.12004949  0.36369933  0.15300892  1  0  0.225344  0  3.850909  0  0  0.200878  0  4.16266  0  0  0.224351  0  4.170803  0  0.301182  0  0.131454  0.185432  0  4.155986  0
C  C58  1  0.12005476  0.86369766  0.34699511  1  0  0.225357  0  3.850884  0  0  0.20086  0  4.16263  0  0  0.224332  0  4.170775  0  0.301618  0  0.131506  0.185412  0  4.155956  0
C  C59  1  0.87992953  0.63630723  0.84698906  1  0  0.225301  0  3.851118  0  0  0.200901  0  4.162712  0  0  0.224372  0  4.170855  0  0.30177  0  0.13152  0.185456  0  4.156036  0
C  C60  1  0.81865443  0.93445496  0.60266892  1  0  -0.162764  0  3.598508  0  0  -0.200243  0  3.856626  0  0  -0.200544  0  3.866395  0  -0.120082  0  -0.153722  -0.20019  0  3.850465  0
C  C61  1  0.18132825  0.56553918  0.10266221  1  0  -0.162609  0  3.598629  0  0  -0.200165  0  3.856913  0  0  -0.200525  0  3.86669  0  -0.119937  0  -0.153688  -0.200088  0  3.850739  0
C  C62  1  0.18132446  0.06553755  0.39734586  1  0  -0.162443  0  3.598476  0  0  -0.200067  0  3.856743  0  0  -0.200424  0  3.866507  0  -0.119988  0  -0.153607  -0.199969  0  3.85054  0
C  C63  1  0.81867434  0.43446325  0.89734519  1  0  -0.162654  0  3.598568  0  0  -0.200198  0  3.856859  0  0  -0.200522  0  3.866641  0  -0.119901  0  -0.153681  -0.200123  0  3.850687  0
C  C64  1  0.68545835  0.99917809  0.58410471  1  0  0.057987  0  3.618109  0  0  0.00072  0  3.875353  0  0  0.005011  0  3.886715  0  0.261152  0  -0.061885  -0.001929  0  3.86779  0
C  C65  1  0.31452848  0.50080944  0.08409799  1  0  0.058063  0  3.618356  0  0  0.00109  0  3.875275  0  0  0.005366  0  3.886648  0  0.261416  0  -0.06171  -0.001571  0  3.867717  0
C  C66  1  0.31452982  0.00080946  0.41590335  1  0  0.05784  0  3.618568  0  0  0.00078  0  3.875589  0  0  0.005063  0  3.886967  0  0.261005  0  -0.061767  -0.001884  0  3.868024  0
C  C67  1  0.68547069  0.49918886  0.91589999  1  0  0.057761  0  3.618534  0  0  0.000679  0  3.875584  0  0  0.004969  0  3.886954  0  0.260743  0  -0.061854  -0.001983  0  3.868027  0
S  S68  1  0.97207849  0.01709546  0.86732113  1  0  0.038581  0  2.495094  0  0  0.046634  0  2.854571  0  0  0.040533  0  2.855757  0  0.135993  0  0.046563  0.050955  0  2.853668  0
S  S69  1  0.02792192  0.48290700  0.36731777  1  0  0.038361  0  2.494931  0  0  0.046459  0  2.854319  0  0  0.040353  0  2.855496  0  0.135656  0  0.046459  0.050784  0  2.853414  0
S  S70  1  0.02793681  0.98291524  0.13268156  1  0  0.038421  0  2.495158  0  0  0.046518  0  2.854577  0  0  0.040433  0  2.855777  0  0.135972  0  0.046517  0.050841  0  2.853671  0
S  S71  1  0.97208462  0.51709709  0.63267954  1  0  0.038468  0  2.494846  0  0  0.046563  0  2.854241  0  0  0.040479  0  2.855438  0  0.13547  0  0.046503  0.050886  0  2.853337  0
S  S72  1  0.12518340  0.24104546  0.93592297  1  0  -0.262759  0  2.0688  0  0  -0.254614  0  2.402623  0  0  -0.26934  0  2.402191  0  -0.117726  0  -0.122049  -0.24405  0  2.402801  0
S  S73  1  0.87482544  0.25895782  0.43593842  1  0  -0.262735  0  2.068637  0  0  -0.254631  0  2.402455  0  0  -0.26936  0  2.40202  0  -0.117645  0  -0.122032  -0.244066  0  2.402634  0
S  S74  1  0.87482539  0.75896276  0.06407031  1  0  -0.262844  0  2.068526  0  0  -0.254705  0  2.402346  0  0  -0.269432  0  2.401906  0  -0.117643  0  -0.122066  -0.244132  0  2.402528  0
S  S75  1  0.12519849  0.74104544  0.56407098  1  0  -0.262793  0  2.068743  0  0  -0.254669  0  2.402566  0  0  -0.269399  0  2.402137  0  -0.117901  0  -0.122066  -0.2441  0  2.402742  0
S  S76  1  0.99549753  0.04061039  0.61927444  1  0  0.029038  0  2.496643  0  0  0.035524  0  2.856301  0  0  0.030048  0  2.856034  0  0.142378  0  0.044179  0.038739  0  2.857028  0
S  S77  1  0.00449112  0.45938297  0.11927176  1  0  0.028915  0  2.497209  0  0  0.035519  0  2.8568  0  0  0.030047  0  2.856554  0  0.14244  0  0.044187  0.038731  0  2.857519  0
S  S78  1  0.00448733  0.95937798  0.38073765  1  0  0.028933  0  2.497009  0  0  0.035455  0  2.856787  0  0  0.02998  0  2.856543  0  0.142497  0  0.044172  0.038663  0  2.857498  0
S  S79  1  0.99549973  0.54061946  0.88073362  1  0  0.029014  0  2.4969  0  0  0.035511  0  2.856615  0  0  0.030039  0  2.856357  0  0.142487  0  0.044174  0.038727  0  2.857334  0
S  S80  1  0.95916777  0.25963582  0.69834637  1  0  -0.294513  0  2.179407  0  0  -0.288451  0  2.53692  0  0  -0.303979  0  2.53626  0  -0.135865  0  -0.129623  -0.277489  0  2.537401  0
S  S81  1  0.04082261  0.24036416  0.19835242  1  0  -0.294581  0  2.179202  0  0  -0.288474  0  2.536682  0  0  -0.304002  0  2.536023  0  -0.13562  0  -0.129614  -0.277517  0  2.537173  0
S  S82  1  0.04081540  0.74036413  0.30164086  1  0  -0.294652  0  2.179102  0  0  -0.288556  0  2.536584  0  0  -0.304082  0  2.535928  0  -0.136041  0  -0.129683  -0.277589  0  2.537078  0
S  S83  1  0.95916706  0.75962918  0.80164624  1  0  -0.294616  0  2.17952  0  0  -0.288553  0  2.537019  0  0  -0.304079  0  2.536354  0  -0.135995  0  -0.129664  -0.27759  0  2.537512  0
Br  Br84  1  0.32130174  0.42653151  0.76697710  1  0  -0.321662  0  1.189411  0  0  -0.290784  0  1.484477  0  0  -0.295639  0  1.471212  0  -0.458085  0  -0.141582  -0.282455  0  1.492453  0
Br  Br85  1  0.67868381  0.07345441  0.26695022  1  0  -0.321686  0  1.189331  0  0  -0.290824  0  1.484422  0  0  -0.295662  0  1.471116  0  -0.458059  0  -0.141596  -0.282471  0  1.492363  0
Br  Br86  1  0.67869573  0.57346927  0.23302626  1  0  -0.321682  0  1.189358  0  0  -0.290828  0  1.484405  0  0  -0.295684  0  1.471141  0  -0.45804  0  -0.1416  -0.282486  0  1.492385  0
Br  Br87  1  0.32130584  0.92652983  0.73302357  1  0  -0.321667  0  1.189385  0  0  -0.290801  0  1.484478  0  0  -0.295658  0  1.471216  0  -0.458128  0  -0.141589  -0.282457  0  1.492434  0
Br  Br88  1  0.53541077  0.20098821  0.83612321  1  0  -0.391138  0  1.061282  0  0  -0.359016  0  1.347781  0  0  -0.371289  0  1.335482  0  -0.538519  0  -0.19737  -0.352063  0  1.356211  0
Br  Br89  1  0.46457436  0.29899605  0.33612791  1  0  -0.39113  0  1.061175  0  0  -0.359006  0  1.347635  0  0  -0.371283  0  1.335345  0  -0.538345  0  -0.197375  -0.352056  0  1.356067  0
Br  Br90  1  0.46455500  0.79900347  0.16387612  1  0  -0.391062  0  1.061141  0  0  -0.358956  0  1.347635  0  0  -0.37123  0  1.335338  0  -0.5384  0  -0.197341  -0.351997  0  1.356079  0
Br  Br91  1  0.53542868  0.70094933  0.66389494  1  0  -0.391132  0  1.061207  0  0  -0.359019  0  1.347704  0  0  -0.371296  0  1.335406  0  -0.538187  0  -0.19735  -0.352062  0  1.35614  0
Br  Br92  1  0.39007926  0.21907255  0.59415887  1  0  -0.429111  0  0.991532  0  0  -0.388428  0  1.258581  0  0  -0.401434  0  1.244602  0  -0.569494  0  -0.20752  -0.37913  0  1.268413  0
Br  Br93  1  0.60992507  0.28091336  0.09416761  1  0  -0.429107  0  0.991573  0  0  -0.388429  0  1.25862  0  0  -0.401434  0  1.244639  0  -0.56949  0  -0.207518  -0.379134  0  1.268453  0
Br  Br94  1  0.60988774  0.78088771  0.40583575  1  0  -0.429238  0  0.991478  0  0  -0.388563  0  1.258492  0  0  -0.401567  0  1.244509  0  -0.569441  0  -0.207574  -0.379258  0  1.268332  0
Br  Br95  1  0.39012153  0.71912297  0.90583911  1  0  -0.429171  0  0.991574  0  0  -0.388462  0  1.25856  0  0  -0.401464  0  1.244582  0  -0.569505  0  -0.207538  -0.37916  0  1.268397  0
N  N96  1  0.83145789  0.12986711  0.97452360  1  0  -0.314824  0  3.381354  0  0  -0.250256  0  3.622138  0  0  -0.268523  0  3.63316  0  -1.204212  0  -0.399483  -0.238123  0  3.61454  0
N  N97  1  0.16855992  0.37014362  0.47452561  1  0  -0.315064  0  3.381884  0  0  -0.250369  0  3.622525  0  0  -0.26863  0  3.633552  0  -1.204009  0  -0.399574  -0.23824  0  3.614926  0
N  N98  1  0.16855571  0.87014607  0.02547237  1  0  -0.315135  0  3.381733  0  0  -0.250439  0  3.62242  0  0  -0.268705  0  3.633451  0  -1.204143  0  -0.399598  -0.238315  0  3.614823  0
N  N99  1  0.83145826  0.62986460  0.52546901  1  0  -0.314953  0  3.381337  0  0  -0.250369  0  3.622131  0  0  -0.268632  0  3.633158  0  -1.203575  0  -0.399503  -0.238244  0  3.614533  0
N  N100  1  0.72549882  0.10044615  0.63732328  1  0  -0.321377  0  3.354067  0  0  -0.256168  0  3.592524  0  0  -0.274483  0  3.602727  0  -1.186809  0  -0.400544  -0.243953  0  3.585296  0
N  N101  1  0.27448366  0.39955052  0.13732395  1  0  -0.321314  0  3.354188  0  0  -0.256123  0  3.592588  0  0  -0.274452  0  3.602801  0  -1.186143  0  -0.400456  -0.243903  0  3.585362  0
N  N102  1  0.27449246  0.89955793  0.36268008  1  0  -0.321259  0  3.354407  0  0  -0.255984  0  3.592713  0  0  -0.27431  0  3.602929  0  -1.186385  0  -0.400479  -0.24377  0  3.58549  0
N  N103  1  0.72549962  0.60044530  0.86267941  1  0  -0.321307  0  3.354097  0  0  -0.256013  0  3.592525  0  0  -0.274331  0  3.602731  0  -1.18677  0  -0.400534  -0.243796  0  3.5853  0
