# generated using pymatgen
data_H10PbC10(NCl)2
_symmetry_space_group_name_H-M   'P 1'
_cell_length_a   4.13435744
_cell_length_b   9.52463932
_cell_length_c   16.40857355
_cell_angle_alpha   88.35736803
_cell_angle_beta   82.78867215
_cell_angle_gamma   76.74838664
_symmetry_Int_Tables_number   1
_chemical_formula_structural   H10PbC10(NCl)2
_chemical_formula_sum   'H20 Pb2 C20 N4 Cl4'
_cell_volume   623.96125497
_cell_formula_units_Z   2
loop_
 _symmetry_equiv_pos_site_id
 _symmetry_equiv_pos_as_xyz
  1  'x, y, z'
loop_
 _atom_site_type_symbol
 _atom_site_label
 _atom_site_symmetry_multiplicity
 _atom_site_fract_x
 _atom_site_fract_y
 _atom_site_fract_z
 _atom_site_occupancy
 _atom_site_hle17_bader_spin_density
 _atom_site_hle17_ddec_charge
 _atom_site_hle17_ddec_spin_density
 _atom_site_hle17_ddec_sum_bond_order
 _atom_site_hle17_magmom
 _atom_site_hse06_10hf_bader_spin_density
 _atom_site_hse06_10hf_ddec_charge
 _atom_site_hse06_10hf_ddec_spin_density
 _atom_site_hse06_10hf_ddec_sum_bond_order
 _atom_site_hse06_10hf_magmom
 _atom_site_hse06_bader_spin_density
 _atom_site_hse06_ddec_charge
 _atom_site_hse06_ddec_spin_density
 _atom_site_hse06_ddec_sum_bond_order
 _atom_site_hse06_magmom
 _atom_site_pbe_bader_spin_density
 _atom_site_pbe_cm5_charge
 _atom_site_pbe_ddec_charge
 _atom_site_pbe_ddec_spin_density
 _atom_site_pbe_ddec_sum_bond_order
 _atom_site_pbe_magmom
H  H0  1  0.74459320  0.85684043  0.18293669  1  0  0.070928  0  0.951201  0  0  0.077886  0  1.020654  0  0  0.080215  0  1.018899  0  0  0.106639  0.07619  0  1.021946  0
H  H1  1  0.78813876  0.14468024  0.81757284  1  0  0.070378  0  0.951242  0  0  0.077914  0  1.019762  0  0  0.080083  0  1.018215  0  0  0.107056  0.076325  0  1.02108  0
H  H2  1  0.35457543  0.64447997  0.68233376  1  0  0.070693  0  0.952814  0  0  0.077815  0  1.021759  0  0  0.080171  0  1.020022  0  0  0.10642  0.076127  0  1.02316  0
H  H3  1  0.67757203  0.35710564  0.31697406  1  0  0.069616  0  0.952931  0  0  0.076542  0  1.022445  0  0  0.078827  0  1.020761  0  0  0.105928  0.074909  0  1.02367  0
H  H4  1  0.79178342  0.63504827  0.27145971  1  0  0.105632  0  0.977083  0  0  0.110285  0  1.046551  0  0  0.113703  0  1.045291  0  0  0.092253  0.107763  0  1.047803  0
H  H5  1  0.69879052  0.36604141  0.72853244  1  0  0.106399  0  0.979674  0  0  0.111344  0  1.048925  0  0  0.114772  0  1.047628  0  0  0.092121  0.109024  0  1.049509  0
H  H6  1  0.17637551  0.86585784  0.77137597  1  0  0.105328  0  0.979803  0  0  0.110179  0  1.049413  0  0  0.11352  0  1.048244  0  0  0.091631  0.107912  0  1.049914  0
H  H7  1  0.81144230  0.13509772  0.22861072  1  0  0.105943  0  0.977122  0  0  0.110464  0  1.046667  0  0  0.113887  0  1.045403  0  0  0.092316  0.107944  0  1.04792  0
H  H8  1  0.20789052  0.40843833  0.22014871  1  0  0.090381  0  0.948074  0  0  0.101527  0  1.008597  0  0  0.103809  0  1.007504  0  0  0.102955  0.099937  0  1.00928  0
H  H9  1  0.83227770  0.59102611  0.77960483  1  0  0.090373  0  0.949421  0  0  0.101417  0  1.010055  0  0  0.103764  0  1.00893  0  0  0.103187  0.09949  0  1.011255  0
H  H10  1  0.36158782  0.09073802  0.72049793  1  0  0.090524  0  0.948513  0  0  0.101578  0  1.009199  0  0  0.103846  0  1.008148  0  0  0.103005  0.099673  0  1.010388  0
H  H11  1  0.17511778  0.90828971  0.28004501  1  0  0.090907  0  0.948818  0  0  0.101884  0  1.009477  0  0  0.104169  0  1.008391  0  0  0.103081  0.100284  0  1.010173  0
H  H12  1  0.55897044  0.41441856  0.08522639  1  0  0.101385  0  0.969575  0  0  0.107672  0  1.036434  0  0  0.110816  0  1.035513  0  0  0.097949  0.105504  0  1.037041  0
H  H13  1  0.05463864  0.58386539  0.91468511  1  0  0.101326  0  0.969037  0  0  0.107915  0  1.035559  0  0  0.110998  0  1.034688  0  0  0.097755  0.105467  0  1.036902  0
H  H14  1  0.71857131  0.08358065  0.58538281  1  0  0.101848  0  0.969915  0  0  0.108038  0  1.0366  0  0  0.111152  0  1.035711  0  0  0.097869  0.105584  0  1.037917  0
H  H15  1  0.39196213  0.91424234  0.41492450  1  0  0.101741  0  0.968921  0  0  0.107491  0  1.036434  0  0  0.11056  0  1.035638  0  0  0.098101  0.105392  0  1.03697  0
H  H16  1  0.48746566  0.64775624  0.00588228  1  0  0.067131  0  0.963104  0  0  0.071827  0  1.037119  0  0  0.073953  0  1.035922  0  0  0.104601  0.070342  0  1.03777  0
H  H17  1  0.14474857  0.35035493  0.99408065  1  0  0.067099  0  0.965574  0  0  0.071867  0  1.039552  0  0  0.074139  0  1.038206  0  0  0.10394  0.070226  0  1.040324  0
H  H18  1  0.88830519  0.85003287  0.50605451  1  0  0.067369  0  0.965179  0  0  0.072114  0  1.039308  0  0  0.074356  0  1.037979  0  0  0.103921  0.070445  0  1.040156  0
H  H19  1  0.24359885  0.14783160  0.49401323  1  0  0.066574  0  0.96381  0  0  0.072124  0  1.036907  0  0  0.07437  0  1.035584  0  0  0.104747  0.070574  0  1.037646  0
Pb  Pb20  1  0.07598054  0.00045334  0.00017671  1  0  1.078837  0  1.724127  0  0  0.889494  0  2.170827  0  0  0.945475  0  2.132211  0  0  0.464829  0.84794  0  2.199403  0
Pb  Pb21  1  0.82865792  0.50045224  0.49963162  1  0  1.078938  0  1.725156  0  0  0.889368  0  2.172326  0  0  0.945539  0  2.133322  0  0  0.464912  0.847813  0  2.200992  0
C  C22  1  0.92485032  0.75644657  0.16444789  1  0  0.114158  0  3.730712  0  0  0.085846  0  3.980602  0  0  0.091646  0  4.000901  0  0  0.041426  0.081968  0  3.966737  0
C  C23  1  0.84848827  0.24423104  0.83581554  1  0  0.116293  0  3.727912  0  0  0.087658  0  3.977809  0  0  0.093613  0  3.998101  0  0  0.041833  0.08369  0  3.964768  0
C  C24  1  0.43341126  0.74398951  0.66414706  1  0  0.115433  0  3.730932  0  0  0.086989  0  3.980325  0  0  0.09279  0  4.000614  0  0  0.041945  0.083115  0  3.967302  0
C  C25  1  0.83891991  0.25662678  0.33549829  1  0  0.116172  0  3.731911  0  0  0.087701  0  3.981868  0  0  0.09352  0  4.002145  0  0  0.042536  0.083786  0  3.967969  0
C  C26  1  0.95097635  0.63288284  0.21302709  1  0  -0.114014  0  3.73251  0  0  -0.124217  0  3.980694  0  0  -0.130862  0  4.002536  0  0  -0.086091  -0.120067  0  3.966443  0
C  C27  1  0.79732930  0.36761157  0.78702949  1  0  -0.11772  0  3.734393  0  0  -0.128343  0  3.983067  0  0  -0.135045  0  4.004868  0  0  -0.086972  -0.124026  0  3.96813  0
C  C28  1  0.33367273  0.86737694  0.71294542  1  0  -0.115293  0  3.734197  0  0  -0.125739  0  3.982364  0  0  -0.132384  0  4.004243  0  0  -0.085903  -0.121448  0  3.96736  0
C  C29  1  0.91245241  0.13294196  0.28703285  1  0  -0.115323  0  3.735848  0  0  -0.125236  0  3.983701  0  0  -0.131882  0  4.005544  0  0  -0.086492  -0.121079  0  3.969423  0
C  C30  1  0.18174369  0.50783283  0.18447973  1  0  -0.004727  0  3.715486  0  0  -0.022284  0  3.959557  0  0  -0.019489  0  3.978569  0  0  -0.067571  -0.02399  0  3.9465  0
C  C31  1  0.87184634  0.49180586  0.81546540  1  0  -0.001059  0  3.7136  0  0  -0.018463  0  3.956945  0  0  -0.015716  0  3.975993  0  0  -0.06644  -0.020087  0  3.944708  0
C  C32  1  0.43684586  0.99155098  0.68459270  1  0  -0.002299  0  3.713274  0  0  -0.019844  0  3.956632  0  0  -0.01702  0  3.975656  0  0  -0.067079  -0.021487  0  3.944395  0
C  C33  1  0.11404611  0.00776417  0.31564121  1  0  -0.004957  0  3.71851  0  0  -0.022261  0  3.961828  0  0  -0.019466  0  3.980829  0  0  -0.067293  -0.023957  0  3.948766  0
C  C34  1  0.37807133  0.51071107  0.10907270  1  0  -0.123683  0  3.747195  0  0  -0.13181  0  3.990781  0  0  -0.138551  0  4.012976  0  0  -0.087812  -0.127163  0  3.975152  0
C  C35  1  0.99617102  0.48819043  0.89089250  1  0  -0.124907  0  3.746129  0  0  -0.13293  0  3.989171  0  0  -0.139709  0  4.01154  0  0  -0.087331  -0.128841  0  3.975216  0
C  C36  1  0.63636588  0.98791816  0.60917244  1  0  -0.126137  0  3.748719  0  0  -0.13369  0  3.991762  0  0  -0.140501  0  4.014032  0  0  -0.087478  -0.129573  0  3.97784  0
C  C37  1  0.23552360  0.01064495  0.39100365  1  0  -0.122912  0  3.74817  0  0  -0.130667  0  3.991998  0  0  -0.137375  0  4.014216  0  0  -0.087771  -0.126074  0  3.976315  0
C  C38  1  0.33734971  0.63929908  0.06482423  1  0  0.112964  0  3.738977  0  0  0.085661  0  3.987211  0  0  0.091429  0  4.007839  0  0  0.041138  0.082475  0  3.972135  0
C  C39  1  0.04333897  0.35970576  0.93526440  1  0  0.113994  0  3.735015  0  0  0.086707  0  3.982713  0  0  0.092411  0  4.003349  0  0  0.040923  0.083185  0  3.968614  0
C  C40  1  0.72787658  0.85940690  0.56481798  1  0  0.114174  0  3.737991  0  0  0.086796  0  3.985576  0  0  0.09251  0  4.00628  0  0  0.040931  0.083273  0  3.971454  0
C  C41  1  0.15188937  0.13936454  0.43511714  1  0  0.112895  0  3.740279  0  0  0.08484  0  3.98846  0  0  0.090507  0  4.00914  0  0  0.040698  0.081692  0  3.973389  0
N  N42  1  0.11469931  0.75997584  0.09192043  1  0  -0.353159  0  3.243803  0  0  -0.278755  0  3.497959  0  0  -0.2991  0  3.521793  0  0  -0.308616  -0.264346  0  3.48097  0
N  N43  1  0.97019121  0.23997217  0.90833773  1  0  -0.352313  0  3.239465  0  0  -0.277256  0  3.493293  0  0  -0.297747  0  3.517147  0  0  -0.30876  -0.26378  0  3.478646  0
N  N44  1  0.62791400  0.73966399  0.59170156  1  0  -0.351842  0  3.241747  0  0  -0.276667  0  3.495336  0  0  -0.297168  0  3.519268  0  0  -0.308285  -0.263195  0  3.480664  0
N  N45  1  0.95694222  0.26016002  0.40796421  1  0  -0.353918  0  3.242096  0  0  -0.279411  0  3.496634  0  0  -0.299776  0  3.520522  0  0  -0.309254  -0.265007  0  3.479666  0
Cl  Cl46  1  0.47225390  0.12587016  0.10183423  1  0  -0.607388  0  0.847279  0  0  -0.529723  0  1.097217  0  0  -0.551616  0  1.080732  0  0  -0.268875  -0.513312  0  1.108765  0
Cl  Cl47  1  0.70551923  0.87767811  0.89752852  1  0  -0.608132  0  0.844921  0  0  -0.530993  0  1.094247  0  0  -0.552732  0  1.077665  0  0  -0.269926  -0.51369  0  1.106337  0
Cl  Cl48  1  0.35486109  0.37765925  0.60216846  1  0  -0.607883  0  0.844776  0  0  -0.530667  0  1.093989  0  0  -0.552467  0  1.077413  0  0  -0.269901  -0.513389  0  1.106111  0
Cl  Cl49  1  0.32481051  0.62609484  0.39810545  1  0  -0.607768  0  0.848409  0  0  -0.529986  0  1.098476  0  0  -0.551943  0  1.081985  0  0  -0.268796  -0.513539  0  1.110047  0
