# generated using pymatgen
data_Zn2H8C14N2O9
_symmetry_space_group_name_H-M   'P 1'
_cell_length_a   7.99617646
_cell_length_b   8.76881821
_cell_length_c   20.72009359
_cell_angle_alpha   90.00007440
_cell_angle_beta   93.09895226
_cell_angle_gamma   90.00060210
_symmetry_Int_Tables_number   1
_chemical_formula_structural   Zn2H8C14N2O9
_chemical_formula_sum   'Zn8 H32 C56 N8 O36'
_cell_volume   1450.70663566
_cell_formula_units_Z   4
loop_
 _symmetry_equiv_pos_site_id
 _symmetry_equiv_pos_as_xyz
  1  'x, y, z'
loop_
 _atom_site_type_symbol
 _atom_site_label
 _atom_site_symmetry_multiplicity
 _atom_site_fract_x
 _atom_site_fract_y
 _atom_site_fract_z
 _atom_site_occupancy
 _atom_site_hle17_bader_spin_density
 _atom_site_hle17_ddec_charge
 _atom_site_hle17_ddec_spin_density
 _atom_site_hle17_ddec_sum_bond_order
 _atom_site_hle17_magmom
 _atom_site_hse06_10hf_bader_spin_density
 _atom_site_hse06_10hf_ddec_charge
 _atom_site_hse06_10hf_ddec_spin_density
 _atom_site_hse06_10hf_ddec_sum_bond_order
 _atom_site_hse06_10hf_magmom
 _atom_site_hse06_bader_spin_density
 _atom_site_hse06_ddec_charge
 _atom_site_hse06_ddec_spin_density
 _atom_site_hse06_ddec_sum_bond_order
 _atom_site_hse06_magmom
 _atom_site_pbe_bader_spin_density
 _atom_site_pbe_cm5_charge
 _atom_site_pbe_ddec_charge
 _atom_site_pbe_ddec_spin_density
 _atom_site_pbe_ddec_sum_bond_order
 _atom_site_pbe_magmom
Zn  Zn0  1  0.23313454  0.52125973  0.14421743  1  0  1.136911  0  1.721783  0  0  0.958491  0  2.174093  0  0  1.008498  0  2.116438  0  0  0.697353  0.922758  0  2.213929  0
Zn  Zn1  1  0.26686262  0.02125327  0.35578344  1  0  1.136857  0  1.721779  0  0  0.958468  0  2.174054  0  0  1.008477  0  2.116399  0  0  0.697332  0.922738  0  2.213892  0
Zn  Zn2  1  0.76686558  0.47874227  0.85578345  1  0  1.136923  0  1.721731  0  0  0.958495  0  2.174049  0  0  1.008501  0  2.116394  0  0  0.697349  0.922766  0  2.213885  0
Zn  Zn3  1  0.73313251  0.97874074  0.64421637  1  0  1.136938  0  1.721801  0  0  0.958499  0  2.174111  0  0  1.008509  0  2.116455  0  0  0.69733  0.922769  0  2.213949  0
Zn  Zn4  1  0.62840898  0.22368918  0.98226562  1  0  1.140918  0  1.683067  0  0  0.962072  0  2.136917  0  0  1.012451  0  2.077192  0  0  0.703584  0.926819  0  2.177916  0
Zn  Zn5  1  0.87159117  0.72368404  0.51773363  1  0  1.140923  0  1.683079  0  0  0.962054  0  2.136949  0  0  1.012435  0  2.077233  0  0  0.703575  0.926801  0  2.177949  0
Zn  Zn6  1  0.37159116  0.77631509  0.01773430  1  0  1.140919  0  1.68305  0  0  0.962079  0  2.136913  0  0  1.012457  0  2.077189  0  0  0.703599  0.926829  0  2.177914  0
Zn  Zn7  1  0.12840899  0.27631453  0.48226533  1  0  1.140872  0  1.683061  0  0  0.962012  0  2.136934  0  0  1.012397  0  2.077204  0  0  0.703554  0.926757  0  2.177937  0
H  H8  1  0.70327116  0.50441462  0.03289091  1  0  0.454574  0  0.832504  0  0  0.423489  0  0.896065  0  0  0.433204  0  0.881998  0  0  0.309727  0.41655  0  0.906121  0
H  H9  1  0.79673258  0.00441222  0.46710987  1  0  0.454562  0  0.832557  0  0  0.423463  0  0.896102  0  0  0.433178  0  0.882032  0  0  0.309708  0.416506  0  0.906177  0
H  H10  1  0.29673272  0.49558737  0.96711006  1  0  0.454616  0  0.832476  0  0  0.423522  0  0.896019  0  0  0.433238  0  0.881947  0  0  0.309732  0.416566  0  0.906093  0
H  H11  1  0.20326631  0.99558407  0.53289002  1  0  0.454575  0  0.832488  0  0  0.423491  0  0.896057  0  0  0.433206  0  0.881991  0  0  0.309731  0.416553  0  0.906113  0
H  H12  1  0.52889952  0.43567480  0.05925190  1  0  0.445038  0  0.854875  0  0  0.410828  0  0.923543  0  0  0.422132  0  0.90694  0  0  0.300884  0.4028  0  0.935343  0
H  H13  1  0.97109921  0.93567078  0.44074754  1  0  0.444979  0  0.854973  0  0  0.410749  0  0.923675  0  0  0.422055  0  0.907069  0  0  0.300856  0.402721  0  0.935474  0
H  H14  1  0.47109939  0.56433175  0.94074654  1  0  0.445012  0  0.854927  0  0  0.410753  0  0.923662  0  0  0.422058  0  0.90706  0  0  0.300847  0.402725  0  0.935461  0
H  H15  1  0.02890343  0.06432666  0.55925292  1  0  0.445012  0  0.854917  0  0  0.410778  0  0.923629  0  0  0.422083  0  0.907025  0  0  0.300848  0.402749  0  0.935428  0
H  H16  1  0.22793769  0.04376434  0.14234754  1  0  0.11547  0  0.929194  0  0  0.126422  0  0.986219  0  0  0.129603  0  0.984132  0  0  0.114689  0.124  0  0.987855  0
H  H17  1  0.27205850  0.54375586  0.35765283  1  0  0.115531  0  0.929051  0  0  0.126384  0  0.986184  0  0  0.129563  0  0.984101  0  0  0.11468  0.123963  0  0.987819  0
H  H18  1  0.77206623  0.95623879  0.85765150  1  0  0.115493  0  0.929222  0  0  0.126457  0  0.986232  0  0  0.12964  0  0.984139  0  0  0.114709  0.124034  0  0.987868  0
H  H19  1  0.72793658  0.45623929  0.64234986  1  0  0.115446  0  0.929194  0  0  0.126394  0  0.986231  0  0  0.12957  0  0.984152  0  0  0.114696  0.123971  0  0.987864  0
H  H20  1  0.95169733  0.93395966  0.16676670  1  0  0.113775  0  0.974222  0  0  0.120391  0  1.038519  0  0  0.12378  0  1.037152  0  0  0.1108  0.117779  0  1.039922  0
H  H21  1  0.54829765  0.43395787  0.33323168  1  0  0.113817  0  0.974199  0  0  0.120462  0  1.038469  0  0  0.123834  0  1.037121  0  0  0.110816  0.117849  0  1.039875  0
H  H22  1  0.04830658  0.06603778  0.83323282  1  0  0.113736  0  0.974297  0  0  0.120362  0  1.038586  0  0  0.123766  0  1.037201  0  0  0.11077  0.11775  0  1.039991  0
H  H23  1  0.45169872  0.56603386  0.66676912  1  0  0.113724  0  0.974329  0  0  0.120369  0  1.0386  0  0  0.123743  0  1.037254  0  0  0.110768  0.117755  0  1.040003  0
H  H24  1  0.69878416  0.99668970  0.09204556  1  0  0.097545  0  0.951666  0  0  0.10374  0  1.017485  0  0  0.107288  0  1.014265  0  0  0.119652  0.101029  0  1.020023  0
H  H25  1  0.80121282  0.49668829  0.40795146  1  0  0.097577  0  0.951581  0  0  0.10374  0  1.017443  0  0  0.107289  0  1.014222  0  0  0.119662  0.101018  0  1.019994  0
H  H26  1  0.30121975  0.00331116  0.90795397  1  0  0.097618  0  0.951499  0  0  0.103776  0  1.017383  0  0  0.107324  0  1.014163  0  0  0.119693  0.101054  0  1.019932  0
H  H27  1  0.19878860  0.50330686  0.59204704  1  0  0.097584  0  0.951654  0  0  0.103755  0  1.017492  0  0  0.107303  0  1.01427  0  0  0.119657  0.101031  0  1.020043  0
H  H28  1  0.79763663  0.76122303  0.19958582  1  0  0.110296  0  0.932422  0  0  0.121875  0  0.989744  0  0  0.125195  0  0.987252  0  0  0.115427  0.119352  0  0.99193  0
H  H29  1  0.70236380  0.26121806  0.30041598  1  0  0.110345  0  0.932436  0  0  0.121914  0  0.989776  0  0  0.125235  0  0.98728  0  0  0.115436  0.119391  0  0.991963  0
H  H30  1  0.20236974  0.23878809  0.80041618  1  0  0.110358  0  0.932354  0  0  0.121858  0  0.989769  0  0  0.125175  0  0.987281  0  0  0.115414  0.119336  0  0.991955  0
H  H31  1  0.29763385  0.73877823  0.69958339  1  0  0.110367  0  0.932364  0  0  0.121907  0  0.989732  0  0  0.125227  0  0.987241  0  0  0.115449  0.119384  0  0.991918  0
H  H32  1  0.88448975  0.87499265  0.30682372  1  0  0.135653  0  0.964665  0  0  0.141898  0  1.024345  0  0  0.14668  0  1.021102  0  0  0.112716  0.138428  0  1.026854  0
H  H33  1  0.61550698  0.37498994  0.19317805  1  0  0.135678  0  0.96466  0  0  0.141924  0  1.024322  0  0  0.146706  0  1.021079  0  0  0.112727  0.138454  0  1.026833  0
H  H34  1  0.11550910  0.12502189  0.69317810  1  0  0.135641  0  0.964728  0  0  0.141904  0  1.024383  0  0  0.146686  0  1.021141  0  0  0.11276  0.138436  0  1.026888  0
H  H35  1  0.38448815  0.62500977  0.80682175  1  0  0.135683  0  0.964646  0  0  0.141916  0  1.02433  0  0  0.146697  0  1.021087  0  0  0.112729  0.138447  0  1.026838  0
H  H36  1  0.65999401  0.98273937  0.37502414  1  0  0.091351  0  0.99813  0  0  0.093901  0  1.070094  0  0  0.098115  0  1.065617  0  0  0.114466  0.090925  0  1.07309  0
H  H37  1  0.84000525  0.48273975  0.12497678  1  0  0.091376  0  0.998122  0  0  0.093945  0  1.070072  0  0  0.09816  0  1.065594  0  0  0.11449  0.090966  0  1.073067  0
H  H38  1  0.34000109  0.01726148  0.62497759  1  0  0.091331  0  0.998215  0  0  0.093922  0  1.070133  0  0  0.098138  0  1.065654  0  0  0.114482  0.090943  0  1.073135  0
H  H39  1  0.15999238  0.51726452  0.87502356  1  0  0.091359  0  0.998142  0  0  0.093945  0  1.070061  0  0  0.098161  0  1.065584  0  0  0.114484  0.090969  0  1.073053  0
C  C40  1  0.98278009  0.20143556  0.02128941  1  0  0.077331  0  3.69953  0  0  0.071664  0  3.939817  0  0  0.073049  0  3.960331  0  0  0.114159  0.070677  0  3.92536  0
C  C41  1  0.51721719  0.70142956  0.47870988  1  0  0.077319  0  3.699519  0  0  0.071709  0  3.939716  0  0  0.073093  0  3.960225  0  0  0.114184  0.070724  0  3.925259  0
C  C42  1  0.01721755  0.79856758  0.97871046  1  0  0.077214  0  3.699694  0  0  0.071636  0  3.939852  0  0  0.073018  0  3.96036  0  0  0.114164  0.07065  0  3.925393  0
C  C43  1  0.48278168  0.29856331  0.52129146  1  0  0.077217  0  3.699574  0  0  0.071613  0  3.939734  0  0  0.072998  0  3.960247  0  0  0.114118  0.070624  0  3.925281  0
C  C44  1  0.12830863  0.16945342  0.05959301  1  0  -0.088353  0  3.694503  0  0  -0.075233  0  3.940033  0  0  -0.082698  0  3.959441  0  0  0.004525  -0.070397  0  3.926865  0
C  C45  1  0.37169028  0.66944843  0.44040653  1  0  -0.088358  0  3.694499  0  0  -0.075266  0  3.939981  0  0  -0.082726  0  3.959375  0  0  0.004491  -0.070428  0  3.926813  0
C  C46  1  0.87169276  0.83055086  0.94040694  1  0  -0.088272  0  3.694566  0  0  -0.075203  0  3.940046  0  0  -0.082665  0  3.959447  0  0  0.004496  -0.070366  0  3.926877  0
C  C47  1  0.62830984  0.33054558  0.55959484  1  0  -0.08828  0  3.694325  0  0  -0.075146  0  3.939811  0  0  -0.082608  0  3.959211  0  0  0.004572  -0.070307  0  3.92664  0
C  C48  1  0.11587131  0.07162726  0.11246036  1  0  -0.003829  0  3.645467  0  0  -0.0374  0  3.905533  0  0  -0.033996  0  3.921984  0  0  -0.059286  -0.039523  0  3.894424  0
C  C49  1  0.38412646  0.57162337  0.38753910  1  0  -0.003822  0  3.645369  0  0  -0.037306  0  3.905441  0  0  -0.033902  0  3.921887  0  0  -0.059246  -0.039429  0  3.894333  0
C  C50  1  0.88413259  0.92837587  0.88753917  1  0  -0.003822  0  3.645431  0  0  -0.037405  0  3.905514  0  0  -0.034003  0  3.921973  0  0  -0.059243  -0.039528  0  3.894405  0
C  C51  1  0.61587364  0.42837178  0.61246275  1  0  -0.003731  0  3.645333  0  0  -0.037334  0  3.905457  0  0  -0.033928  0  3.921902  0  0  -0.059243  -0.039456  0  3.894343  0
C  C52  1  0.96168797  0.00951238  0.12560270  1  0  -0.086861  0  3.686673  0  0  -0.102737  0  3.946265  0  0  -0.108079  0  3.965941  0  0  -0.07318  -0.09923  0  3.933273  0
C  C53  1  0.53830833  0.50950740  0.37439694  1  0  -0.086937  0  3.686563  0  0  -0.102849  0  3.946134  0  0  -0.108187  0  3.965838  0  0  -0.073188  -0.099342  0  3.933144  0
C  C54  1  0.03831594  0.99048848  0.87439682  1  0  -0.086874  0  3.686742  0  0  -0.102746  0  3.946342  0  0  -0.1081  0  3.966013  0  0  -0.073196  -0.09924  0  3.933355  0
C  C55  1  0.46169054  0.49048433  0.62560440  1  0  -0.086927  0  3.686868  0  0  -0.102827  0  3.946483  0  0  -0.108161  0  3.966171  0  0  -0.073241  -0.09932  0  3.933493  0
C  C56  1  0.82240563  0.04427688  0.08494425  1  0  0.138932  0  3.664021  0  0  0.102655  0  3.922096  0  0  0.109836  0  3.938239  0  0  0.054122  0.098055  0  3.911252  0
C  C57  1  0.67759233  0.54427565  0.41505496  1  0  0.138913  0  3.663838  0  0  0.102648  0  3.921928  0  0  0.109831  0  3.938064  0  0  0.054093  0.098055  0  3.911091  0
C  C58  1  0.17759577  0.95572170  0.91505521  1  0  0.138936  0  3.663753  0  0  0.102644  0  3.921903  0  0  0.109825  0  3.93805  0  0  0.054084  0.098052  0  3.911063  0
C  C59  1  0.32240780  0.45572064  0.58494592  1  0  0.139012  0  3.66401  0  0  0.102737  0  3.922088  0  0  0.109922  0  3.938225  0  0  0.054177  0.098145  0  3.911246  0
C  C60  1  0.98499252  0.31088506  0.96473756  1  0  0.641871  0  3.891289  0  0  0.584318  0  4.19352  0  0  0.617741  0  4.18712  0  0  0.218549  0.561451  0  4.196812  0
C  C61  1  0.51500487  0.81087768  0.53526215  1  0  0.642003  0  3.89118  0  0  0.584424  0  4.193407  0  0  0.617857  0  4.186996  0  0  0.218543  0.561562  0  4.196704  0
C  C62  1  0.01500509  0.68911807  0.03526375  1  0  0.641967  0  3.891267  0  0  0.584402  0  4.19348  0  0  0.61784  0  4.187056  0  0  0.218552  0.561537  0  4.196775  0
C  C63  1  0.48499651  0.18911519  0.46473828  1  0  0.641967  0  3.891224  0  0  0.584401  0  4.193428  0  0  0.617823  0  4.187029  0  0  0.218547  0.561537  0  4.196725  0
C  C64  1  0.29715261  0.23831526  0.04899912  1  0  0.702954  0  3.868009  0  0  0.641841  0  4.170066  0  0  0.679423  0  4.158359  0  0  0.228217  0.616019  0  4.177561  0
C  C65  1  0.20284582  0.73831097  0.45100189  1  0  0.702982  0  3.867875  0  0  0.641895  0  4.169901  0  0  0.679477  0  4.158193  0  0  0.228249  0.616074  0  4.177395  0
C  C66  1  0.70284879  0.76169243  0.95100035  1  0  0.702804  0  3.868198  0  0  0.641777  0  4.170138  0  0  0.679354  0  4.158436  0  0  0.228192  0.615959  0  4.177623  0
C  C67  1  0.79715428  0.26168989  0.54900044  1  0  0.702994  0  3.867957  0  0  0.641862  0  4.170057  0  0  0.67944  0  4.158354  0  0  0.228193  0.616041  0  4.177549  0
C  C68  1  0.41728993  0.84903015  0.25505786  1  0  0.074548  0  3.728211  0  0  0.069493  0  3.964956  0  0  0.071035  0  3.984699  0  0  0.110935  0.068367  0  3.951118  0
C  C69  1  0.08270482  0.34902386  0.24494022  1  0  0.074652  0  3.728287  0  0  0.069521  0  3.965042  0  0  0.071064  0  3.984787  0  0  0.110977  0.068394  0  3.951204  0
C  C70  1  0.58271023  0.15097298  0.74494110  1  0  0.074594  0  3.728137  0  0  0.069466  0  3.964941  0  0  0.071009  0  3.984687  0  0  0.110934  0.068341  0  3.951102  0
C  C71  1  0.91729033  0.65097015  0.75505861  1  0  0.074534  0  3.728164  0  0  0.069421  0  3.96499  0  0  0.070963  0  3.984735  0  0  0.110916  0.068296  0  3.951151  0
C  C72  1  0.53415809  0.80111997  0.21156696  1  0  -0.075318  0  3.704894  0  0  -0.058522  0  3.94011  0  0  -0.065878  0  3.960152  0  0  0.004564  -0.053954  0  3.92699  0
C  C73  1  0.96584034  0.30111522  0.28843240  1  0  -0.075445  0  3.704916  0  0  -0.058583  0  3.940055  0  0  -0.065939  0  3.960094  0  0  0.004527  -0.054017  0  3.926939  0
C  C74  1  0.46584453  0.19888430  0.78843446  1  0  -0.075429  0  3.704818  0  0  -0.058589  0  3.940014  0  0  -0.065946  0  3.960053  0  0  0.004499  -0.05402  0  3.926896  0
C  C75  1  0.03415732  0.69888221  0.71156650  1  0  -0.075317  0  3.704773  0  0  -0.058563  0  3.940101  0  0  -0.06592  0  3.960143  0  0  0.004539  -0.053994  0  3.926983  0
C  C76  1  0.70424613  0.80499706  0.23130323  1  0  -0.020802  0  3.66716  0  0  -0.047162  0  3.913311  0  0  -0.044512  0  3.93071  0  0  -0.057789  -0.048948  0  3.902807  0
C  C77  1  0.79575108  0.30499061  0.26869659  1  0  -0.020743  0  3.667104  0  0  -0.047134  0  3.91326  0  0  -0.044482  0  3.930656  0  0  -0.057772  -0.04892  0  3.902759  0
C  C78  1  0.29575651  0.19501292  0.76869724  1  0  -0.020786  0  3.667101  0  0  -0.047082  0  3.913283  0  0  -0.044429  0  3.930681  0  0  -0.057703  -0.048867  0  3.90278  0
C  C79  1  0.20424407  0.69500454  0.73130224  1  0  -0.02089  0  3.667205  0  0  -0.04722  0  3.913394  0  0  -0.04457  0  3.930793  0  0  -0.057804  -0.049005  0  3.902891  0
C  C80  1  0.75255937  0.86645720  0.29127362  1  0  -0.090249  0  3.668151  0  0  -0.1046  0  3.922623  0  0  -0.109326  0  3.93995  0  0  -0.073227  -0.101728  0  3.911922  0
C  C81  1  0.74743727  0.36645581  0.20872766  1  0  -0.090262  0  3.668042  0  0  -0.104583  0  3.922508  0  0  -0.109308  0  3.939832  0  0  -0.073184  -0.10171  0  3.911807  0
C  C82  1  0.24744074  0.13354935  0.70872775  1  0  -0.090178  0  3.668143  0  0  -0.104571  0  3.922641  0  0  -0.109298  0  3.939969  0  0  -0.073258  -0.101697  0  3.911937  0
C  C83  1  0.25255911  0.63354162  0.79127217  1  0  -0.090183  0  3.668157  0  0  -0.104501  0  3.922603  0  0  -0.109225  0  3.939929  0  0  -0.073187  -0.101627  0  3.9119  0
C  C84  1  0.62945238  0.92505407  0.32948448  1  0  0.143098  0  3.665726  0  0  0.105735  0  3.928729  0  0  0.113031  0  3.943882  0  0  0.047503  0.101052  0  3.918401  0
C  C85  1  0.87054746  0.42505375  0.17051595  1  0  0.143091  0  3.665561  0  0  0.105671  0  3.928596  0  0  0.112967  0  3.943747  0  0  0.047457  0.100992  0  3.918261  0
C  C86  1  0.37054525  0.07494906  0.67051586  1  0  0.143098  0  3.665663  0  0  0.105715  0  3.928677  0  0  0.113011  0  3.943831  0  0  0.047501  0.101033  0  3.918347  0
C  C87  1  0.12945268  0.57494710  0.82948397  1  0  0.143029  0  3.665791  0  0  0.105624  0  3.928789  0  0  0.112919  0  3.943942  0  0  0.04745  0.100945  0  3.918455  0
C  C88  1  0.48118049  0.75688218  0.14369098  1  0  0.670631  0  3.90115  0  0  0.611426  0  4.200473  0  0  0.646967  0  4.191126  0  0  0.217553  0.586968  0  4.206412  0
C  C89  1  0.01881945  0.25687904  0.35630766  1  0  0.670644  0  3.901174  0  0  0.611471  0  4.200412  0  0  0.647018  0  4.191061  0  0  0.217534  0.587014  0  4.206352  0
C  C90  1  0.51882590  0.24311867  0.85631005  1  0  0.670727  0  3.901018  0  0  0.611494  0  4.200362  0  0  0.647039  0  4.191012  0  0  0.217587  0.587033  0  4.206303  0
C  C91  1  0.98117821  0.74312067  0.64369075  1  0  0.670885  0  3.900853  0  0  0.611656  0  4.200219  0  0  0.647197  0  4.19087  0  0  0.217637  0.587196  0  4.20616  0
C  C92  1  0.23055922  0.82948840  0.24252026  1  0  0.620489  0  3.929285  0  0  0.570525  0  4.22777  0  0  0.603882  0  4.220282  0  0  0.208256  0.548091  0  4.231666  0
C  C93  1  0.26943656  0.32948623  0.25747784  1  0  0.620353  0  3.929299  0  0  0.570448  0  4.22771  0  0  0.603803  0  4.220222  0  0  0.208253  0.548017  0  4.231606  0
C  C94  1  0.76944595  0.17050789  0.75747881  1  0  0.620535  0  3.929206  0  0  0.57065  0  4.227567  0  0  0.604006  0  4.220081  0  0  0.208341  0.548216  0  4.231463  0
C  C95  1  0.73055483  0.67050778  0.74252139  1  0  0.620515  0  3.929294  0  0  0.570616  0  4.227679  0  0  0.603974  0  4.22019  0  0  0.208294  0.548181  0  4.231574  0
N  N96  1  0.46598303  0.91423196  0.31202413  1  0  -0.354463  0  3.329038  0  0  -0.281343  0  3.603517  0  0  -0.299624  0  3.619788  0  0  -0.318478  -0.268675  0  3.591868  0
N  N97  1  0.03401747  0.41422845  0.18797509  1  0  -0.354529  0  3.329018  0  0  -0.281357  0  3.603518  0  0  -0.299639  0  3.61979  0  0  -0.318495  -0.268689  0  3.591867  0
N  N98  1  0.53401460  0.08576775  0.68797574  1  0  -0.354518  0  3.328962  0  0  -0.281392  0  3.603516  0  0  -0.299675  0  3.619788  0  0  -0.318526  -0.268724  0  3.591865  0
N  N99  1  0.96598395  0.58576670  0.81202389  1  0  -0.35448  0  3.329013  0  0  -0.281325  0  3.603523  0  0  -0.299608  0  3.619796  0  0  -0.318494  -0.268656  0  3.591869  0
N  N100  1  0.83430628  0.13748782  0.03400251  1  0  -0.343007  0  3.32646  0  0  -0.266879  0  3.599997  0  0  -0.285205  0  3.616104  0  0  -0.32065  -0.254567  0  3.588882  0
N  N101  1  0.66569276  0.63748663  0.46599678  1  0  -0.343079  0  3.326532  0  0  -0.266932  0  3.600001  0  0  -0.285257  0  3.616106  0  0  -0.320674  -0.254618  0  3.588883  0
N  N102  1  0.16569262  0.86251189  0.96599690  1  0  -0.343033  0  3.326534  0  0  -0.266907  0  3.600033  0  0  -0.285233  0  3.616139  0  0  -0.320654  -0.254593  0  3.588913  0
N  N103  1  0.33430863  0.36250966  0.53400365  1  0  -0.343132  0  3.326564  0  0  -0.266979  0  3.60003  0  0  -0.285306  0  3.616136  0  0  -0.320691  -0.254666  0  3.588914  0
O  O104  1  0.63539122  0.41262999  0.03894763  1  0  -0.865516  0  1.98816  0  0  -0.800633  0  2.221859  0  0  -0.822955  0  2.185218  0  0  -0.583016  -0.784715  0  2.247082  0
O  O105  1  0.86460974  0.91262614  0.46105281  1  0  -0.865451  0  1.988297  0  0  -0.80053  0  2.221975  0  0  -0.822847  0  2.185323  0  0  -0.582972  -0.784596  0  2.247243  0
O  O106  1  0.36461019  0.58737657  0.96105135  1  0  -0.865515  0  1.988161  0  0  -0.800554  0  2.221857  0  0  -0.822878  0  2.18522  0  0  -0.582968  -0.784641  0  2.247167  0
O  O107  1  0.13539167  0.08737129  0.53894665  1  0  -0.865474  0  1.988189  0  0  -0.800578  0  2.221904  0  0  -0.822909  0  2.185275  0  0  -0.582983  -0.784663  0  2.247131  0
O  O108  1  0.33198697  0.36311222  0.07795055  1  0  -0.645076  0  2.126224  0  0  -0.569049  0  2.382818  0  0  -0.599213  0  2.369356  0  0  -0.298576  -0.548357  0  2.391943  0
O  O109  1  0.16801167  0.86310864  0.42205004  1  0  -0.645068  0  2.126069  0  0  -0.569037  0  2.382613  0  0  -0.599204  0  2.369163  0  0  -0.298588  -0.54835  0  2.391746  0
O  O110  1  0.66800950  0.63689889  0.92204494  1  0  -0.645046  0  2.126245  0  0  -0.56898  0  2.382697  0  0  -0.599147  0  2.369252  0  0  -0.298542  -0.548295  0  2.391829  0
O  O111  1  0.83199215  0.13689563  0.57795431  1  0  -0.645099  0  2.126121  0  0  -0.569037  0  2.382677  0  0  -0.599201  0  2.369228  0  0  -0.298566  -0.548351  0  2.391805  0
O  O112  1  0.39714098  0.16152199  0.01632539  1  0  -0.616637  0  2.012323  0  0  -0.548153  0  2.278421  0  0  -0.576661  0  2.262625  0  0  -0.301563  -0.52814  0  2.28876  0
O  O113  1  0.10285533  0.66151797  0.48367408  1  0  -0.616698  0  2.012439  0  0  -0.548211  0  2.278519  0  0  -0.576728  0  2.262731  0  0  -0.301579  -0.528198  0  2.288855  0
O  O114  1  0.60285915  0.83847886  0.98367501  1  0  -0.616591  0  2.012473  0  0  -0.548176  0  2.278575  0  0  -0.576682  0  2.262781  0  0  -0.30157  -0.528162  0  2.288908  0
O  O115  1  0.89714105  0.33848060  0.51632575  1  0  -0.616659  0  2.012397  0  0  -0.548191  0  2.278526  0  0  -0.5767  0  2.262734  0  0  -0.301546  -0.528178  0  2.288863  0
O  O116  1  0.12221083  0.36642771  0.95085561  1  0  -0.581643  0  1.991674  0  0  -0.52812  0  2.216032  0  0  -0.551924  0  2.208382  0  0  -0.293205  -0.511205  0  2.22041  0
O  O117  1  0.37779174  0.86642158  0.54914353  1  0  -0.581658  0  1.991765  0  0  -0.528128  0  2.216109  0  0  -0.551928  0  2.208453  0  0  -0.293158  -0.511215  0  2.220479  0
O  O118  1  0.87778806  0.63357657  0.04914428  1  0  -0.581647  0  1.991823  0  0  -0.528134  0  2.216186  0  0  -0.55194  0  2.208528  0  0  -0.293176  -0.511229  0  2.220576  0
O  O119  1  0.62221340  0.13357699  0.45085748  1  0  -0.581657  0  1.99189  0  0  -0.528116  0  2.216227  0  0  -0.551914  0  2.208574  0  0  -0.293156  -0.511201  0  2.220603  0
O  O120  1  0.84174523  0.33830307  0.93540615  1  0  -0.66133  0  2.167412  0  0  -0.576315  0  2.448082  0  0  -0.60778  0  2.434098  0  0  -0.303859  -0.553879  0  2.456796  0
O  O121  1  0.65825499  0.83829944  0.56459364  1  0  -0.661373  0  2.167312  0  0  -0.576359  0  2.448011  0  0  -0.607844  0  2.434042  0  0  -0.30384  -0.553933  0  2.456726  0
O  O122  1  0.15825489  0.66170006  0.06459521  1  0  -0.661362  0  2.167387  0  0  -0.576356  0  2.448073  0  0  -0.607834  0  2.434092  0  0  -0.303854  -0.553919  0  2.456781  0
O  O123  1  0.34174767  0.16169457  0.43540537  1  0  -0.661317  0  2.167196  0  0  -0.576333  0  2.447891  0  0  -0.607798  0  2.43391  0  0  -0.303867  -0.553895  0  2.456604  0
O  O124  1  0.47668019  0.61790902  0.12744012  1  0  -0.628731  0  2.055457  0  0  -0.558624  0  2.307245  0  0  -0.584638  0  2.292922  0  0  -0.308022  -0.540308  0  2.316923  0
O  O125  1  0.02332067  0.11790483  0.37255751  1  0  -0.62876  0  2.055489  0  0  -0.558661  0  2.307237  0  0  -0.584691  0  2.292923  0  0  -0.308047  -0.540342  0  2.316916  0
O  O126  1  0.52332744  0.38209183  0.87256143  1  0  -0.628693  0  2.055395  0  0  -0.558644  0  2.307276  0  0  -0.584667  0  2.292959  0  0  -0.308025  -0.540322  0  2.316953  0
O  O127  1  0.97667953  0.88209488  0.62743952  1  0  -0.628881  0  2.055403  0  0  -0.558697  0  2.307136  0  0  -0.584714  0  2.292816  0  0  -0.308051  -0.540381  0  2.316817  0
O  O128  1  0.44783322  0.86706328  0.10475229  1  0  -0.613208  0  2.037446  0  0  -0.543905  0  2.299646  0  0  -0.573526  0  2.286823  0  0  -0.296929  -0.523399  0  2.308174  0
O  O129  1  0.05216547  0.36706058  0.39524735  1  0  -0.613128  0  2.037441  0  0  -0.543828  0  2.299598  0  0  -0.57345  0  2.286776  0  0  -0.296839  -0.523318  0  2.308123  0
O  O130  1  0.55217068  0.13293301  0.89524772  1  0  -0.613292  0  2.037427  0  0  -0.543933  0  2.299588  0  0  -0.573555  0  2.286764  0  0  -0.296933  -0.523424  0  2.308114  0
O  O131  1  0.94782967  0.63293799  0.60475197  1  0  -0.613266  0  2.037332  0  0  -0.543957  0  2.299548  0  0  -0.573577  0  2.286724  0  0  -0.29693  -0.523449  0  2.308073  0
O  O132  1  0.17637473  0.73659528  0.19968339  1  0  -0.620841  0  2.014353  0  0  -0.567426  0  2.270609  0  0  -0.59363  0  2.260355  0  0  -0.312179  -0.549107  0  2.276914  0
O  O133  1  0.32362249  0.23659376  0.30031421  1  0  -0.620795  0  2.014291  0  0  -0.567432  0  2.270562  0  0  -0.593629  0  2.260296  0  0  -0.312209  -0.549114  0  2.276866  0
O  O134  1  0.82362670  0.26340215  0.80031511  1  0  -0.620841  0  2.014294  0  0  -0.567512  0  2.27057  0  0  -0.593709  0  2.260304  0  0  -0.312203  -0.549193  0  2.276874  0
O  O135  1  0.67637266  0.76340139  0.69968463  1  0  -0.620826  0  2.014293  0  0  -0.567493  0  2.270597  0  0  -0.593684  0  2.260313  0  0  -0.312196  -0.549174  0  2.2769  0
O  O136  1  0.13838925  0.91031532  0.27737031  1  0  -0.615502  0  2.048512  0  0  -0.554672  0  2.304288  0  0  -0.58227  0  2.29342  0  0  -0.307742  -0.534999  0  2.310654  0
O  O137  1  0.36160870  0.41031621  0.22262885  1  0  -0.615488  0  2.048468  0  0  -0.554664  0  2.304221  0  0  -0.582264  0  2.293355  0  0  -0.307777  -0.53498  0  2.31056  0
O  O138  1  0.86161092  0.08967755  0.72262817  1  0  -0.615626  0  2.048537  0  0  -0.554736  0  2.304198  0  0  -0.582339  0  2.293334  0  0  -0.307824  -0.535062  0  2.31056  0
O  O139  1  0.63838519  0.58967780  0.77737044  1  0  -0.615613  0  2.048639  0  0  -0.554708  0  2.304287  0  0  -0.582309  0  2.293419  0  0  -0.307762  -0.535034  0  2.310649  0
