# generated using pymatgen
data_ZnH13C20NO6
_symmetry_space_group_name_H-M   'P 1'
_cell_length_a   11.05892207
_cell_length_b   16.40387612
_cell_length_c   17.81905811
_cell_angle_alpha   95.24917166
_cell_angle_beta   90.38846729
_cell_angle_gamma   92.04494013
_symmetry_Int_Tables_number   1
_chemical_formula_structural   ZnH13C20NO6
_chemical_formula_sum   'Zn2 H26 C40 N2 O12'
_cell_volume   3216.77049948
_cell_formula_units_Z   2
loop_
 _symmetry_equiv_pos_site_id
 _symmetry_equiv_pos_as_xyz
  1  'x, y, z'
loop_
 _atom_site_type_symbol
 _atom_site_label
 _atom_site_symmetry_multiplicity
 _atom_site_fract_x
 _atom_site_fract_y
 _atom_site_fract_z
 _atom_site_occupancy
 _atom_site_pbe_bader_charge
 _atom_site_pbe_bader_spin_density
 _atom_site_pbe_cm5_charge
 _atom_site_pbe_ddec_charge
 _atom_site_pbe_ddec_spin_density
 _atom_site_pbe_ddec_sum_bond_order
 _atom_site_pbe_magmom
Zn  Zn0  1  0.49556748  0.41466737  0.50145040  1  1.284867  0  0.661263  0.813638  0  2.435085  0
Zn  Zn1  1  0.50329672  0.58526719  0.50678883  1  1.282697  0  0.664393  0.811557  0  2.452235  0
H  H2  1  0.37414422  0.71281619  0.42881479  1  0.126623  0  0.129808  0.103199  0  0.979783  0
H  H3  1  0.37904752  0.86362332  0.42928291  1  0.14319  0  0.113446  0.131345  0  1.032244  0
H  H4  1  0.66867645  0.86805479  0.59690496  1  0.03844  0  0.112093  0.100564  0  1.021472  0
H  H5  1  0.64889722  0.71976001  0.58785729  1  0.121849  0  0.133019  0.109805  0  0.96163  0
H  H6  1  0.33508766  0.13217216  0.40252946  1  0.046227  0  0.111118  0.099603  0  1.021472  0
H  H7  1  0.62192102  0.13425881  0.57155786  1  0.137728  0  0.11324  0.13071  0  1.036022  0
H  H8  1  0.62517095  0.28531349  0.57524591  1  0.117239  0  0.131407  0.105772  0  0.963057  0
H  H9  1  0.35134364  0.28090746  0.41592022  1  0.131966  0  0.131745  0.108526  0  0.964522  0
H  H10  1  0.50589574  0.61848193  0.26631889  1  0.087639  0  0.10122  0.103308  0  1.003231  0
H  H11  1  0.50664129  0.61116743  0.12789627  1  0.120195  0  0.100814  0.112985  0  1.052967  0
H  H12  1  0.49150410  0.34555470  0.12232722  1  -0.033889  0  0.096999  0.076175  0  1.040822  0
H  H13  1  0.49106204  0.35672362  0.25830200  1  0.08764  0  0.102294  0.105266  0  1.00275  0
H  H14  1  0.50890091  0.65645647  0.88701898  1  -0.004719  0  0.097165  0.076048  0  1.04234  0
H  H15  1  0.49368821  0.39058700  0.87813449  1  0.117398  0  0.10109  0.113257  0  1.047206  0
H  H16  1  0.49387268  0.38568341  0.73957203  1  0.08276  0  0.101519  0.104206  0  1.004354  0
H  H17  1  0.50947968  0.64770734  0.75145259  1  0.095261  0  0.101991  0.105878  0  1.002341  0
H  H18  1  0.77962287  0.60146285  0.39727110  1  0.100067  0  0.100697  0.114791  0  1.023462  0
H  H19  1  0.89634503  0.68484688  0.31277199  1  0.034283  0  0.095403  0.090391  0  1.001936  0
H  H20  1  0.22957118  0.59483337  0.39373607  1  0.05036  0  0.09809  0.105713  0  1.035922  0
H  H21  1  0.12212193  0.68135140  0.31057834  1  0.039948  0  0.094126  0.088612  0  1.002904  0
H  H22  1  0.10806777  0.40596791  0.57075001  1  0.08037  0  0.103607  0.108705  0  0.992112  0
H  H23  1  0.88172245  0.40720753  0.57113583  1  0.052008  0  0.101739  0.105495  0  0.997761  0
H  H24  1  0.65735054  0.96725496  0.59537622  1  0.607951  0  0.325328  0.351454  0  0.92687  0
H  H25  1  0.34202431  0.03175193  0.40571380  1  0.621521  0  0.326201  0.352232  0  0.924618  0
H  H26  1  0.49056361  0.35316997  0.03314299  1  0.607455  0  0.315261  0.34236  0  0.946222  0
H  H27  1  0.50971384  0.64775031  0.97477786  1  0.605786  0  0.314128  0.340771  0  0.949965  0
C  C28  1  0.49688867  0.49358325  0.35576712  1  1.52703  0  0.210491  0.585976  0  4.185682  0
C  C29  1  0.26238530  0.49599183  0.49862466  1  1.578537  0  0.216769  0.602657  0  4.164793  0
C  C30  1  0.50282541  0.51235384  0.65188640  1  1.56688  0  0.211447  0.590463  0  4.174883  0
C  C31  1  0.73648501  0.49833974  0.49994052  1  1.557311  0  0.216537  0.600782  0  4.163644  0
C  C32  1  0.43767189  0.75082539  0.46508998  1  0.458494  0  0.063965  0.109781  0  3.915171  0
C  C33  1  0.44089354  0.83551264  0.46564942  1  0.039646  0  -0.080121  -0.161056  0  3.911361  0
C  C34  1  0.52351677  0.88371393  0.51346397  1  -0.000876  0  0.003977  0.069517  0  4.010428  0
C  C35  1  0.59962355  0.83941138  0.55791582  1  -0.098127  0  -0.088832  -0.197277  0  3.978958  0
C  C36  1  0.59071085  0.75461548  0.55400309  1  0.575712  0  0.062402  0.114302  0  3.929317  0
C  C37  1  0.53399466  0.97347833  0.51966093  1  0.515576  0  0.072918  0.135137  0  3.992426  0
C  C38  1  0.46787624  0.02560946  0.47998334  1  0.536708  0  0.072624  0.134733  0  3.993011  0
C  C39  1  0.40246289  0.16044490  0.44288905  1  -0.145139  0  -0.088966  -0.1973  0  3.974492  0
C  C40  1  0.47820780  0.11538099  0.48688815  1  -0.030562  0  0.004349  0.071246  0  4.009517  0
C  C41  1  0.56008805  0.16298473  0.53568639  1  0.005425  0  -0.081675  -0.162722  0  3.918866  0
C  C42  1  0.56221668  0.24778442  0.53815235  1  0.492534  0  0.062496  0.105897  0  3.923967  0
C  C43  1  0.40985700  0.24540759  0.44897935  1  0.575227  0  0.062735  0.114664  0  3.925265  0
C  C44  1  0.49750534  0.48822108  0.27164291  1  0.004712  0  -0.021444  -0.034264  0  3.977381  0
C  C45  1  0.50229345  0.55908673  0.23332827  1  -0.004751  0  -0.08647  -0.088648  0  3.995078  0
C  C46  1  0.50283271  0.55484439  0.15516126  1  -0.045311  0  -0.095186  -0.122059  0  3.952662  0
C  C47  1  0.49849928  0.47856757  0.11060027  1  -0.033824  0  -0.013506  0.03978  0  4.005946  0
C  C48  1  0.49433092  0.40768874  0.15076528  1  -0.063675  0  -0.102197  -0.1548  0  4.018332  0
C  C49  1  0.49386719  0.41219935  0.22897524  1  -0.018465  0  -0.087988  -0.083006  0  4.005074  0
C  C50  1  0.49824145  0.46956289  0.02778905  1  0.482127  0  0.060986  0.12597  0  4.002363  0
C  C51  1  0.50204092  0.53134809  0.97987512  1  0.53363  0  0.06125  0.126018  0  4.000503  0
C  C52  1  0.50596555  0.59467875  0.85786750  1  0.002105  0  -0.101993  -0.154941  0  4.021334  0
C  C53  1  0.50174818  0.52312019  0.89706560  1  -0.050647  0  -0.015008  0.038147  0  4.010025  0
C  C54  1  0.49737817  0.44743541  0.85158390  1  -0.018676  0  -0.094599  -0.12113  0  3.951352  0
C  C55  1  0.49762425  0.44455017  0.77341606  1  -0.013186  0  -0.086671  -0.089633  0  3.994333  0
C  C56  1  0.50242667  0.51613845  0.73607183  1  -0.088994  0  -0.020646  -0.032991  0  3.970694  0
C  C57  1  0.50640048  0.59154162  0.77975425  1  -0.023761  0  -0.088212  -0.084971  0  4.007755  0
C  C58  1  0.87168831  0.49871316  0.49370192  1  -0.037175  0  -0.011014  -0.064627  0  3.929712  0
C  C59  1  0.93686855  0.55020893  0.44607743  1  -0.059916  0  -0.001148  0.061094  0  3.937378  0
C  C60  1  0.93341685  0.44689538  0.53629198  1  0.017483  0  -0.091188  -0.105468  0  4.026627  0
C  C61  1  0.87797431  0.60043911  0.39709416  1  -0.073677  0  -0.095764  -0.133335  0  3.978998  0
C  C62  1  0.94351386  0.64710089  0.35004134  1  -0.010365  0  -0.102467  -0.094116  0  4.076961  0
C  C63  1  0.12714298  0.49683134  0.49269944  1  -0.026835  0  -0.010611  -0.06288  0  3.932587  0
C  C64  1  0.06038411  0.44602598  0.53596580  1  -0.028926  0  -0.090983  -0.10579  0  4.022234  0
C  C65  1  0.06709285  0.54887079  0.44535924  1  0.013236  0  -0.001952  0.059963  0  3.941176  0
C  C66  1  0.13133499  0.59712258  0.39526992  1  0.022584  0  -0.097749  -0.136786  0  3.992988  0
C  C67  1  0.07111712  0.64530263  0.34893975  1  -0.060841  0  -0.103616  -0.096275  0  4.080983  0
N  N68  1  0.51065136  0.71056659  0.50848679  1  -1.252913  0  -0.317997  -0.190863  0  3.508029  0
N  N69  1  0.48860746  0.28891342  0.49591441  1  -1.239834  0  -0.317432  -0.190222  0  3.505399  0
O  O70  1  0.49479695  0.42648067  0.38668613  1  -1.168656  0  -0.320557  -0.552428  0  2.322052  0
O  O71  1  0.49867058  0.56528553  0.39035542  1  -1.165447  0  -0.32187  -0.557993  0  2.329111  0
O  O72  1  0.31947995  0.56516064  0.50554010  1  -1.165348  0  -0.31715  -0.548863  0  2.341067  0
O  O73  1  0.30954271  0.42625205  0.49792535  1  -1.16777  0  -0.319989  -0.553974  0  2.30785  0
O  O74  1  0.50842758  0.58018514  0.62217728  1  -1.16659  0  -0.322272  -0.552509  0  2.315335  0
O  O75  1  0.49722340  0.44118505  0.61623876  1  -1.173652  0  -0.322226  -0.554455  0  2.325851  0
O  O76  1  0.68216852  0.42875268  0.50149558  1  -1.164342  0  -0.321237  -0.55249  0  2.308478  0
O  O77  1  0.68635767  0.56737507  0.50440519  1  -1.16616  0  -0.315851  -0.552007  0  2.346875  0
O  O78  1  0.61844408  0.00963054  0.57020736  1  -1.117727  0  -0.344371  -0.419555  0  2.355033  0
O  O79  1  0.38404644  0.98937209  0.42903140  1  -1.139991  0  -0.344781  -0.420687  0  2.351249  0
O  O80  1  0.49360298  0.39043595  0.99374636  1  -1.130897  0  -0.358243  -0.434819  0  2.356278  0
O  O81  1  0.50665953  0.61039976  0.01408035  1  -1.134756  0  -0.358168  -0.433551  0  2.363316  0
