# generated using pymatgen
data_La2H10C14S(NO7)2
_symmetry_space_group_name_H-M   'P 1'
_cell_length_a   8.94612225
_cell_length_b   13.21911301
_cell_length_c   13.21912911
_cell_angle_alpha   65.54849479
_cell_angle_beta   73.06235128
_cell_angle_gamma   73.06197397
_symmetry_Int_Tables_number   1
_chemical_formula_structural   La2H10C14S(NO7)2
_chemical_formula_sum   'La4 H20 C28 S2 N4 O28'
_cell_volume   1334.92712376
_cell_formula_units_Z   2
loop_
 _symmetry_equiv_pos_site_id
 _symmetry_equiv_pos_as_xyz
  1  'x, y, z'
loop_
 _atom_site_type_symbol
 _atom_site_label
 _atom_site_symmetry_multiplicity
 _atom_site_fract_x
 _atom_site_fract_y
 _atom_site_fract_z
 _atom_site_occupancy
 _atom_site_pbe_bader_charge
 _atom_site_pbe_bader_spin_density
 _atom_site_pbe_cm5_charge
 _atom_site_pbe_ddec_charge
 _atom_site_pbe_ddec_spin_density
 _atom_site_pbe_ddec_sum_bond_order
 _atom_site_pbe_magmom
La  La0  1  0.10483384  0.92073180  0.80920883  1  2.251851  0  1.420361  1.877481  0  2.396959  0
La  La1  1  0.39516002  0.19079659  0.07926520  1  2.251744  0  1.420324  1.877523  0  2.396749  0
La  La2  1  0.89516088  0.07927152  0.19079524  1  2.251693  0  1.420297  1.877489  0  2.396862  0
La  La3  1  0.60483998  0.80920055  0.92073146  1  2.251766  0  1.4203  1.877468  0  2.396883  0
H  H4  1  0.09194742  0.16522065  0.73039358  1  0.638702  0  0.324294  0.410455  0  0.887743  0
H  H5  1  0.40805845  0.26960479  0.83477323  1  0.638509  0  0.324316  0.410485  0  0.887715  0
H  H6  1  0.90806068  0.83477651  0.26960532  1  0.638432  0  0.324284  0.410464  0  0.887739  0
H  H7  1  0.59194916  0.73038982  0.16522612  1  0.638326  0  0.32431  0.410483  0  0.887697  0
H  H8  1  0.99695304  0.15169563  0.65348155  1  0.627199  0  0.318775  0.400802  0  0.904149  0
H  H9  1  0.50304560  0.34652103  0.84829525  1  0.627184  0  0.318797  0.400852  0  0.904093  0
H  H10  1  0.00305020  0.84830454  0.34651647  1  0.627174  0  0.318799  0.40085  0  0.904102  0
H  H11  1  0.49695400  0.65348207  0.15170043  1  0.62716  0  0.318784  0.40081  0  0.904153  0
H  H12  1  0.82468591  0.49475798  0.18536560  1  0.140391  0  0.11477  0.133271  0  0.9991  0
H  H13  1  0.67531727  0.81463384  0.50524788  1  0.140354  0  0.114753  0.133203  0  0.999058  0
H  H14  1  0.17531971  0.50523998  0.81463041  1  0.140303  0  0.11478  0.133309  0  0.999153  0
H  H15  1  0.32467908  0.18536713  0.49476447  1  0.140417  0  0.114785  0.133261  0  0.999108  0
H  H16  1  0.39764793  0.47587528  0.02713569  1  0.11288  0  0.122088  0.085471  0  1.038391  0
H  H17  1  0.10235049  0.97286141  0.52412815  1  0.112845  0  0.122116  0.085524  0  1.038399  0
H  H18  1  0.60236506  0.52412038  0.97287202  1  0.113179  0  0.122123  0.08552  0  1.038369  0
H  H19  1  0.89764471  0.02713588  0.47587390  1  0.113062  0  0.122115  0.085516  0  1.038431  0
H  H20  1  0.93754747  0.67135101  0.11894464  1  0.139239  0  0.122096  0.125463  0  0.989944  0
H  H21  1  0.56244930  0.88106525  0.32865488  1  0.139309  0  0.122145  0.125488  0  0.989992  0
H  H22  1  0.06245454  0.32864643  0.88106438  1  0.13924  0  0.122123  0.125525  0  0.989954  0
H  H23  1  0.43755599  0.11893303  0.67135391  1  0.139242  0  0.122113  0.125472  0  0.989943  0
C  C24  1  0.25064877  0.68885706  0.02578494  1  1.627731  0  0.236732  0.623742  0  4.190852  0
C  C25  1  0.24934761  0.97421360  0.31115483  1  1.627383  0  0.236798  0.623871  0  4.190713  0
C  C26  1  0.74934874  0.31114947  0.97421116  1  1.627659  0  0.236702  0.623848  0  4.191069  0
C  C27  1  0.75065527  0.02578539  0.68884805  1  1.627557  0  0.236742  0.623784  0  4.190732  0
C  C28  1  0.17717205  0.58585755  0.07149552  1  -0.056822  0  -0.00331  -0.075336  0  3.942322  0
C  C29  1  0.32282349  0.92850633  0.41414481  1  -0.056713  0  -0.003245  -0.075241  0  3.942503  0
C  C30  1  0.82282849  0.41413716  0.92850663  1  -0.056711  0  -0.003384  -0.075542  0  3.942382  0
C  C31  1  0.67717449  0.07149355  0.58585862  1  -0.056881  0  -0.003274  -0.075266  0  3.942353  0
C  C32  1  0.05281011  0.39680175  0.13661213  1  0.498491  0  0.123446  0.116466  0  3.967141  0
C  C33  1  0.44718104  0.86338671  0.60320566  1  0.498384  0  0.12328  0.116178  0  3.96671  0
C  C34  1  0.94719695  0.60319959  0.86338290  1  0.498001  0  0.123449  0.116344  0  3.966751  0
C  C35  1  0.55280826  0.13661067  0.39679897  1  0.498523  0  0.123428  0.116354  0  3.96705  0
C  C36  1  0.99285141  0.29155495  0.16457834  1  1.57414  0  0.213075  0.550382  0  4.221977  0
C  C37  1  0.50714614  0.83541704  0.70845289  1  1.574198  0  0.213153  0.550611  0  4.221765  0
C  C38  1  0.00715354  0.70845048  0.83540926  1  1.573889  0  0.213231  0.550525  0  4.221501  0
C  C39  1  0.49284147  0.16458212  0.29155433  1  1.57418  0  0.213111  0.550456  0  4.22203  0
C  C40  1  0.95114601  0.49437647  0.15092449  1  -0.013712  0  -0.068061  -0.120175  0  3.914333  0
C  C41  1  0.54884805  0.84907685  0.50562564  1  -0.029188  0  -0.067986  -0.119986  0  3.913725  0
C  C42  1  0.04886312  0.50562145  0.84907087  1  -0.013434  0  -0.068123  -0.120272  0  3.914311  0
C  C43  1  0.45114310  0.15092226  0.49438017  1  -0.029309  0  -0.06807  -0.120113  0  3.91411  0
C  C44  1  0.27044289  0.48345881  0.06268080  1  0.533626  0  0.066536  0.097699  0  3.92085  0
C  C45  1  0.22955335  0.93731661  0.51654297  1  0.533618  0  0.066517  0.09765  0  3.920957  0
C  C46  1  0.72956474  0.51654009  0.93731896  1  0.533426  0  0.066538  0.09772  0  3.920725  0
C  C47  1  0.77044617  0.06268226  0.48345455  1  0.533546  0  0.06654  0.097685  0  3.920755  0
C  C48  1  0.01387555  0.59129241  0.11549100  1  -0.062101  0  -0.052903  -0.040918  0  3.905908  0
C  C49  1  0.48611659  0.88451557  0.40870371  1  -0.046363  0  -0.05298  -0.040993  0  3.905784  0
C  C50  1  0.98613276  0.40870393  0.88450898  1  -0.061953  0  -0.052832  -0.04081  0  3.905538  0
C  C51  1  0.51388081  0.11548678  0.59129574  1  -0.046443  0  -0.052898  -0.040901  0  3.905825  0
S  S52  1  0.75000164  0.96899523  0.03100338  1  3.870215  0  0.620519  1.528625  0  6.317122  0
S  S53  1  0.25000143  0.03100787  0.96899316  1  3.870289  0  0.620465  1.528549  0  6.316903  0
N  N54  1  0.21009229  0.39167021  0.09230779  1  -1.234161  0  -0.355432  -0.312984  0  3.45871  0
N  N55  1  0.28989831  0.90769409  0.60833140  1  -1.234132  0  -0.355319  -0.31283  0  3.458502  0
N  N56  1  0.78991814  0.60832695  0.90769144  1  -1.233968  0  -0.355449  -0.312934  0  3.458408  0
N  N57  1  0.71008829  0.09230923  0.39167119  1  -1.234091  0  -0.355456  -0.313025  0  3.458782  0
O  O58  1  0.84809824  0.28627031  0.20362644  1  -1.174311  0  -0.330983  -0.554662  0  2.135196  0
O  O59  1  0.65189992  0.79637221  0.71373443  1  -1.174266  0  -0.330993  -0.554704  0  2.135213  0
O  O60  1  0.15190656  0.71374513  0.79635157  1  -1.174174  0  -0.331128  -0.554663  0  2.135023  0
O  O61  1  0.34809153  0.20362598  0.28626870  1  -1.174472  0  -0.330959  -0.554629  0  2.135337  0
O  O62  1  0.15819920  0.78382412  0.99218725  1  -1.188594  0  -0.377598  -0.593753  0  2.282862  0
O  O63  1  0.34179399  0.00781763  0.21617761  1  -1.18845  0  -0.377643  -0.593848  0  2.28262  0
O  O64  1  0.84179040  0.21617234  0.00781470  1  -1.188469  0  -0.377589  -0.593783  0  2.282819  0
O  O65  1  0.65820595  0.99218323  0.78383107  1  -1.188396  0  -0.377688  -0.593885  0  2.282419  0
O  O66  1  0.09736612  0.20808790  0.14344575  1  -1.199502  0  -0.409849  -0.657656  0  2.377717  0
O  O67  1  0.40261482  0.85654427  0.79192370  1  -1.199722  0  -0.409889  -0.657815  0  2.377667  0
O  O68  1  0.90263283  0.79192266  0.85654077  1  -1.199517  0  -0.409877  -0.657763  0  2.377587  0
O  O69  1  0.59736691  0.14345990  0.20807792  1  -1.199391  0  -0.409869  -0.657742  0  2.377596  0
O  O70  1  0.70131052  0.86319237  0.04872945  1  -1.349311  0  -0.407707  -0.72478  0  2.273221  0
O  O71  1  0.79869471  0.95126333  0.13680883  1  -1.349341  0  -0.407751  -0.724791  0  2.273189  0
O  O72  1  0.29869347  0.13680300  0.95126571  1  -1.349344  0  -0.407672  -0.724688  0  2.273469  0
O  O73  1  0.20131081  0.04873472  0.86319093  1  -1.349453  0  -0.407702  -0.724739  0  2.273258  0
O  O74  1  0.88391849  0.99212297  0.93274655  1  -1.361256  0  -0.425584  -0.713799  0  2.317091  0
O  O75  1  0.61607882  0.06725357  0.00788277  1  -1.361211  0  -0.425594  -0.713776  0  2.316978  0
O  O76  1  0.11607960  0.00788109  0.06725354  1  -1.36117  0  -0.425633  -0.713858  0  2.316811  0
O  O77  1  0.38391605  0.93274038  0.99212229  1  -1.361203  0  -0.425568  -0.713766  0  2.316708  0
O  O78  1  0.39922837  0.67365283  0.02244089  1  -1.199876  0  -0.352279  -0.627439  0  2.238735  0
O  O79  1  0.10077051  0.97756380  0.32634648  1  -1.199921  0  -0.352342  -0.627542  0  2.238708  0
O  O80  1  0.60076710  0.32635280  0.97755297  1  -1.19997  0  -0.352224  -0.627465  0  2.238684  0
O  O81  1  0.89923457  0.02243594  0.67365264  1  -1.199954  0  -0.352246  -0.627426  0  2.238828  0
O  O82  1  0.10288553  0.13929706  0.66866989  1  -1.239674  0  -0.588686  -0.764047  0  1.992979  0
O  O83  1  0.39711503  0.33132834  0.86069737  1  -1.239474  0  -0.588714  -0.764133  0  1.99293  0
O  O84  1  0.89711785  0.86070018  0.33133139  1  -1.239374  0  -0.588706  -0.764111  0  1.992956  0
O  O85  1  0.60288561  0.66866627  0.13930103  1  -1.239276  0  -0.588716  -0.764087  0  1.992956  0
