# generated using pymatgen
data_CuH5C6NClO2
_symmetry_space_group_name_H-M   'P 1'
_cell_length_a   3.69285193
_cell_length_b   5.98491179
_cell_length_c   30.63035273
_cell_angle_alpha   90.00087910
_cell_angle_beta   89.99975902
_cell_angle_gamma   93.13007692
_symmetry_Int_Tables_number   1
_chemical_formula_structural   CuH5C6NClO2
_chemical_formula_sum   'Cu4 H20 C24 N4 Cl4 O8'
_cell_volume   675.96351917
_cell_formula_units_Z   4
loop_
 _symmetry_equiv_pos_site_id
 _symmetry_equiv_pos_as_xyz
  1  'x, y, z'
loop_
 _atom_site_type_symbol
 _atom_site_label
 _atom_site_symmetry_multiplicity
 _atom_site_fract_x
 _atom_site_fract_y
 _atom_site_fract_z
 _atom_site_occupancy
 _atom_site_hle17_bader_spin_density
 _atom_site_hle17_ddec_charge
 _atom_site_hle17_ddec_spin_density
 _atom_site_hle17_ddec_sum_bond_order
 _atom_site_hle17_magmom
 _atom_site_hse06_10hf_bader_spin_density
 _atom_site_hse06_10hf_ddec_charge
 _atom_site_hse06_10hf_ddec_spin_density
 _atom_site_hse06_10hf_ddec_sum_bond_order
 _atom_site_hse06_10hf_magmom
 _atom_site_hse06_bader_spin_density
 _atom_site_hse06_ddec_charge
 _atom_site_hse06_ddec_spin_density
 _atom_site_hse06_ddec_sum_bond_order
 _atom_site_hse06_magmom
 _atom_site_pbe_bader_spin_density
 _atom_site_pbe_cm5_charge
 _atom_site_pbe_ddec_charge
 _atom_site_pbe_ddec_spin_density
 _atom_site_pbe_ddec_sum_bond_order
 _atom_site_pbe_magmom
Cu  Cu0  1  0.94057600  0.85268523  0.78026045  1  0  0.463167  0  1.942513  0  0  0.376084  0  2.444845  0  0  0.370983  0  2.399845  0  0  0.359089  0.383751  0  2.472711  0
Cu  Cu1  1  0.55940537  0.64733695  0.28025596  1  0  0.463208  0  1.942756  0  0  0.376116  0  2.445035  0  0  0.370983  0  2.400107  0  0  0.359087  0.383802  0  2.472908  0
Cu  Cu2  1  0.05944868  0.14732387  0.21974189  1  0  0.46302  0  1.94274  0  0  0.375918  0  2.445023  0  0  0.370842  0  2.400037  0  0  0.358973  0.38362  0  2.472793  0
Cu  Cu3  1  0.44054846  0.35266709  0.71974802  1  0  0.463208  0  1.942439  0  0  0.376058  0  2.444714  0  0  0.370904  0  2.399734  0  0  0.359038  0.383753  0  2.472487  0
H  H4  1  0.62509690  0.85326418  0.01517337  1  0  0.394676  0  0.900274  0  0  0.361964  0  0.980177  0  0  0.37511  0  0.966648  0  0  0.303516  0.35282  0  0.989499  0
H  H5  1  0.87489680  0.64679939  0.51517319  1  0  0.39453  0  0.90034  0  0  0.361845  0  0.980227  0  0  0.374981  0  0.966723  0  0  0.303449  0.3527  0  0.989551  0
H  H6  1  0.37496793  0.14680183  0.98482082  1  0  0.394689  0  0.900246  0  0  0.362017  0  0.980087  0  0  0.37515  0  0.966575  0  0  0.303467  0.352875  0  0.989412  0
H  H7  1  0.12509590  0.35318459  0.48482720  1  0  0.394646  0  0.900207  0  0  0.36194  0  0.980116  0  0  0.375075  0  0.966611  0  0  0.30351  0.352794  0  0.989441  0
H  H8  1  0.65540836  0.96300699  0.86684063  1  0  0.085094  0  0.947716  0  0  0.089569  0  1.021639  0  0  0.093314  0  1.017686  0  0  0.112745  0.086541  0  1.024991  0
H  H9  1  0.84459721  0.53695286  0.36683899  1  0  0.085111  0  0.947669  0  0  0.089635  0  1.021513  0  0  0.093366  0  1.017598  0  0  0.11281  0.086603  0  1.024867  0
H  H10  1  0.34456495  0.03697196  0.13315159  1  0  0.085138  0  0.947674  0  0  0.089663  0  1.021544  0  0  0.093396  0  1.017619  0  0  0.112786  0.086623  0  1.024908  0
H  H11  1  0.15537353  0.46302776  0.63316238  1  0  0.084925  0  0.94767  0  0  0.089496  0  1.021523  0  0  0.09324  0  1.017574  0  0  0.112746  0.086467  0  1.024871  0
H  H12  1  0.97120679  0.43359241  0.95223089  1  0  0.113059  0  0.948893  0  0  0.1211  0  1.012775  0  0  0.124741  0  1.008631  0  0  0.109749  0.118574  0  1.015681  0
H  H13  1  0.52879957  0.06637669  0.45223218  1  0  0.1131  0  0.949054  0  0  0.121107  0  1.012922  0  0  0.124752  0  1.00877  0  0  0.109777  0.118581  0  1.015831  0
H  H14  1  0.02887577  0.56642843  0.04776918  1  0  0.113162  0  0.948803  0  0  0.121225  0  1.012597  0  0  0.124877  0  1.008436  0  0  0.109788  0.118666  0  1.015541  0
H  H15  1  0.47116319  0.93360561  0.54777082  1  0  0.113054  0  0.948938  0  0  0.121085  0  1.012815  0  0  0.124735  0  1.008658  0  0  0.109747  0.118557  0  1.015716  0
H  H16  1  0.17222237  0.22909099  0.88530739  1  0  0.109798  0  0.953949  0  0  0.117217  0  1.01821  0  0  0.120778  0  1.016986  0  0  0.10552  0.114445  0  1.019778  0
H  H17  1  0.32779814  0.27088896  0.38530832  1  0  0.109736  0  0.953545  0  0  0.117135  0  1.017823  0  0  0.1207  0  1.016592  0  0  0.105417  0.114334  0  1.019463  0
H  H18  1  0.82789825  0.77093154  0.11469431  1  0  0.109768  0  0.953498  0  0  0.11709  0  1.017875  0  0  0.12065  0  1.016652  0  0  0.105466  0.114306  0  1.019473  0
H  H19  1  0.67214069  0.72909834  0.61469599  1  0  0.109716  0  0.953286  0  0  0.117046  0  1.017708  0  0  0.120606  0  1.016484  0  0  0.105398  0.114275  0  1.019274  0
H  H20  1  0.09961949  0.40496521  0.81219185  1  0  0.088052  0  0.975982  0  0  0.092313  0  1.047221  0  0  0.097005  0  1.042405  0  0  0.100117  0.088054  0  1.05186  0
H  H21  1  0.40042780  0.09498360  0.31219048  1  0  0.087979  0  0.975996  0  0  0.09229  0  1.047248  0  0  0.096993  0  1.042409  0  0  0.100142  0.08803  0  1.051893  0
H  H22  1  0.90039986  0.59501377  0.18780985  1  0  0.088071  0  0.975852  0  0  0.092305  0  1.047169  0  0  0.097004  0  1.042343  0  0  0.100127  0.088046  0  1.051805  0
H  H23  1  0.59953782  0.90500037  0.68781480  1  0  0.087951  0  0.975955  0  0  0.092355  0  1.047127  0  0  0.097054  0  1.042299  0  0  0.100155  0.088093  0  1.051764  0
C  C24  1  0.76973308  0.80105247  0.87218486  1  0  0.125537  0  3.656359  0  0  0.082912  0  3.910302  0  0  0.093174  0  3.923768  0  0  0.049047  0.076402  0  3.901903  0
C  C25  1  0.73026779  0.69891750  0.37218546  1  0  0.125587  0  3.656404  0  0  0.082926  0  3.910273  0  0  0.09318  0  3.923726  0  0  0.049106  0.076433  0  3.901871  0
C  C26  1  0.23024110  0.19893653  0.12781357  1  0  0.125549  0  3.65684  0  0  0.082824  0  3.910749  0  0  0.093073  0  3.924211  0  0  0.049075  0.076328  0  3.902328  0
C  C27  1  0.26971050  0.30105644  0.62781917  1  0  0.125898  0  3.656294  0  0  0.083124  0  3.910198  0  0  0.093377  0  3.923657  0  0  0.049157  0.076622  0  3.901768  0
C  C28  1  0.79676662  0.71297668  0.91425106  1  0  -0.149256  0  3.805657  0  0  -0.123405  0  4.045811  0  0  -0.139982  0  4.072168  0  0  -0.02397  -0.112487  0  4.027804  0
C  C29  1  0.70324499  0.78697716  0.41425150  1  0  -0.14913  0  3.80543  0  0  -0.123381  0  4.045552  0  0  -0.139957  0  4.071907  0  0  -0.024017  -0.11246  0  4.027552  0
C  C30  1  0.20323551  0.28702236  0.08574639  1  0  -0.149505  0  3.80609  0  0  -0.123663  0  4.046086  0  0  -0.140241  0  4.072451  0  0  -0.023963  -0.112741  0  4.028053  0
C  C31  1  0.29675583  0.21300683  0.58575085  1  0  -0.149221  0  3.80528  0  0  -0.123431  0  4.045513  0  0  -0.14001  0  4.071876  0  0  -0.023952  -0.112515  0  4.027482  0
C  C32  1  0.94495049  0.50404728  0.91972118  1  0  -0.006177  0  3.670172  0  0  -0.042028  0  3.924545  0  0  -0.032933  0  3.939709  0  0  -0.067682  -0.047392  0  3.913421  0
C  C33  1  0.55505589  0.99594178  0.41972216  1  0  -0.006265  0  3.670288  0  0  -0.04206  0  3.924577  0  0  -0.032962  0  3.939739  0  0  -0.067661  -0.047423  0  3.913458  0
C  C34  1  0.05507448  0.49596517  0.08027725  1  0  -0.006138  0  3.670811  0  0  -0.041973  0  3.925034  0  0  -0.032866  0  3.940163  0  0  -0.067635  -0.047308  0  3.91389  0
C  C35  1  0.44491529  0.00404387  0.58028279  1  0  -0.00618  0  3.670539  0  0  -0.041963  0  3.924797  0  0  -0.032854  0  3.939933  0  0  -0.067664  -0.047328  0  3.913651  0
C  C36  1  0.05398311  0.39115225  0.88267028  1  0  -0.114723  0  3.714939  0  0  -0.124178  0  3.969469  0  0  -0.133603  0  3.989975  0  0  -0.08382  -0.118416  0  3.956671  0
C  C37  1  0.44606838  0.10880928  0.38267190  1  0  -0.114608  0  3.715078  0  0  -0.123986  0  3.969634  0  0  -0.133414  0  3.990142  0  0  -0.083627  -0.11822  0  3.956818  0
C  C38  1  0.94605490  0.60882339  0.11732717  1  0  -0.114739  0  3.715096  0  0  -0.124092  0  3.969668  0  0  -0.133517  0  3.990193  0  0  -0.083753  -0.118324  0  3.956828  0
C  C39  1  0.55387974  0.89119141  0.61733273  1  0  -0.114734  0  3.715329  0  0  -0.124091  0  3.970021  0  0  -0.133522  0  3.990547  0  0  -0.083689  -0.118326  0  3.957193  0
C  C40  1  0.01721051  0.48925263  0.84184275  1  0  0.14826  0  3.630116  0  0  0.116062  0  3.880324  0  0  0.127043  0  3.891055  0  0  0.046627  0.107931  0  3.875142  0
C  C41  1  0.48282294  0.01073508  0.34184480  1  0  0.148389  0  3.629925  0  0  0.115969  0  3.880209  0  0  0.126954  0  3.890921  0  0  0.046577  0.107837  0  3.875031  0
C  C42  1  0.98279544  0.51072802  0.15815535  1  0  0.148291  0  3.630059  0  0  0.116017  0  3.880265  0  0  0.126988  0  3.890993  0  0  0.046665  0.107885  0  3.875059  0
C  C43  1  0.51712731  0.98925892  0.65815950  1  0  0.14871  0  3.629991  0  0  0.116158  0  3.88036  0  0  0.127137  0  3.891082  0  0  0.046627  0.108022  0  3.875154  0
C  C44  1  0.66911822  0.84304171  0.95159349  1  0  0.670795  0  3.804365  0  0  0.612483  0  4.108911  0  0  0.647858  0  4.099955  0  0  0.238998  0.587853  0  4.115235  0
C  C45  1  0.83084667  0.65694946  0.45159511  1  0  0.670257  0  3.804641  0  0  0.612162  0  4.108962  0  0  0.647542  0  4.100001  0  0  0.238811  0.587531  0  4.115285  0
C  C46  1  0.33092417  0.15698413  0.04840167  1  0  0.670594  0  3.804245  0  0  0.612611  0  4.108366  0  0  0.647989  0  4.099408  0  0  0.238987  0.587976  0  4.114698  0
C  C47  1  0.16912949  0.34303117  0.54840593  1  0  0.670468  0  3.804463  0  0  0.612231  0  4.108958  0  0  0.647606  0  4.100001  0  0  0.238831  0.587603  0  4.115275  0
N  N48  1  0.88269729  0.69378166  0.83647911  1  0  -0.290266  0  3.363442  0  0  -0.220488  0  3.667089  0  0  -0.22769  0  3.667379  0  0  -0.363035  -0.217366  0  3.667926  0
N  N49  1  0.61732322  0.80618278  0.33648100  1  0  -0.290448  0  3.363236  0  0  -0.220509  0  3.666811  0  0  -0.227688  0  3.667068  0  0  -0.363125  -0.217389  0  3.667662  0
N  N50  1  0.11729724  0.30619228  0.16351181  1  0  -0.290162  0  3.363729  0  0  -0.220269  0  3.667266  0  0  -0.227455  0  3.66755  0  0  -0.36312  -0.217141  0  3.668035  0
N  N51  1  0.38263785  0.19381122  0.66352298  1  0  -0.290682  0  3.363407  0  0  -0.220618  0  3.667004  0  0  -0.227783  0  3.667235  0  0  -0.363103  -0.217496  0  3.66778  0
Cl  Cl52  1  0.95288226  0.59461673  0.72315300  1  0  -0.527996  0  1.599416  0  0  -0.460164  0  2.057216  0  0  -0.469772  0  2.012618  0  0  -0.285536  -0.452914  0  2.08652  0
Cl  Cl53  1  0.54708744  0.90543642  0.22315318  1  0  -0.528038  0  1.599761  0  0  -0.460201  0  2.057562  0  0  -0.469835  0  2.012998  0  0  -0.285583  -0.452954  0  2.086894  0
Cl  Cl54  1  0.04707638  0.40544254  0.27683857  1  0  -0.527922  0  1.599616  0  0  -0.460089  0  2.057409  0  0  -0.469713  0  2.012846  0  0  -0.285513  -0.452833  0  2.086766  0
Cl  Cl55  1  0.45290941  0.09462621  0.77686027  1  0  -0.528081  0  1.599658  0  0  -0.460248  0  2.057468  0  0  -0.469862  0  2.012874  0  0  -0.285583  -0.45297  0  2.086746  0
O  O56  1  0.73278565  0.75758705  0.99036524  1  0  -0.534554  0  2.107505  0  0  -0.481878  0  2.333238  0  0  -0.504498  0  2.318499  0  0  -0.31909  -0.466299  0  2.34309  0
O  O57  1  0.76718063  0.74243479  0.49036671  1  0  -0.534163  0  2.107381  0  0  -0.481628  0  2.33305  0  0  -0.504243  0  2.318316  0  0  -0.318946  -0.466053  0  2.342906  0
O  O58  1  0.26724048  0.24243879  0.00962437  1  0  -0.534439  0  2.107265  0  0  -0.481994  0  2.332953  0  0  -0.504607  0  2.318201  0  0  -0.319029  -0.466419  0  2.342819  0
O  O59  1  0.23280665  0.25754919  0.50963531  1  0  -0.534441  0  2.107535  0  0  -0.481767  0  2.33318  0  0  -0.504378  0  2.318442  0  0  -0.319036  -0.466193  0  2.343035  0
O  O60  1  0.51205357  0.02130647  0.94620385  1  0  -0.575513  0  2.017039  0  0  -0.517579  0  2.239016  0  0  -0.541532  0  2.231403  0  0  -0.282298  -0.501534  0  2.244538  0
O  O61  1  0.98794361  0.47867927  0.44621235  1  0  -0.575262  0  2.016944  0  0  -0.517452  0  2.238911  0  0  -0.541407  0  2.231302  0  0  -0.28223  -0.501399  0  2.244429  0
O  O62  1  0.48803829  0.97872776  0.05378773  1  0  -0.575232  0  2.016904  0  0  -0.517497  0  2.238924  0  0  -0.541448  0  2.231276  0  0  -0.282242  -0.501452  0  2.244446  0
O  O63  1  0.01205450  0.52130471  0.55378772  1  0  -0.575317  0  2.016914  0  0  -0.517426  0  2.238882  0  0  -0.541386  0  2.231273  0  0  -0.28222  -0.501382  0  2.244401  0
