# generated using pymatgen
data_Cu3H16(C12N13)2
_symmetry_space_group_name_H-M   'P 1'
_cell_length_a   12.98752685
_cell_length_b   14.75574711
_cell_length_c   15.60036322
_cell_angle_alpha   90.00010507
_cell_angle_beta   91.00963442
_cell_angle_gamma   90.00040230
_symmetry_Int_Tables_number   1
_chemical_formula_structural   Cu3H16(C12N13)2
_chemical_formula_sum   'Cu6 H32 C48 N52'
_cell_volume   2989.19977464
_cell_formula_units_Z   2
loop_
 _symmetry_equiv_pos_site_id
 _symmetry_equiv_pos_as_xyz
  1  'x, y, z'
loop_
 _atom_site_type_symbol
 _atom_site_label
 _atom_site_symmetry_multiplicity
 _atom_site_fract_x
 _atom_site_fract_y
 _atom_site_fract_z
 _atom_site_occupancy
 _atom_site_pbe_bader_charge
 _atom_site_pbe_bader_spin_density
 _atom_site_pbe_cm5_charge
 _atom_site_pbe_ddec_charge
 _atom_site_pbe_ddec_spin_density
 _atom_site_pbe_ddec_sum_bond_order
 _atom_site_pbe_magmom
Cu  Cu0  1  0.98008681  0.79781344  0.60314164  1  0.978514  0.484863  0.760614  0.531383  0.656983  2.501621  0.486
Cu  Cu1  1  0.51992947  0.29782203  0.89685169  1  0.9793  0.487424  0.761218  0.532428  0.660499  2.500961  0.488
Cu  Cu2  1  0.01992564  0.20217727  0.39685224  1  0.978486  0.484866  0.760641  0.531498  0.656998  2.501645  0.486
Cu  Cu3  1  0.48007682  0.70218019  0.10314980  1  0.979485  0.48741  0.761233  0.532419  0.660479  2.501015  0.488
Cu  Cu4  1  0.00000761  0.99999933  0.49999897  1  1.084713  0.593622  0.838034  0.597125  0.804624  2.547211  0.591
Cu  Cu5  1  0.50000494  0.50000063  0.00000437  1  1.083488  -0.584919  0.837172  0.59564  -0.831719  2.547762  -0.582
H  H6  1  0.71841570  0.65159682  0.35884770  1  0.110852  0.001108  0.116981  0.12714  0.000621  0.983986  0.001
H  H7  1  0.58256527  0.87594811  0.15328552  1  0.080533  0.002184  0.121619  0.087254  0.001028  0.977054  0.001
H  H8  1  0.75886575  0.01872268  0.87541315  1  0.112704  0.001179  0.115785  0.127504  0.000688  0.98152  0.001
H  H9  1  0.58823485  0.61208289  0.24363150  1  0.123809  0.002136  0.124034  0.095192  0.001056  0.995514  0.001
H  H10  1  0.71722108  0.92505560  0.26049712  1  0.102508  0.001297  0.118692  0.13002  0.000698  0.985367  0.001
H  H11  1  0.74701116  0.19788246  0.65614641  1  0.158552  0.000851  0.112356  0.127187  0.000394  1.022955  0.001
H  H12  1  0.62991687  0.29781680  0.73866354  1  0.125924  0.001713  0.118106  0.086295  0.000816  1.036455  0.001
H  H13  1  0.64210650  0.12745427  0.95007376  1  0.104899  0.00186  0.114811  0.079645  0.000837  1.014807  0.001
H  H14  1  0.78157912  0.15159569  0.14116316  1  0.111355  0.000929  0.116918  0.127071  0.000473  0.983837  0.0
H  H15  1  0.91741595  0.37594889  0.34673515  1  0.080315  0.002179  0.12152  0.087148  0.001023  0.977128  0.001
H  H16  1  0.74112981  0.51872146  0.62458196  1  0.112578  0.001014  0.115772  0.1275  0.000544  0.981462  0.001
H  H17  1  0.91174117  0.11208007  0.25639441  1  0.123532  0.002027  0.124134  0.095357  0.000976  0.995551  0.001
H  H18  1  0.78277362  0.42505466  0.23951165  1  0.102489  0.001304  0.118678  0.13013  0.000715  0.985397  0.001
H  H19  1  0.75300200  0.69788851  0.84384413  1  0.158761  0.000875  0.112372  0.127178  0.000436  1.023164  0.001
H  H20  1  0.87010018  0.79781529  0.76132402  1  0.125567  0.001732  0.118035  0.086186  0.000854  1.036617  0.001
H  H21  1  0.85789840  0.62744752  0.54991718  1  0.104613  0.001841  0.114842  0.079558  0.000872  1.014795  0.001
H  H22  1  0.28158135  0.34841557  0.64116455  1  0.111091  0.001108  0.116956  0.127065  0.000621  0.983946  0.001
H  H23  1  0.41742176  0.12405683  0.84672338  1  0.080528  0.002185  0.121566  0.087152  0.001028  0.977168  0.001
H  H24  1  0.24113899  0.98127954  0.12457550  1  0.112539  0.001178  0.115814  0.127585  0.000688  0.981274  0.001
H  H25  1  0.41175835  0.38792611  0.75638518  1  0.123571  0.002135  0.124126  0.095415  0.001056  0.995559  0.001
H  H26  1  0.28277134  0.07495612  0.73950929  1  0.102555  0.001297  0.118738  0.130113  0.000698  0.985332  0.001
H  H27  1  0.25299281  0.80212316  0.34384671  1  0.15876  0.00085  0.112351  0.127237  0.000394  1.023046  0.001
H  H28  1  0.37008172  0.70218340  0.26133142  1  0.125805  0.001713  0.118107  0.08628  0.000816  1.036511  0.001
H  H29  1  0.35789670  0.87254254  0.04991679  1  0.104816  0.001861  0.114908  0.079625  0.000837  1.014802  0.001
H  H30  1  0.21840715  0.84839163  0.85884957  1  0.111063  0.000928  0.116985  0.127218  0.000472  0.983858  0.0
H  H31  1  0.08258726  0.62403910  0.65326821  1  0.080183  0.002177  0.121531  0.087182  0.001022  0.977171  0.001
H  H32  1  0.25885106  0.48128347  0.37541211  1  0.112791  0.001014  0.115668  0.127391  0.000544  0.981694  0.001
H  H33  1  0.08825510  0.88790724  0.74361142  1  0.123782  0.002027  0.124077  0.095156  0.000977  0.995504  0.001
H  H34  1  0.21721881  0.57493062  0.76050118  1  0.103193  0.001304  0.118666  0.130022  0.000715  0.985432  0.001
H  H35  1  0.24698811  0.30212523  0.15614238  1  0.158764  0.000875  0.112377  0.127259  0.000436  1.023099  0.001
H  H36  1  0.12990071  0.20218491  0.23866328  1  0.125497  0.001732  0.118016  0.086234  0.000854  1.036525  0.001
H  H37  1  0.14209479  0.37254589  0.45007514  1  0.104787  0.001841  0.114829  0.079581  0.000872  1.014743  0.001
C  C38  1  0.80457209  0.81895089  0.38305268  1  0.987442  0.006212  0.211051  0.217692  0.005329  4.055446  0.007
C  C39  1  0.72871963  0.79183099  0.31832214  1  0.023484  -0.002273  0.026055  0.093826  -0.001665  3.985313  -0.001
C  C40  1  0.69095791  0.70281877  0.31371302  1  -0.031739  0.005493  -0.073265  -0.154342  0.003888  3.914975  0.004
C  C41  1  0.61583295  0.82815129  0.19934103  1  0.458144  -0.000339  0.047923  0.087336  0.000481  3.961886  0.0
C  C42  1  0.83140690  0.04231084  0.71077377  1  0.950607  0.003876  0.205871  0.215012  0.003286  4.0586  0.005
C  C43  1  0.76305877  0.10017762  0.75957180  1  -0.008067  -0.002678  0.023705  0.093154  -0.001946  3.981149  -0.002
C  C44  1  0.73172099  0.07985265  0.84302307  1  -0.087336  0.005813  -0.079127  -0.161977  0.004041  3.929403  0.004
C  C45  1  0.61826128  0.68068744  0.25098044  1  0.462584  -0.001544  0.053604  0.103238  -0.000631  3.922269  -0.001
C  C46  1  0.68995768  0.85529286  0.25900643  1  0.017348  0.005693  -0.071554  -0.150942  0.004083  3.918706  0.004
C  C47  1  0.72572129  0.18015987  0.72134728  1  -0.010264  0.004728  -0.071884  -0.14205  0.003342  3.888622  0.004
C  C48  1  0.65949254  0.23509220  0.76650861  1  0.460889  -0.001072  0.04403  0.096009  -0.000336  3.932549  -0.001
C  C49  1  0.66584577  0.13920495  0.88432740  1  0.512813  -0.000244  0.040202  0.082298  0.000612  3.977207  0.0
C  C50  1  0.69544255  0.31895460  0.11694658  1  0.987452  -0.000366  0.210955  0.217338  -0.000493  4.05556  0.0
C  C51  1  0.77128171  0.29182987  0.18168521  1  0.023501  -0.003381  0.026054  0.094029  -0.002454  3.985278  -0.002
C  C52  1  0.80903424  0.20281993  0.18629726  1  -0.032775  0.00498  -0.073043  -0.154128  0.003443  3.914506  0.004
C  C53  1  0.88415327  0.32814839  0.30067707  1  0.45805  -0.000458  0.048011  0.087399  0.000389  3.96213  0.0
C  C54  1  0.66859732  0.54231831  0.78922279  1  0.950458  -0.003162  0.205853  0.215209  -0.002928  4.058714  -0.004
C  C55  1  0.73694822  0.60018067  0.74042233  1  -0.008943  -0.003512  0.023705  0.093187  -0.00253  3.981187  -0.002
C  C56  1  0.76828352  0.57985437  0.65696907  1  -0.087738  0.005165  -0.079241  -0.162346  0.003495  3.929699  0.004
C  C57  1  0.88172761  0.18068240  0.24903616  1  0.463113  -0.001827  0.053411  0.102955  -0.00081  3.922159  -0.002
C  C58  1  0.81003415  0.35529413  0.24100731  1  0.017339  0.006137  -0.071534  -0.151133  0.004409  3.918624  0.005
C  C59  1  0.77429327  0.68016458  0.77864261  1  -0.009035  0.004953  -0.071877  -0.141952  0.003534  3.889076  0.004
C  C60  1  0.84051861  0.73509113  0.73348069  1  0.460562  -0.001044  0.043959  0.09594  -0.000323  3.932492  -0.001
C  C61  1  0.83415614  0.63920090  0.61566352  1  0.513166  -0.000447  0.040025  0.082467  0.000491  3.977219  0.0
C  C62  1  0.19543112  0.18105473  0.61695196  1  0.986877  0.006215  0.210939  0.217525  0.00533  4.055599  0.007
C  C63  1  0.27127511  0.20818140  0.68168879  1  0.023534  -0.002265  0.026019  0.09356  -0.001659  3.985573  -0.001
C  C64  1  0.30903529  0.29719091  0.68629726  1  -0.032466  0.005487  -0.073053  -0.153871  0.003884  3.91431  0.004
C  C65  1  0.38416025  0.17185772  0.80067245  1  0.458491  -0.000337  0.048095  0.087508  0.000484  3.961766  0.0
C  C66  1  0.16860477  0.95769545  0.28921754  1  0.950768  0.003874  0.205806  0.214992  0.003285  4.058685  0.004
C  C67  1  0.23695059  0.89982799  0.24042011  1  -0.007888  -0.002691  0.023784  0.093316  -0.001955  3.981381  -0.002
C  C68  1  0.26828683  0.92014822  0.15696562  1  -0.087763  0.005826  -0.079199  -0.16234  0.004049  3.929542  0.005
C  C69  1  0.38173654  0.31932291  0.74902990  1  0.462625  -0.001543  0.053487  0.102852  -0.000628  3.922137  -0.001
C  C70  1  0.31003166  0.14471750  0.74100315  1  0.016988  0.005691  -0.071645  -0.151007  0.004081  3.918526  0.004
C  C71  1  0.27428345  0.81984236  0.27864457  1  -0.010247  0.004739  -0.071803  -0.142071  0.00335  3.888808  0.004
C  C72  1  0.34050758  0.76490867  0.23348574  1  0.461019  -0.001079  0.044021  0.09604  -0.00034  3.932448  -0.001
C  C73  1  0.33415512  0.86079321  0.11566439  1  0.513269  -0.000254  0.040054  0.082491  0.000608  3.977097  0.0
C  C74  1  0.30455065  0.68103543  0.88306754  1  0.983981  -0.000365  0.211108  0.217333  -0.000493  4.055726  0.0
C  C75  1  0.22870533  0.70815270  0.81832817  1  0.023946  -0.003387  0.026083  0.09433  -0.002458  3.984993  -0.002
C  C76  1  0.19095203  0.79717010  0.81371356  1  -0.032107  0.004984  -0.073185  -0.154561  0.003446  3.914644  0.004
C  C77  1  0.11584531  0.67183554  0.69933136  1  0.458025  -0.000457  0.04793  0.087347  0.000389  3.96239  0.0
C  C78  1  0.33139126  0.45769408  0.21077460  1  0.950368  -0.003163  0.205896  0.215214  -0.002929  4.058497  -0.004
C  C79  1  0.26303496  0.39982901  0.25956985  1  -0.007182  -0.003503  0.023715  0.093132  -0.002524  3.981251  -0.002
C  C80  1  0.23170274  0.42015057  0.34302187  1  -0.087616  0.005157  -0.079083  -0.162029  0.00349  3.929816  0.004
C  C81  1  0.11827098  0.81930221  0.75096906  1  0.462572  -0.001827  0.053498  0.103322  -0.00081  3.922102  -0.002
C  C82  1  0.18995443  0.64469318  0.75900546  1  0.016187  0.006137  -0.07156  -0.151219  0.004409  3.918977  0.005
C  C83  1  0.22569761  0.31984307  0.22134327  1  -0.011179  0.004948  -0.071958  -0.142155  0.00353  3.888992  0.004
C  C84  1  0.15947612  0.26491177  0.26650524  1  0.461381  -0.001043  0.043987  0.09593  -0.000322  3.932651  -0.001
C  C85  1  0.16583243  0.36079726  0.38432746  1  0.512635  -0.000445  0.039956  0.082252  0.000491  3.977289  0.0
N  N86  1  0.90776315  0.90013117  0.45468064  1  -0.161998  0.083415  -0.122579  -0.018686  0.060843  3.583979  0.076
N  N87  1  0.90469436  0.81806690  0.49112463  1  -0.188973  0.060639  -0.134478  -0.042073  0.04451  3.594326  0.056
N  N88  1  0.84032496  0.76528926  0.44730124  1  -0.62145  0.010169  -0.207029  -0.249796  0.006647  3.174675  0.008
N  N89  1  0.84606919  0.90295896  0.38694638  1  -0.604758  0.007402  -0.201584  -0.229195  0.004638  3.151517  0.005
N  N90  1  0.58053952  0.74245168  0.19510398  1  -1.196421  0.083849  -0.347243  -0.207607  0.058574  3.646316  0.074
N  N91  1  0.91683396  0.93016851  0.66408398  1  -0.187404  0.002444  -0.113308  -0.08236  0.001801  3.410986  0.004
N  N92  1  0.92589021  0.00030503  0.61048214  1  -0.178297  0.088416  -0.137259  -0.03427  0.064055  3.642539  0.08
N  N93  1  0.87391098  0.07114780  0.63731705  1  -0.615214  0.004112  -0.204886  -0.228284  0.00229  3.189092  0.003
N  N94  1  0.85757576  0.95537077  0.72865739  1  -0.62716  0.008543  -0.215842  -0.262133  0.005696  3.178155  0.006
N  N95  1  0.09575266  0.87431170  0.55776472  1  -0.286049  0.112262  -0.327707  -0.534718  0.079156  3.143879  0.097
N  N96  1  0.17357705  0.83811043  0.53343016  1  -0.307955  -0.001852  0.08198  0.41845  -0.005325  4.462548  -0.017
N  N97  1  0.62961671  0.21542527  0.84682459  1  -1.221642  0.076253  -0.350711  -0.234083  0.05317  3.635093  0.066
N  N98  1  0.25011814  0.80567582  0.51016620  1  0.021518  0.147449  -0.197211  -0.363998  0.098251  2.478419  0.105
N  N99  1  0.59225984  0.40013817  0.04531504  1  -0.161534  -0.082921  -0.122299  -0.018013  -0.063711  3.583058  -0.075
N  N100  1  0.59532951  0.31807453  0.00886771  1  -0.189366  0.056659  -0.134673  -0.042619  0.042071  3.594291  0.052
N  N101  1  0.65969387  0.26529465  0.05269414  1  -0.620836  -0.001593  -0.206901  -0.249496  -0.001272  3.174803  -0.001
N  N102  1  0.65394612  0.40296377  0.11305240  1  -0.604885  -0.001844  -0.201428  -0.228994  -0.001047  3.151051  -0.001
N  N103  1  0.91944371  0.24245443  0.30491393  1  -1.196137  0.083838  -0.347433  -0.207725  0.058615  3.646668  0.074
N  N104  1  0.58317260  0.43017602  0.83591905  1  -0.187778  -0.003789  -0.113259  -0.082268  -0.002383  3.411072  -0.003
N  N105  1  0.57411829  0.50031550  0.88952017  1  -0.17827  -0.089075  -0.137447  -0.034394  -0.067662  3.642463  -0.08
N  N106  1  0.62609655  0.57115718  0.86268025  1  -0.615404  -0.005004  -0.204862  -0.228386  -0.0032  3.188859  -0.003
N  N107  1  0.64242792  0.45537581  0.77134372  1  -0.626904  -0.009105  -0.216112  -0.262592  -0.006305  3.178711  -0.007
N  N108  1  0.40426377  0.37431259  0.94223895  1  -0.286376  0.113718  -0.327951  -0.535239  0.080229  3.144137  0.096
N  N109  1  0.32641829  0.33811902  0.96655007  1  -0.308414  -0.000287  0.081782  0.418718  -0.004426  4.46343  -0.015
N  N110  1  0.87039505  0.71542220  0.65316340  1  -1.221505  0.075987  -0.350751  -0.234113  0.05297  3.634673  0.066
N  N111  1  0.24986384  0.30569551  0.98979006  1  0.021235  0.148742  -0.197756  -0.364878  0.099136  2.479204  0.106
N  N112  1  0.09225545  0.09986699  0.54531718  1  -0.161786  0.083416  -0.122538  -0.018562  0.060842  3.583888  0.076
N  N113  1  0.09532040  0.18193126  0.50887313  1  -0.188729  0.060634  -0.134684  -0.042552  0.044507  3.594868  0.056
N  N114  1  0.15967979  0.23471365  0.55270022  1  -0.621326  0.010168  -0.206867  -0.249432  0.006646  3.174731  0.008
N  N115  1  0.15394249  0.09704394  0.61305583  1  -0.60479  0.007399  -0.201517  -0.229091  0.004636  3.151246  0.005
N  N116  1  0.41945368  0.25755325  0.80490565  1  -1.19569  0.083864  -0.347366  -0.207661  0.058581  3.64648  0.074
N  N117  1  0.08317463  0.06983371  0.33591241  1  -0.187883  0.002445  -0.113348  -0.082435  0.001803  3.410947  0.004
N  N118  1  0.07412377  0.99969516  0.38951497  1  -0.177477  0.088413  -0.137315  -0.034274  0.064055  3.642351  0.08
N  N119  1  0.12610377  0.92885510  0.36267815  1  -0.61602  0.004115  -0.20473  -0.228265  0.00229  3.189183  0.003
N  N120  1  0.14243129  0.04463348  0.27133642  1  -0.626779  0.008543  -0.215837  -0.26207  0.005696  3.178208  0.006
N  N121  1  0.90426749  0.12566884  0.44222992  1  -0.286946  0.112274  -0.32772  -0.534994  0.079164  3.143914  0.097
N  N122  1  0.82643077  0.16186333  0.46655340  1  -0.306735  -0.001868  0.082098  0.419105  -0.005327  4.462376  -0.017
N  N123  1  0.37038418  0.78457289  0.15316849  1  -1.221947  0.076268  -0.350781  -0.234198  0.053178  3.6348  0.066
N  N124  1  0.74988198  0.19429048  0.48980507  1  0.02115  0.147434  -0.197373  -0.364481  0.098236  2.478478  0.105
N  N125  1  0.40774799  0.59986270  0.95469480  1  -0.161767  -0.082923  -0.122235  -0.017891  -0.063714  3.583266  -0.075
N  N126  1  0.40468062  0.68192702  0.99113511  1  -0.189113  0.056657  -0.134513  -0.042449  0.04207  3.594334  0.052
N  N127  1  0.34030857  0.73470079  0.94731242  1  -0.617711  -0.001592  -0.20711  -0.249697  -0.00127  3.174686  -0.001
N  N128  1  0.34604939  0.59702829  0.88696368  1  -0.604705  -0.001841  -0.201518  -0.229045  -0.001044  3.151354  -0.001
N  N129  1  0.08055564  0.75753424  0.69508746  1  -1.196019  0.083825  -0.347408  -0.207727  0.058608  3.646692  0.074
N  N130  1  0.41683446  0.56983027  0.16408822  1  -0.187772  -0.00379  -0.113417  -0.082587  -0.002384  3.411176  -0.003
N  N131  1  0.42589031  0.49969147  0.11048776  1  -0.178185  -0.089077  -0.137367  -0.034198  -0.067663  3.642446  -0.08
N  N132  1  0.37390127  0.42885318  0.13731984  1  -0.615328  -0.004999  -0.204886  -0.228383  -0.003197  3.188999  -0.003
N  N133  1  0.35756758  0.54463251  0.22865761  1  -0.626887  -0.009108  -0.215991  -0.262399  -0.006307  3.178374  -0.007
N  N134  1  0.59575022  0.62569641  0.05776905  1  -0.286834  0.113667  -0.327713  -0.53477  0.080183  3.144326  0.096
N  N135  1  0.67358261  0.66188998  0.03345518  1  -0.307496  -0.000327  0.081396  0.418098  -0.004439  4.463734  -0.015
N  N136  1  0.12960353  0.28457528  0.34682579  1  -1.22192  0.075987  -0.350731  -0.234073  0.052971  3.635083  0.066
N  N137  1  0.75014399  0.69432027  0.01020760  1  0.020694  0.148863  -0.197644  -0.364702  0.099215  2.478932  0.106
