# generated using pymatgen
data_TbCuH10C16N5O9
_symmetry_space_group_name_H-M   'P 1'
_cell_length_a   10.49085202
_cell_length_b   10.87889397
_cell_length_c   11.62210842
_cell_angle_alpha   72.99754937
_cell_angle_beta   81.70511504
_cell_angle_gamma   59.07381404
_symmetry_Int_Tables_number   1
_chemical_formula_structural   TbCuH10C16N5O9
_chemical_formula_sum   'Tb2 Cu2 H20 C32 N10 O18'
_cell_volume   1088.07964112
_cell_formula_units_Z   2
loop_
 _symmetry_equiv_pos_site_id
 _symmetry_equiv_pos_as_xyz
  1  'x, y, z'
loop_
 _atom_site_type_symbol
 _atom_site_label
 _atom_site_symmetry_multiplicity
 _atom_site_fract_x
 _atom_site_fract_y
 _atom_site_fract_z
 _atom_site_occupancy
 _atom_site_hle17_ddec_charge
 _atom_site_hle17_ddec_spin_density
 _atom_site_hle17_ddec_sum_bond_order
 _atom_site_hle17_magmom
 _atom_site_hse06_10hf_ddec_charge
 _atom_site_hse06_10hf_ddec_spin_density
 _atom_site_hse06_10hf_ddec_sum_bond_order
 _atom_site_hse06_10hf_magmom
 _atom_site_hse06_ddec_charge
 _atom_site_hse06_ddec_spin_density
 _atom_site_hse06_ddec_sum_bond_order
 _atom_site_hse06_magmom
 _atom_site_pbe_cm5_charge
 _atom_site_pbe_ddec_charge
 _atom_site_pbe_ddec_spin_density
 _atom_site_pbe_ddec_sum_bond_order
 _atom_site_pbe_magmom
Tb  Tb0  1  0.43534664  0.00773282  0.82473126  1  2.238887  0.000142  1.61029  0.0  2.097659  0.000144  2.073104  0.0  2.220639  8.7e-05  1.892771  0.0  1.502172  2.05919  0.000216  2.107718  0.0
Tb  Tb1  1  0.56464950  0.99227336  0.17526109  1  2.239006  0.00014  1.610169  0.0  2.097703  0.000142  2.073067  0.0  2.220759  8.6e-05  1.892622  0.0  1.502168  2.0593  0.000216  2.107564  0.0
Cu  Cu2  1  0.99999412  0.00000591  0.99999631  1  0.73144  -0.678409  2.044335  -0.47  0.684748  -0.781052  2.439907  -0.598  0.759895  -0.869207  2.387381  -0.684  0.816962  0.642721  -0.707827  2.474084  -0.533
Cu  Cu3  1  0.00000739  0.99999200  0.50000186  1  0.72215  0.677304  2.000932  0.469  0.667075  0.775015  2.400127  0.59  0.744734  0.862683  2.345463  0.675  0.806345  0.621853  0.703607  2.436398  0.528
H  H4  1  0.92659648  0.76944978  0.48985630  1  0.10445  0.001241  0.922293  0.002  0.109939  0.000999  0.986635  0.001  0.112397  0.000724  0.983687  0.001  0.127599  0.107918  0.001183  0.989073  0.002
H  H5  1  0.07342173  0.23054353  0.51012679  1  0.104584  0.001246  0.922124  0.002  0.109919  0.000999  0.986618  0.001  0.112375  0.000724  0.983673  0.001  0.127615  0.107904  0.001183  0.989047  0.002
H  H6  1  0.02605670  0.49627176  0.58546434  1  0.111256  0.000546  0.954018  0.0  0.121019  0.000594  1.013511  0.001  0.12408  0.000443  1.012196  0.0  0.113678  0.118846  0.000698  1.014508  0.001
H  H7  1  0.97395037  0.50372197  0.41451093  1  0.111368  0.000553  0.953902  0.0  0.121103  0.000594  1.013422  0.001  0.124161  0.000443  1.012115  0.0  0.113761  0.11893  0.000698  1.014418  0.001
H  H8  1  0.35980804  0.49392161  0.76196911  1  0.12419  0.000508  0.937881  0.001  0.133549  0.000559  0.994651  0.001  0.137208  0.000405  0.992671  0.0  0.11799  0.130814  0.000638  0.996267  0.001
H  H9  1  0.64017561  0.50605901  0.23804897  1  0.124262  0.000507  0.937944  0.001  0.13359  0.000559  0.994742  0.001  0.137257  0.000404  0.992768  0.0  0.118006  0.130854  0.000638  0.996357  0.001
H  H10  1  0.25121463  0.76689721  0.65875354  1  0.089944  0.001164  0.954574  0.002  0.09509  0.000914  1.023816  0.001  0.09716  0.000655  1.021099  0.001  0.120342  0.092997  0.001106  1.026457  0.002
H  H11  1  0.74878154  0.23308184  0.34126903  1  0.089809  0.001159  0.954587  0.002  0.094981  0.000913  1.023829  0.001  0.097051  0.000654  1.021113  0.001  0.120297  0.092884  0.001106  1.026474  0.002
H  H12  1  0.01782309  0.25342177  0.82030128  1  0.097579  -0.001137  0.963021  -0.002  0.098907  -0.000878  1.036929  -0.001  0.101014  -0.000622  1.034872  -0.001  0.119831  0.097199  -0.001083  1.038851  -0.002
H  H13  1  0.98216970  0.74658346  0.17969360  1  0.097677  -0.001146  0.963028  -0.002  0.098947  -0.000879  1.036992  -0.001  0.101053  -0.000623  1.034933  -0.001  0.119801  0.097247  -0.001083  1.038899  -0.002
H  H14  1  0.86978014  0.53283806  0.76827556  1  0.114362  -0.000526  0.958342  -0.001  0.120662  -0.000556  1.022945  -0.001  0.123783  -0.000398  1.022005  0.0  0.109168  0.118419  -0.000668  1.023742  -0.001
H  H15  1  0.13022049  0.46717452  0.23173490  1  0.114376  -0.000519  0.958269  -0.001  0.12065  -0.000557  1.022899  -0.001  0.123771  -0.000398  1.021962  0.0  0.109182  0.118406  -0.000668  1.023697  -0.001
H  H16  1  0.58205758  0.49973607  0.06360218  1  0.115123  -0.000494  0.9503  0.0  0.124605  -0.000482  1.00944  -0.001  0.127675  -0.000358  1.008143  0.0  0.114982  0.122419  -0.000653  1.010476  -0.001
H  H17  1  0.41795201  0.50027615  0.93641041  1  0.11508  -0.000489  0.950354  0.0  0.124567  -0.000483  1.009462  -0.001  0.127636  -0.000358  1.008167  0.0  0.115009  0.122385  -0.000653  1.010492  -0.001
H  H18  1  0.73671752  0.22223708  0.10443177  1  0.094109  -0.00118  0.953882  -0.002  0.097425  -0.000891  1.025293  -0.001  0.099056  -0.000632  1.02335  -0.001  0.123804  0.095973  -0.001109  1.027154  -0.002
H  H19  1  0.26328159  0.77776793  0.89557423  1  0.094097  -0.001176  0.954027  -0.002  0.097411  -0.000891  1.025458  -0.001  0.099042  -0.000632  1.023518  -0.001  0.123824  0.095968  -0.001109  1.027313  -0.002
H  H20  1  0.21283992  0.98064093  0.71943626  1  0.398268  -1.4e-05  0.908896  0.0  0.356996  -1.2e-05  0.99565  0.0  0.367092  -1e-05  0.980991  0.0  0.295544  0.349505  -1.7e-05  1.00685  0.0
H  H21  1  0.78716133  0.01935853  0.28055809  1  0.39821  -1.2e-05  0.90898  0.0  0.356933  -1.2e-05  0.995747  0.0  0.367029  -1.1e-05  0.981089  0.0  0.295519  0.349443  -1.7e-05  1.006947  0.0
H  H22  1  0.33247424  0.94556485  0.61900749  1  0.454188  1.1e-05  0.825635  0.0  0.42846  1.1e-05  0.87879  0.0  0.440584  2.2e-05  0.860983  0.0  0.307927  0.420091  -1.1e-05  0.891305  0.0
H  H23  1  0.66752365  0.05442712  0.38098611  1  0.454252  1.1e-05  0.825546  0.0  0.42851  1.1e-05  0.87873  0.0  0.440637  2.2e-05  0.860916  0.0  0.307966  0.420142  -1.1e-05  0.891246  0.0
C  C24  1  0.80455214  0.02788240  0.70863042  1  0.014778  -0.005474  3.630455  -0.005  0.007155  -0.000837  3.888018  -0.001  0.008932  -0.001821  3.902558  -0.002  0.105893  0.006137  -6.8e-05  3.878023  0.0
C  C25  1  0.19544835  0.97210838  0.29136656  1  0.014611  -0.005477  3.630426  -0.005  0.007088  -0.00084  3.88793  -0.001  0.008864  -0.001822  3.902466  -0.002  0.105923  0.006064  -6.8e-05  3.877931  0.0
C  C26  1  0.81460834  0.01487285  0.83118327  1  0.002763  0.006459  3.665979  0.006  -0.000248  0.001988  3.917662  0.002  -0.000611  0.002768  3.931522  0.003  0.102056  8.2e-05  0.001314  3.908127  0.001
C  C27  1  0.18538162  0.98512814  0.16881329  1  0.002941  0.00646  3.666057  0.006  -0.000143  0.001987  3.917717  0.002  -0.000496  0.002771  3.931572  0.003  0.102093  0.000205  0.001314  3.908153  0.001
C  C28  1  0.69418920  0.04448602  0.62706850  1  0.708171  0.000221  3.888667  0.001  0.661332  5.4e-05  4.187666  0.0  0.698216  6.6e-05  4.175151  0.0  0.231224  0.636799  1.7e-05  4.19586  0.0
C  C29  1  0.30580878  0.95550595  0.37292767  1  0.708247  0.000242  3.88856  0.001  0.661395  5.5e-05  4.187548  0.0  0.698281  6.5e-05  4.175028  0.0  0.231274  0.636862  1.6e-05  4.195745  0.0
C  C30  1  0.73130578  0.99236348  0.94181504  1  0.700707  1e-05  3.893511  0.0  0.655812  0.000151  4.180309  0.0  0.692418  0.000116  4.173786  0.0  0.233521  0.631002  0.000198  4.189415  0.0
C  C31  1  0.26867247  0.00765647  0.05817963  1  0.700629  3.8e-05  3.893943  0.0  0.655758  0.000154  4.180721  0.0  0.692364  0.000114  4.174186  0.0  0.233473  0.630946  0.000198  4.189824  0.0
C  C32  1  0.02279030  0.70430579  0.55011167  1  0.128697  -0.00875  3.659542  -0.009  0.098629  -0.000834  3.919989  -0.002  0.106784  -0.002173  3.938157  -0.003  0.054455  0.093222  0.000156  3.908477  -0.001
C  C33  1  0.97721940  0.29568353  0.44987995  1  0.128486  -0.008706  3.659531  -0.009  0.098534  -0.000838  3.919937  -0.002  0.106691  -0.002175  3.938102  -0.003  0.054375  0.093124  0.000157  3.908431  -0.001
C  C34  1  0.07770262  0.55377412  0.60324727  1  -0.117094  0.011934  3.697404  0.012  -0.136988  0.004475  3.941279  0.005  -0.142142  0.004308  3.960299  0.005  -0.070076  -0.133374  0.004585  3.928273  0.005
C  C35  1  0.92230628  0.44621411  0.39673533  1  -0.117165  0.01187  3.697227  0.012  -0.137034  0.004482  3.941082  0.005  -0.142189  0.004309  3.960099  0.005  -0.070126  -0.133418  0.004586  3.928078  0.005
C  C36  1  0.19966124  0.47626720  0.68133669  1  0.02017  -0.010125  3.703019  -0.01  0.038363  -0.003119  3.929202  -0.003  0.037752  -0.0035  3.947454  -0.004  0.013813  0.038801  -0.002788  3.916451  -0.003
C  C37  1  0.80033149  0.52372173  0.31866292  1  0.020198  -0.010096  3.702684  -0.01  0.038384  -0.003128  3.928867  -0.003  0.037778  -0.0035  3.947117  -0.004  0.013796  0.038823  -0.002789  3.916109  -0.003
C  C38  1  0.26417496  0.55271402  0.70202149  1  -0.109613  0.011818  3.68813  0.012  -0.129148  0.004396  3.927771  0.005  -0.134569  0.004218  3.947664  0.005  -0.068443  -0.125565  0.004459  3.914356  0.005
C  C39  1  0.73581620  0.44727063  0.29798735  1  -0.10972  0.0118  3.688158  0.012  -0.129212  0.004402  3.927835  0.005  -0.134647  0.00422  3.947739  0.005  -0.068436  -0.125625  0.004459  3.914414  0.005
C  C40  1  0.20438067  0.70277097  0.64557350  1  0.121244  -0.00891  3.679937  -0.009  0.092707  -0.001106  3.93682  -0.002  0.10027  -0.002402  3.956618  -0.004  0.048065  0.088196  -0.000112  3.923762  -0.001
C  C41  1  0.79561579  0.29721455  0.35443252  1  0.12141  -0.008868  3.679739  -0.009  0.092795  -0.00111  3.936679  -0.002  0.100357  -0.002404  3.956474  -0.004  0.048059  0.088284  -0.000111  3.923623  -0.001
C  C42  1  0.26242699  0.31406328  0.74285036  1  0.62326  0.000538  3.959263  0.001  0.581059  7.6e-05  4.25099  0.0  0.61302  5e-05  4.251279  0.0  0.189805  0.558702  8.5e-05  4.255532  0.0
C  C43  1  0.73756651  0.68592995  0.25714530  1  0.623387  0.000546  3.958977  0.001  0.58121  7.8e-05  4.250663  0.0  0.613168  5.1e-05  4.250954  0.0  0.189821  0.558851  8.5e-05  4.255213  0.0
C  C44  1  0.92023211  0.31214175  0.87180253  1  0.120202  0.008233  3.667646  0.009  0.092343  0.00071  3.925056  0.002  0.099948  0.002028  3.944335  0.003  0.046332  0.087478  -0.000298  3.91242  0.001
C  C45  1  0.07976468  0.68786768  0.12819568  1  0.119945  0.008271  3.667908  0.009  0.092164  0.000709  3.92528  0.002  0.099772  0.00203  3.944558  0.003  0.046342  0.087294  -0.000299  3.912634  0.001
C  C46  1  0.83883750  0.46618878  0.84350089  1  -0.115201  -0.011941  3.691992  -0.012  -0.13365  -0.004445  3.930866  -0.005  -0.139415  -0.004207  3.951185  -0.005  -0.073054  -0.129849  -0.004594  3.917051  -0.005
C  C47  1  0.16116554  0.53382042  0.15650672  1  -0.115182  -0.011987  3.691997  -0.012  -0.133578  -0.004443  3.930881  -0.005  -0.139341  -0.004212  3.9512  -0.005  -0.073072  -0.129786  -0.004595  3.917056  -0.005
C  C48  1  0.71449539  0.53595083  0.91234243  1  0.015757  0.009924  3.702158  0.01  0.03403  0.003045  3.927912  0.003  0.033251  0.003384  3.946041  0.003  0.012312  0.034683  0.002718  3.915126  0.003
C  C49  1  0.28551808  0.46406777  0.08767114  1  0.015967  0.009942  3.702093  0.01  0.034101  0.003038  3.928003  0.003  0.033319  0.003389  3.946136  0.003  0.012519  0.034785  0.002718  3.915158  0.003
C  C50  1  0.67843126  0.44776137  0.00901789  1  -0.11454  -0.011945  3.698196  -0.012  -0.13732  -0.004419  3.948697  -0.005  -0.142479  -0.004177  3.967748  -0.005  -0.071414  -0.133535  -0.004537  3.935326  -0.005
C  C51  1  0.32157518  0.55225314  0.99099023  1  -0.11441  -0.011968  3.698314  -0.012  -0.137099  -0.004414  3.948814  -0.005  -0.142258  -0.004178  3.967869  -0.005  -0.07136  -0.133323  -0.004537  3.935437  -0.005
C  C52  1  0.76432716  0.29435543  0.03212519  1  0.132864  0.008637  3.668354  0.009  0.10294  0.000915  3.932375  0.002  0.111516  0.002243  3.950383  0.003  0.051896  0.097516  -4.9e-05  3.920214  0.001
C  C53  1  0.23566918  0.70565729  0.96787558  1  0.132671  0.008621  3.668713  0.009  0.102699  0.000912  3.932778  0.002  0.111273  0.002243  3.950792  0.003  0.051745  0.09727  -4.9e-05  3.920623  0.001
C  C54  1  0.61851213  0.70195568  0.88075601  1  0.632225  -0.00056  3.938296  -0.001  0.590557  -7.8e-05  4.226486  0.0  0.623461  -4.7e-05  4.225823  0.0  0.191051  0.567703  -0.000123  4.231097  0.0
C  C55  1  0.38150927  0.29805824  0.11925679  1  0.632238  -0.000566  3.938067  -0.001  0.590575  -7.9e-05  4.226282  0.0  0.623476  -4.5e-05  4.225628  0.0  0.190982  0.567712  -0.000123  4.230912  0.0
N  N56  1  0.92900876  0.02998038  0.65856061  1  -0.214335  0.066523  3.364295  0.081  -0.194756  0.048991  3.691759  0.063  -0.217972  0.043634  3.711437  0.059  -0.258557  -0.181053  0.050028  3.679724  0.063
N  N57  1  0.07098972  0.97001265  0.34143603  1  -0.214215  0.066546  3.363999  0.081  -0.194744  0.048996  3.691518  0.063  -0.217963  0.043627  3.711199  0.059  -0.25855  -0.181041  0.050028  3.679483  0.063
N  N58  1  0.01141482  0.02134035  0.74060242  1  -0.066928  -2e-05  2.991596  0.0  -0.041332  -0.000153  3.281416  0.0  -0.037474  -6.7e-05  3.293193  0.0  -0.085676  -0.043152  -0.000165  3.274111  0.0
N  N59  1  0.98858063  0.97865716  0.25939427  1  -0.066948  -4e-05  2.991541  0.0  -0.041319  -0.000154  3.281336  0.0  -0.037453  -6.2e-05  3.293115  0.0  -0.085667  -0.043144  -0.000164  3.274032  0.0
N  N60  1  0.94243014  0.01237369  0.84455656  1  -0.197024  -0.063775  3.374674  -0.077  -0.177295  -0.047252  3.69796  -0.061  -0.197683  -0.042346  3.715671  -0.057  -0.254759  -0.165376  -0.048168  3.686802  -0.061
N  N61  1  0.05755812  0.98763498  0.15543720  1  -0.197134  -0.06378  3.374826  -0.077  -0.17737  -0.04725  3.6981  -0.061  -0.197774  -0.042351  3.715818  -0.057  -0.254814  -0.165457  -0.048168  3.68694  -0.061
N  N62  1  0.08537814  0.77678044  0.57186683  1  -0.27318  0.089935  3.329389  0.111  -0.227739  0.066025  3.622466  0.087  -0.25706  0.056905  3.647742  0.078  -0.335013  -0.210158  0.070026  3.606655  0.09
N  N63  1  0.91462891  0.22320683  0.42813270  1  -0.273174  0.089904  3.329357  0.11  -0.227627  0.066035  3.622271  0.087  -0.256944  0.056913  3.647549  0.078  -0.334929  -0.210048  0.070033  3.606461  0.09
N  N64  1  0.88234536  0.22842332  0.96420654  1  -0.275689  -0.091754  3.309124  -0.113  -0.232826  -0.065966  3.59968  -0.087  -0.262156  -0.056176  3.624286  -0.078  -0.334668  -0.215032  -0.070549  3.584059  -0.091
N  N65  1  0.11764909  0.77158294  0.03579381  1  -0.275523  -0.091753  3.309129  -0.113  -0.232673  -0.065966  3.59968  -0.087  -0.262006  -0.056177  3.624296  -0.078  -0.334698  -0.214878  -0.070552  3.58406  -0.091
O  O66  1  0.73960685  0.03334554  0.52146109  1  -0.633869  -0.004683  1.950242  -0.005  -0.590882  -0.002221  2.18334  -0.002  -0.616419  -0.001767  2.166757  -0.002  -0.307941  -0.572522  -0.002646  2.193435  -0.003
O  O67  1  0.26039822  0.96663527  0.47853545  1  -0.633915  -0.004712  1.950247  -0.005  -0.590931  -0.002227  2.183345  -0.002  -0.616469  -0.001766  2.166757  -0.002  -0.308  -0.572568  -0.002646  2.193441  -0.003
O  O68  1  0.56537809  0.07331210  0.66666410  1  -0.725635  -0.000349  2.03302  -0.001  -0.676462  -0.000126  2.277519  0.0  -0.711709  -0.000178  2.258449  0.0  -0.410685  -0.658931  -0.000104  2.286714  0.0
O  O69  1  0.43462015  0.92668529  0.33332788  1  -0.725632  -0.000341  2.03297  0.0  -0.676457  -0.000127  2.277472  0.0  -0.711712  -0.000177  2.258394  0.0  -0.410694  -0.65894  -0.000104  2.286665  0.0
O  O70  1  0.61958947  0.97858708  0.93845661  1  -0.744243  0.000653  2.166967  0.001  -0.690848  0.000339  2.421827  0.001  -0.73142  0.000339  2.411265  0.001  -0.391897  -0.6728  0.000317  2.428371  0.0
O  O71  1  0.38037774  0.02145291  0.06154178  1  -0.74441  0.000636  2.167224  0.001  -0.690932  0.000338  2.421918  0.001  -0.731514  0.000339  2.411353  0.001  -0.391957  -0.672884  0.000317  2.428452  0.0
O  O72  1  0.77788640  0.98343894  0.04144948  1  -0.696036  0.003847  2.015406  0.004  -0.655928  0.002125  2.279259  0.002  -0.690191  0.001819  2.265168  0.001  -0.355935  -0.637873  0.002235  2.288589  0.002
O  O73  1  0.22211145  0.01656174  0.95854678  1  -0.695913  0.003839  2.015699  0.004  -0.655805  0.002122  2.279497  0.002  -0.690058  0.001821  2.265403  0.001  -0.355823  -0.637738  0.002235  2.288826  0.002
O  O74  1  0.22374609  0.23769351  0.70674641  1  -0.694835  -0.000647  1.939942  -0.001  -0.65094  -0.000201  2.172242  0.0  -0.683036  -0.000219  2.16258  0.0  -0.372336  -0.633711  -0.000218  2.178752  0.0
O  O75  1  0.77625666  0.76229067  0.29325555  1  -0.694912  -0.000643  1.939591  -0.001  -0.651016  -0.000198  2.171911  0.0  -0.683119  -0.000219  2.162253  0.0  -0.372335  -0.633808  -0.000218  2.178434  0.0
O  O76  1  0.35522514  0.25785136  0.82816794  1  -0.659669  -0.000679  1.966437  -0.001  -0.620881  -0.00025  2.198823  0.0  -0.652404  -0.000265  2.190873  0.0  -0.370357  -0.604119  -0.000214  2.203313  0.0
O  O77  1  0.64476595  0.74214742  0.17183167  1  -0.659738  -0.000687  1.966524  -0.001  -0.620956  -0.000253  2.198885  0.0  -0.652493  -0.000267  2.190946  0.0  -0.370352  -0.604206  -0.000214  2.203375  0.0
O  O78  1  0.50242663  0.75996140  0.94301949  1  -0.674767  0.000593  1.977869  0.001  -0.629895  0.000186  2.215684  0.0  -0.663133  0.000215  2.207959  0.0  -0.375487  -0.61176  0.00019  2.219774  0.0
O  O79  1  0.49757704  0.24005211  0.05697989  1  -0.674815  0.000606  1.977989  0.001  -0.629849  0.000188  2.215729  0.0  -0.663088  0.000214  2.207986  0.0  -0.375436  -0.611729  0.00019  2.219831  0.0
O  O80  1  0.65372631  0.77956681  0.79172409  1  -0.674741  0.000643  1.932097  0.001  -0.631863  0.000198  2.152965  0.0  -0.664349  0.00023  2.144712  0.0  -0.374943  -0.614106  0.000164  2.157706  0.0
O  O81  1  0.34631147  0.22044214  0.20830304  1  -0.67486  0.000648  1.931774  0.001  -0.631995  0.0002  2.152662  0.0  -0.664492  0.000227  2.144409  0.0  -0.375007  -0.614252  0.000164  2.157413  0.0
O  O82  1  0.32171971  0.93706747  0.70711109  1  -0.902559  -6.3e-05  1.871036  0.0  -0.856154  -4.9e-05  2.060467  0.0  -0.884351  -2.9e-05  2.02226  0.0  -0.633887  -0.843086  -5.4e-05  2.08446  0.0
O  O83  1  0.67828211  0.06292651  0.29288302  1  -0.90261  -6.5e-05  1.871113  0.0  -0.856187  -5e-05  2.060562  0.0  -0.884408  -2.9e-05  2.022371  0.0  -0.633932  -0.8431  -5.4e-05  2.084481  0.0
