# generated using pymatgen
data_H16PbC4(BrN2)2
_symmetry_space_group_name_H-M   'P 1'
_cell_length_a   7.54702966
_cell_length_b   7.54869445
_cell_length_c   12.01336358
_cell_angle_alpha   98.20414268
_cell_angle_beta   100.23727141
_cell_angle_gamma   119.21197727
_symmetry_Int_Tables_number   1
_chemical_formula_structural   H16PbC4(BrN2)2
_chemical_formula_sum   'H32 Pb2 C8 Br4 N8'
_cell_volume   566.49072713
_cell_formula_units_Z   2
loop_
 _symmetry_equiv_pos_site_id
 _symmetry_equiv_pos_as_xyz
  1  'x, y, z'
loop_
 _atom_site_type_symbol
 _atom_site_label
 _atom_site_symmetry_multiplicity
 _atom_site_fract_x
 _atom_site_fract_y
 _atom_site_fract_z
 _atom_site_occupancy
 _atom_site_hle17_bader_spin_density
 _atom_site_hle17_ddec_charge
 _atom_site_hle17_ddec_spin_density
 _atom_site_hle17_ddec_sum_bond_order
 _atom_site_hle17_magmom
 _atom_site_hse06_10hf_bader_spin_density
 _atom_site_hse06_10hf_ddec_charge
 _atom_site_hse06_10hf_ddec_spin_density
 _atom_site_hse06_10hf_ddec_sum_bond_order
 _atom_site_hse06_10hf_magmom
 _atom_site_hse06_bader_spin_density
 _atom_site_hse06_ddec_charge
 _atom_site_hse06_ddec_spin_density
 _atom_site_hse06_ddec_sum_bond_order
 _atom_site_hse06_magmom
 _atom_site_pbe_bader_spin_density
 _atom_site_pbe_cm5_charge
 _atom_site_pbe_ddec_charge
 _atom_site_pbe_ddec_spin_density
 _atom_site_pbe_ddec_sum_bond_order
 _atom_site_pbe_magmom
H  H0  1  0.16972228  0.77182683  0.50578301  1  0  0.268526  0  0.958461  0  0  0.254741  0  1.027469  0  0  0.261437  0  1.022731  0  0  0.25689  0.249932  0  1.030942  0
H  H1  1  0.76556956  0.66397279  0.99366744  1  0  0.269575  0  0.95834  0  0  0.255593  0  1.027722  0  0  0.262299  0  1.022963  0  0  0.256924  0.250777  0  1.031202  0
H  H2  1  0.83027972  0.22817692  0.49421829  1  0  0.268535  0  0.95847  0  0  0.25474  0  1.027504  0  0  0.261437  0  1.022766  0  0  0.256879  0.24993  0  1.030977  0
H  H3  1  0.23442944  0.33602785  0.00633493  1  0  0.269612  0  0.958312  0  0  0.255635  0  1.027712  0  0  0.262344  0  1.022948  0  0  0.256918  0.250818  0  1.031192  0
H  H4  1  0.18705545  0.59454664  0.41721794  1  0  0.27503  0  0.96305  0  0  0.260154  0  1.032127  0  0  0.267096  0  1.027074  0  0  0.255437  0.255216  0  1.035715  0
H  H5  1  0.67637300  0.76927876  0.08237447  1  0  0.274423  0  0.963047  0  0  0.259791  0  1.03155  0  0  0.26668  0  1.026585  0  0  0.255533  0.254902  0  1.035037  0
H  H6  1  0.81294572  0.40545553  0.58278314  1  0  0.275006  0  0.963098  0  0  0.260133  0  1.032169  0  0  0.267074  0  1.027119  0  0  0.255425  0.255195  0  1.035757  0
H  H7  1  0.32362650  0.23072029  0.91762783  1  0  0.274443  0  0.963002  0  0  0.259816  0  1.031494  0  0  0.266704  0  1.026531  0  0  0.255545  0.254925  0  1.034982  0
H  H8  1  0.53796377  0.83740038  0.54569126  1  0  0.026219  0  0.965371  0  0  0.042464  0  1.038591  0  0  0.042415  0  1.039099  0  0  0.08739  0.042331  0  1.038487  0
H  H9  1  0.79223802  0.99308807  0.95429624  1  0  0.026468  0  0.96532  0  0  0.042547  0  1.038968  0  0  0.042469  0  1.039532  0  0  0.087434  0.042427  0  1.038846  0
H  H10  1  0.46203820  0.16260332  0.45430754  1  0  0.026197  0  0.965332  0  0  0.042453  0  1.038577  0  0  0.042401  0  1.039087  0  0  0.087386  0.042319  0  1.038473  0
H  H11  1  0.20776134  0.00691575  0.04570811  1  0  0.026465  0  0.965381  0  0  0.042551  0  1.039035  0  0  0.042476  0  1.039597  0  0  0.087438  0.042426  0  1.038925  0
H  H12  1  0.52300005  0.86651148  0.40126956  1  0  0.050771  0  0.946198  0  0  0.066804  0  1.011634  0  0  0.067421  0  1.011705  0  0  0.092922  0.066259  0  1.011701  0
H  H13  1  0.96478384  0.12114435  0.09884077  1  0  0.050455  0  0.946095  0  0  0.066968  0  1.011077  0  0  0.067609  0  1.011125  0  0  0.092941  0.066369  0  1.011212  0
H  H14  1  0.47700109  0.13349064  0.59872901  1  0  0.050747  0  0.946217  0  0  0.066818  0  1.01164  0  0  0.067436  0  1.011707  0  0  0.092914  0.066272  0  1.01171  0
H  H15  1  0.03521384  0.87885632  0.90116313  1  0  0.050454  0  0.946087  0  0  0.066967  0  1.011076  0  0  0.067608  0  1.011124  0  0  0.092954  0.066379  0  1.011199  0
H  H16  1  0.75000057  0.42839732  0.37914470  1  0  0.057637  0  0.94506  0  0  0.075423  0  1.008506  0  0  0.075812  0  1.009091  0  0  0.097856  0.074986  0  1.0083  0
H  H17  1  0.54956122  0.37181776  0.12115482  1  0  0.056813  0  0.946197  0  0  0.074767  0  1.009548  0  0  0.075174  0  1.01016  0  0  0.097882  0.074338  0  1.009293  0
H  H18  1  0.24999536  0.57160009  0.62085289  1  0  0.057612  0  0.945066  0  0  0.075401  0  1.008513  0  0  0.075792  0  1.009098  0  0  0.097841  0.074965  0  1.008306  0
H  H19  1  0.45043788  0.62817805  0.87884216  1  0  0.056806  0  0.946259  0  0  0.074768  0  1.009598  0  0  0.075171  0  1.010215  0  0  0.097865  0.074339  0  1.009341  0
H  H20  1  0.49622774  0.38901322  0.31993290  1  0  0.046777  0  0.951433  0  0  0.060582  0  1.02411  0  0  0.061351  0  1.023646  0  0  0.090093  0.059818  0  1.02487  0
H  H21  1  0.56879230  0.17692924  0.18044657  1  0  0.046969  0  0.950718  0  0  0.060554  0  1.024044  0  0  0.061395  0  1.023547  0  0  0.089762  0.059714  0  1.024876  0
H  H22  1  0.50377169  0.61098572  0.68006355  1  0  0.04677  0  0.951419  0  0  0.060588  0  1.024108  0  0  0.061358  0  1.023644  0  0  0.090076  0.059823  0  1.024869  0
H  H23  1  0.43121033  0.82306812  0.81955093  1  0  0.047004  0  0.950694  0  0  0.060591  0  1.024021  0  0  0.061433  0  1.023522  0  0  0.089772  0.059749  0  1.02485  0
H  H24  1  0.81442055  0.76176529  0.41462530  1  0  0.276821  0  0.942659  0  0  0.261658  0  1.011005  0  0  0.268242  0  1.006714  0  0  0.268168  0.257053  0  1.013917  0
H  H25  1  0.84724770  0.39997332  0.08555042  1  0  0.275944  0  0.942859  0  0  0.260903  0  1.011357  0  0  0.267484  0  1.007084  0  0  0.267432  0.256285  0  1.014274  0
H  H26  1  0.18557673  0.23823213  0.58537328  1  0  0.2768  0  0.942672  0  0  0.261631  0  1.01103  0  0  0.268217  0  1.006737  0  0  0.268146  0.257026  0  1.013941  0
H  H27  1  0.15275561  0.60003037  0.91444852  1  0  0.275978  0  0.942831  0  0  0.260933  0  1.011332  0  0  0.267515  0  1.007058  0  0  0.267454  0.256317  0  1.014246  0
H  H28  1  0.66114897  0.72365353  0.28402343  1  0  0.27433  0  0.948898  0  0  0.260175  0  1.015865  0  0  0.266854  0  1.011393  0  0  0.265452  0.255476  0  1.01899  0
H  H29  1  0.93947421  0.37738264  0.21630784  1  0  0.274067  0  0.948769  0  0  0.259841  0  1.015816  0  0  0.266534  0  1.011313  0  0  0.264748  0.255128  0  1.01899  0
H  H30  1  0.33885352  0.27634861  0.71597612  1  0  0.274342  0  0.948882  0  0  0.260188  0  1.015844  0  0  0.266867  0  1.011375  0  0  0.26545  0.25549  0  1.018967  0
H  H31  1  0.06052961  0.62261947  0.78369103  1  0  0.274053  0  0.948813  0  0  0.259821  0  1.01586  0  0  0.266515  0  1.011357  0  0  0.264732  0.255108  0  1.019034  0
Pb  Pb32  1  0.07973296  0.82986673  0.24972941  1  0  1.017521  0  1.597999  0  0  0.82349  0  2.007137  0  0  0.870333  0  1.977796  0  0  0.481903  0.79024  0  2.027932  0
Pb  Pb33  1  0.92027174  0.17013702  0.75027303  1  0  1.017516  0  1.597982  0  0  0.823489  0  2.007089  0  0  0.87032  0  1.977777  0  0  0.481891  0.79024  0  2.027883  0
C  C34  1  0.46503547  0.88513189  0.47743049  1  0  0.057587  0  3.68746  0  0  0.006191  0  3.941642  0  0  0.009533  0  3.955893  0  0  -0.076505  0.004012  0  3.93168  0
C  C35  1  0.90757537  0.98755896  0.02253581  1  0  0.056584  0  3.690779  0  0  0.004785  0  3.945651  0  0  0.008131  0  3.959892  0  0  -0.077218  0.002619  0  3.935718  0
C  C36  1  0.53496786  0.11487183  0.52257013  1  0  0.057739  0  3.687384  0  0  0.006262  0  3.941608  0  0  0.0096  0  3.955874  0  0  -0.076441  0.004084  0  3.931645  0
C  C37  1  0.09242365  0.01244171  0.97746823  1  0  0.05662  0  3.690717  0  0  0.004801  0  3.945612  0  0  0.008148  0  3.959853  0  0  -0.077233  0.002633  0  3.935666  0
C  C38  1  0.65752362  0.45661179  0.31026204  1  0  0.052124  0  3.655198  0  0  -0.002611  0  3.911434  0  0  0.000922  0  3.924716  0  0  -0.077492  -0.004925  0  3.902376  0
C  C39  1  0.64625849  0.34781011  0.19003364  1  0  0.054233  0  3.654706  0  0  -0.001076  0  3.911201  0  0  0.0023  0  3.924591  0  0  -0.076955  -0.003258  0  3.902029  0
C  C40  1  0.34247497  0.54338558  0.68973418  1  0  0.052214  0  3.655162  0  0  -0.002549  0  3.911402  0  0  0.00098  0  3.924693  0  0  -0.077455  -0.004862  0  3.902338  0
C  C41  1  0.35374365  0.65218885  0.80996477  1  0  0.05413  0  3.65479  0  0  -0.001195  0  3.911296  0  0  0.002184  0  3.924685  0  0  -0.076994  -0.003382  0  3.90214  0
Br  Br42  1  0.05630233  0.22342223  0.36703339  1  0  -0.641436  0  0.773114  0  0  -0.576307  0  1.014165  0  0  -0.593486  0  0.99537  0  0  -0.281178  -0.563814  0  1.027264  0
Br  Br43  1  0.35598951  0.68903677  0.13290957  1  0  -0.641255  0  0.774717  0  0  -0.575961  0  1.016045  0  0  -0.593073  0  0.997257  0  0  -0.280841  -0.563584  0  1.029188  0
Br  Br44  1  0.94369580  0.77657678  0.63296626  1  0  -0.64142  0  0.773102  0  0  -0.576299  0  1.014153  0  0  -0.593469  0  0.995351  0  0  -0.28118  -0.563804  0  1.02725  0
Br  Br45  1  0.64400883  0.31095757  0.86709303  1  0  -0.641246  0  0.774708  0  0  -0.575958  0  1.016026  0  0  -0.593065  0  0.997244  0  0  -0.28085  -0.563579  0  1.029168  0
N  N46  1  0.23299810  0.75093768  0.43934095  1  0  -0.638797  0  3.08026  0  0  -0.576212  0  3.304865  0  0  -0.597112  0  3.307675  0  0  -0.614947  -0.561395  0  3.302582  0
N  N47  1  0.81076233  0.79318146  0.06022990  1  0  -0.638885  0  3.080688  0  0  -0.576169  0  3.305096  0  0  -0.597056  0  3.307986  0  0  -0.614921  -0.561355  0  3.302732  0
N  N48  1  0.76700170  0.24906449  0.56065914  1  0  -0.638836  0  3.080312  0  0  -0.576227  0  3.304917  0  0  -0.597126  0  3.307724  0  0  -0.614946  -0.561409  0  3.302633  0
N  N49  1  0.18923938  0.20681920  0.93977443  1  0  -0.638975  0  3.080577  0  0  -0.57628  0  3.304999  0  0  -0.597169  0  3.307883  0  0  -0.614947  -0.561464  0  3.302639  0
N  N50  1  0.76354863  0.68583627  0.32687380  1  0  -0.614664  0  3.111928  0  0  -0.545086  0  3.330541  0  0  -0.565923  0  3.334416  0  0  -0.604883  -0.53033  0  3.327391  0
N  N51  1  0.85889012  0.43689965  0.17330485  1  0  -0.613872  0  3.109534  0  0  -0.544019  0  3.326914  0  0  -0.564854  0  3.330828  0  0  -0.603832  -0.529234  0  3.323748  0
N  N52  1  0.23645082  0.31416270  0.67312432  1  0  -0.614679  0  3.111956  0  0  -0.54509  0  3.33056  0  0  -0.565931  0  3.334438  0  0  -0.604834  -0.530334  0  3.327408  0
N  N53  1  0.14111370  0.56310246  0.82669401  1  0  -0.613849  0  3.109545  0  0  -0.543978  0  3.326909  0  0  -0.564811  0  3.33082  0  0  -0.603802  -0.529195  0  3.323739  0
