# generated using pymatgen
data_Zn2H25C43N3O10
_symmetry_space_group_name_H-M   'P 1'
_cell_length_a   9.73935114
_cell_length_b   10.92259741
_cell_length_c   14.93392995
_cell_angle_alpha   88.03579029
_cell_angle_beta   75.72717371
_cell_angle_gamma   88.94392628
_symmetry_Int_Tables_number   1
_chemical_formula_structural   Zn2H25C43N3O10
_chemical_formula_sum   'Zn2 H25 C43 N3 O10'
_cell_volume   1538.63294132
_cell_formula_units_Z   1
loop_
 _symmetry_equiv_pos_site_id
 _symmetry_equiv_pos_as_xyz
  1  'x, y, z'
loop_
 _atom_site_type_symbol
 _atom_site_label
 _atom_site_symmetry_multiplicity
 _atom_site_fract_x
 _atom_site_fract_y
 _atom_site_fract_z
 _atom_site_occupancy
 _atom_site_pbe_bader_charge
 _atom_site_pbe_bader_spin_density
 _atom_site_pbe_cm5_charge
 _atom_site_pbe_ddec_charge
 _atom_site_pbe_ddec_spin_density
 _atom_site_pbe_ddec_sum_bond_order
 _atom_site_pbe_magmom
Zn  Zn0  1  0.13965573  0.48558120  0.50214621  1  1.288703  0  0.682524  0.830544  0  2.388968  0
Zn  Zn1  1  0.85251747  0.49421098  0.49509733  1  1.287296  0  0.675104  0.831978  0  2.390742  0
H  H2  1  0.74148529  0.74527230  0.07228355  1  0.039904  0  0.104796  0.1095  0  0.989449  0
H  H3  1  0.71020258  0.32489579  0.62819569  1  0.175843  0  0.114116  0.136509  0  1.043211  0
H  H4  1  0.55491868  0.16151031  0.71643536  1  0.056702  0  0.112253  0.106898  0  0.97702  0
H  H5  1  0.30464103  0.14622617  0.70534677  1  0.066747  0  0.115805  0.10993  0  0.971984  0
H  H6  1  0.20708792  0.29551241  0.60850055  1  0.190969  0  0.115873  0.14038  0  1.045203  0
H  H7  1  0.38757871  0.63441595  0.42356580  1  0.139283  0  0.140205  0.123735  0  0.969236  0
H  H8  1  0.91275146  0.48772876  0.19082371  1  0.118041  0  0.10513  0.111807  0  0.993809  0
H  H9  1  0.95238778  0.72310150  0.94248756  1  0.083061  0  0.111979  0.118557  0  0.984852  0
H  H10  1  0.67613662  0.48882411  0.76986897  1  0.07715  0  0.105702  0.112437  0  1.031139  0
H  H11  1  0.49577705  0.69192208  0.14763419  1  0.132855  0  0.106277  0.109568  0  1.033413  0
H  H12  1  0.46809338  0.47871901  0.81881258  1  0.110329  0  0.109046  0.127614  0  1.011353  0
H  H13  1  0.01026834  0.46894978  0.02023442  1  0.048358  0  0.103812  0.107834  0  1.014285  0
H  H14  1  0.49355222  0.43307016  0.17408925  1  0.07436  0  0.093653  0.089913  0  1.014021  0
H  H15  1  0.37826726  0.39373949  0.28560092  1  0.079784  0  0.097204  0.106423  0  1.011174  0
H  H16  1  0.51986699  0.50082083  0.27572867  1  0.071654  0  0.098494  0.098262  0  1.002225  0
H  H17  1  0.27981795  0.25389037  0.87409333  1  0.048479  0  0.090653  0.083996  0  1.010916  0
H  H18  1  0.10885576  0.27962854  0.85115343  1  0.055196  0  0.106932  0.114726  0  0.97432  0
H  H19  1  0.12850595  0.28320440  0.96761695  1  0.027005  0  0.093823  0.089991  0  1.008956  0
H  H20  1  0.83087932  0.09472302  0.60997103  1  0.066407  0  0.100383  0.101441  0  1.004225  0
H  H21  1  0.16451328  0.23125732  0.33453616  1  0.043292  0  0.098298  0.108375  0  1.032026  0
H  H22  1  0.32182812  0.12897659  0.20179304  1  0.055229  0  0.097239  0.092807  0  1.001097  0
H  H23  1  0.33594090  0.90031095  0.19873218  1  0.042571  0  0.096503  0.093147  0  1.005222  0
H  H24  1  0.19557019  0.77492330  0.32812995  1  0.0559  0  0.098092  0.109135  0  1.038049  0
H  H25  1  0.84198922  0.86609192  0.60653987  1  0.103194  0  0.105774  0.112067  0  0.990359  0
H  H26  1  0.64739837  0.64223502  0.42646982  1  0.143689  0  0.140399  0.119819  0  0.95513  0
C  C27  1  0.98605118  0.25498505  0.49050890  1  1.607495  0  0.222369  0.610751  0  4.171472  0
C  C28  1  0.22466882  0.51023636  0.02483476  1  -0.035825  0  -0.010678  -0.001845  0  4.011573  0
C  C29  1  0.31500453  0.55214921  0.07962922  1  -0.042845  0  -0.00853  -0.062069  0  3.936652  0
C  C30  1  0.93527638  0.51364177  0.67510440  1  1.595492  0  0.212237  0.589368  0  4.190181  0
C  C31  1  0.07862278  0.49200545  0.06483349  1  0.062926  0  -0.098771  -0.142691  0  4.030834  0
C  C32  1  0.02483623  0.50188380  0.15870558  1  -0.115336  0  -0.086168  -0.079308  0  4.0154  0
C  C33  1  0.25886731  0.54815759  0.17757983  1  0.490312  0  0.094512  0.201433  0  3.957618  0
C  C34  1  0.17132221  0.13144221  0.33339104  1  0.04905  0  -0.094312  -0.133957  0  3.97538  0
C  C35  1  0.25908448  0.07429911  0.25948449  1  -0.110813  0  -0.100098  -0.092453  0  4.064314  0
C  C36  1  0.26714035  0.94493193  0.25785340  1  -0.089163  0  -0.098683  -0.087861  0  4.054753  0
C  C37  1  0.18802732  0.87440169  0.33000074  1  0.048315  0  -0.096126  -0.136697  0  3.975862  0
C  C38  1  0.66436325  0.58127561  0.89842692  1  -0.009982  0  0.000151  0.036719  0  3.944244  0
C  C39  1  0.09574358  0.92996511  0.40733581  1  -0.020804  0  0.000176  0.063974  0  3.942086  0
C  C40  1  0.08733025  0.06153786  0.40849214  1  0.036034  0  -0.002743  0.05879  0  3.952617  0
C  C41  1  0.99178495  0.11849639  0.48387122  1  -0.101511  0  -0.007252  -0.056222  0  3.949205  0
C  C42  1  0.00774060  0.72490826  0.48815663  1  1.555113  0  0.219575  0.605251  0  4.155068  0
C  C43  1  0.90456266  0.04933794  0.55347261  1  -0.002378  0  -0.09416  -0.115534  0  4.032973  0
C  C44  1  0.91104522  0.92090953  0.55188700  1  -0.081215  0  -0.086883  -0.094588  0  4.015201  0
C  C45  1  0.00588806  0.86158410  0.48175245  1  0.015191  0  -0.013204  -0.073555  0  3.939954  0
C  C46  1  0.60132405  0.31697898  0.62345832  1  -0.070118  0  -0.079566  -0.152241  0  3.938207  0
C  C47  1  0.51374348  0.22744269  0.67279560  1  -0.013795  0  -0.071334  -0.058968  0  3.993879  0
C  C48  1  0.37140752  0.21919706  0.66712820  1  0.017356  0  -0.065961  -0.04341  0  3.979719  0
C  C49  1  0.74707151  0.64729670  0.94719247  1  -0.011268  0  -0.00577  0.082021  0  4.038925  0
C  C50  1  0.31585180  0.30234928  0.61388242  1  -0.059774  0  -0.074722  -0.142892  0  3.910101  0
C  C51  1  0.40272704  0.39578924  0.56268203  1  0.461794  0  0.131645  0.177768  0  3.930717  0
C  C52  1  0.54819227  0.40250757  0.56663604  1  0.453724  0  0.129625  0.176782  0  3.926571  0
C  C53  1  0.57734437  0.57213151  0.46600307  1  0.524646  0  0.080267  0.065488  0  3.884304  0
C  C54  1  0.05891141  0.50554400  0.31939166  1  1.608146  0  0.215178  0.609349  0  4.16324  0
C  C55  1  0.43383213  0.56708711  0.46351600  1  0.579802  0  0.081904  0.070982  0  3.87437  0
C  C56  1  0.87529167  0.56091076  0.76975673  1  -0.025324  0  -0.01149  -0.06687  0  3.93878  0
C  C57  1  0.11619150  0.52196229  0.21690699  1  0.022341  0  -0.024202  -0.13244  0  3.954725  0
C  C58  1  0.89105429  0.67090858  0.90524981  1  0.002322  0  -0.071646  -0.158622  0  3.920332  0
C  C59  1  0.95655186  0.62929922  0.81776077  1  0.059871  0  0.012303  0.050571  0  4.06037  0
C  C60  1  0.51628582  0.55729528  0.94074836  1  -0.019685  0  -0.000729  0.050809  0  3.963179  0
C  C61  1  0.73314456  0.54006856  0.81017240  1  0.000473  0  -0.076912  -0.121761  0  3.936547  0
C  C62  1  0.43993470  0.46704276  0.24251143  1  0.319302  0  -0.142455  -0.170155  0  3.906511  0
C  C63  1  0.17900472  0.30521952  0.89448908  1  0.41906  0  -0.137856  -0.169978  0  3.934308  0
C  C64  1  0.10158633  0.66142945  0.78006775  1  0.832731  0  0.173772  0.255098  0  4.035863  0
C  C65  1  0.45883879  0.58839428  0.03437323  1  0.054136  0  -0.005385  0.034213  0  3.952753  0
C  C66  1  0.54353212  0.65952281  0.07884767  1  -0.178257  0  -0.091494  -0.124836  0  4.019078  0
C  C67  1  0.68088677  0.68930020  0.03687685  1  0.081269  0  -0.095344  -0.144842  0  4.021793  0
C  C68  1  0.42748744  0.50270334  0.89071099  1  0.041543  0  -0.095858  -0.237598  0  3.974412  0
C  C69  1  0.28673570  0.48300763  0.93015041  1  0.422468  0  0.08418  0.212682  0  4.044326  0
N  N70  1  0.63347134  0.49088579  0.51504331  1  -1.206065  0  -0.28774  -0.191566  0  3.459176  0
N  N71  1  0.34990323  0.47937907  0.50904725  1  -1.207757  0  -0.286366  -0.189348  0  3.45708  0
N  N72  1  0.21829296  0.69583776  0.75668095  1  -1.134566  0  -0.335997  -0.387157  0  2.686434  0
O  O73  1  0.08618463  0.30329421  0.51737986  1  -1.169387  0  -0.30969  -0.550781  0  2.381862  0
O  O74  1  0.20271080  0.43442401  0.87830581  1  -1.084361  0  -0.203099  -0.193001  0  2.550427  0
O  O75  1  0.88123531  0.31135218  0.47135918  1  -1.159782  0  -0.310753  -0.536583  0  2.315567  0
O  O76  1  0.06730898  0.52503405  0.63984688  1  -1.150632  0  -0.300674  -0.519088  0  2.33269  0
O  O77  1  0.84847196  0.46589697  0.63527675  1  -1.1936  0  -0.324568  -0.5759  0  2.392562  0
O  O78  1  0.12717642  0.66951733  0.47075271  1  -1.162138  0  -0.308624  -0.542208  0  2.33602  0
O  O79  1  0.88703956  0.67343958  0.51359196  1  -1.165915  0  -0.320848  -0.556277  0  2.328205  0
O  O80  1  0.14331296  0.46020888  0.36497852  1  -1.172271  0  -0.314237  -0.561972  0  2.402614  0
O  O81  1  0.92911586  0.53334571  0.35329327  1  -1.163904  0  -0.322003  -0.550455  0  2.254253  0
O  O82  1  0.34761288  0.56927561  0.23447260  1  -1.084445  0  -0.205035  -0.193713  0  2.572617  0
