# generated using pymatgen
data_Li2H16(C2O)9
_symmetry_space_group_name_H-M   'P 1'
_cell_length_a   7.03601671
_cell_length_b   10.31080230
_cell_length_c   13.62072760
_cell_angle_alpha   108.02325216
_cell_angle_beta   104.97151998
_cell_angle_gamma   89.97354027
_symmetry_Int_Tables_number   1
_chemical_formula_structural   Li2H16(C2O)9
_chemical_formula_sum   'Li4 H32 C36 O18'
_cell_volume   904.35536630
_cell_formula_units_Z   2
loop_
 _symmetry_equiv_pos_site_id
 _symmetry_equiv_pos_as_xyz
  1  'x, y, z'
loop_
 _atom_site_type_symbol
 _atom_site_label
 _atom_site_symmetry_multiplicity
 _atom_site_fract_x
 _atom_site_fract_y
 _atom_site_fract_z
 _atom_site_occupancy
 _atom_site_hle17_bader_spin_density
 _atom_site_hle17_ddec_charge
 _atom_site_hle17_ddec_spin_density
 _atom_site_hle17_ddec_sum_bond_order
 _atom_site_hle17_magmom
 _atom_site_hse06_10hf_bader_spin_density
 _atom_site_hse06_10hf_ddec_charge
 _atom_site_hse06_10hf_ddec_spin_density
 _atom_site_hse06_10hf_ddec_sum_bond_order
 _atom_site_hse06_10hf_magmom
 _atom_site_hse06_bader_spin_density
 _atom_site_hse06_ddec_charge
 _atom_site_hse06_ddec_spin_density
 _atom_site_hse06_ddec_sum_bond_order
 _atom_site_hse06_magmom
 _atom_site_pbe_bader_spin_density
 _atom_site_pbe_cm5_charge
 _atom_site_pbe_ddec_charge
 _atom_site_pbe_ddec_spin_density
 _atom_site_pbe_ddec_sum_bond_order
 _atom_site_pbe_magmom
Li  Li0  1  0.95841157  0.89474798  0.04102912  1  0  0.864986  0  0.375667  0  0  0.824566  0  0.480589  0  0  0.834736  0  0.462367  0  0  0.498537  0.816787  0  0.494252  0
Li  Li1  1  0.91743398  0.60530057  0.95898915  1  0  0.864375  0  0.376299  0  0  0.824159  0  0.480886  0  0  0.834362  0  0.462618  0  0  0.49891  0.816364  0  0.494573  0
Li  Li2  1  0.04158810  0.10525265  0.95897040  1  0  0.864989  0  0.375662  0  0  0.824576  0  0.480569  0  0  0.834747  0  0.462347  0  0  0.498532  0.816793  0  0.494229  0
Li  Li3  1  0.08256568  0.39470005  0.04101037  1  0  0.864358  0  0.376318  0  0  0.824142  0  0.480909  0  0  0.834348  0  0.46264  0  0  0.498916  0.816347  0  0.494596  0
H  H4  1  0.60846027  0.72065663  0.93683191  1  0  0.44377  0  0.84979  0  0  0.415873  0  0.906737  0  0  0.426078  0  0.891768  0  0  0.309257  0.408702  0  0.917253  0
H  H5  1  0.67165468  0.77916077  0.06309112  1  0  0.444938  0  0.848077  0  0  0.417354  0  0.90468  0  0  0.427581  0  0.889653  0  0  0.310445  0.410199  0  0.915181  0
H  H6  1  0.39153940  0.27934400  0.06316761  1  0  0.443768  0  0.849789  0  0  0.415863  0  0.906747  0  0  0.426067  0  0.89178  0  0  0.309266  0.408691  0  0.917265  0
H  H7  1  0.32834498  0.22083985  0.93690840  1  0  0.444915  0  0.848107  0  0  0.41733  0  0.904711  0  0  0.427556  0  0.889685  0  0  0.31043  0.410171  0  0.915217  0
H  H8  1  0.21330652  0.50914262  0.24757518  1  0  0.108493  0  0.984861  0  0  0.112656  0  1.05423  0  0  0.117008  0  1.050808  0  0  0.112445  0.109432  0  1.05685  0
H  H9  1  0.96548894  0.99080138  0.75256454  1  0  0.10744  0  0.986424  0  0  0.111986  0  1.055443  0  0  0.116326  0  1.05207  0  0  0.112292  0.108766  0  1.058028  0
H  H10  1  0.78669289  0.49085595  0.75242383  1  0  0.108483  0  0.984807  0  0  0.112633  0  1.054203  0  0  0.116984  0  1.050784  0  0  0.112449  0.10941  0  1.056824  0
H  H11  1  0.03451219  0.00919924  0.24743592  1  0  0.107425  0  0.986422  0  0  0.111975  0  1.055441  0  0  0.116312  0  1.052066  0  0  0.112284  0.108755  0  1.058025  0
H  H12  1  0.43752373  0.50273123  0.41763237  1  0  0.084203  0  0.959907  0  0  0.09748  0  1.018809  0  0  0.100149  0  1.01782  0  0  0.099572  0.095457  0  1.019858  0
H  H13  1  0.01941808  0.99734097  0.58250380  1  0  0.084776  0  0.959303  0  0  0.097528  0  1.018723  0  0  0.100183  0  1.01776  0  0  0.099394  0.095533  0  1.019709  0
H  H14  1  0.56247580  0.49726837  0.58236763  1  0  0.084176  0  0.959932  0  0  0.097429  0  1.018858  0  0  0.100097  0  1.017873  0  0  0.099556  0.095408  0  1.019906  0
H  H15  1  0.98058011  0.00265965  0.41749625  1  0  0.084741  0  0.959315  0  0  0.097484  0  1.018755  0  0  0.100136  0  1.017793  0  0  0.099376  0.095488  0  1.01974  0
H  H16  1  0.66289396  0.71134250  0.54056127  1  0  0.089028  0  0.952823  0  0  0.099597  0  1.013187  0  0  0.101722  0  1.013149  0  0  0.101092  0.097976  0  1.013383  0
H  H17  1  0.12220690  0.78884176  0.45951434  1  0  0.088208  0  0.953193  0  0  0.098762  0  1.013736  0  0  0.10084  0  1.013756  0  0  0.100762  0.097256  0  1.013798  0
H  H18  1  0.33710410  0.28865710  0.45943853  1  0  0.08903  0  0.952828  0  0  0.099598  0  1.013199  0  0  0.101722  0  1.013161  0  0  0.101086  0.09798  0  1.013393  0
H  H19  1  0.87778968  0.21115784  0.54048599  1  0  0.088208  0  0.953149  0  0  0.098755  0  1.013706  0  0  0.100833  0  1.013726  0  0  0.100759  0.097247  0  1.013774  0
H  H20  1  0.66346255  0.91930817  0.48452884  1  0  0.112508  0  0.954673  0  0  0.120845  0  1.019473  0  0  0.124079  0  1.018307  0  0  0.10552  0.118542  0  1.020471  0
H  H21  1  0.17896674  0.58075490  0.51536323  1  0  0.112176  0  0.955488  0  0  0.120854  0  1.019704  0  0  0.123919  0  1.018777  0  0  0.105492  0.118656  0  1.020565  0
H  H22  1  0.33653552  0.08069143  0.51547023  1  0  0.112509  0  0.954729  0  0  0.120848  0  1.019508  0  0  0.124083  0  1.018341  0  0  0.105528  0.118549  0  1.020503  0
H  H23  1  0.82102986  0.41924470  0.48463563  1  0  0.112197  0  0.955473  0  0  0.120874  0  1.019697  0  0  0.123939  0  1.018769  0  0  0.105494  0.118673  0  1.020559  0
H  H24  1  0.55733189  0.07202230  0.13258699  1  0  0.15391  0  0.931346  0  0  0.171334  0  0.988294  0  0  0.174176  0  0.98672  0  0  0.113076  0.16929  0  0.989506  0
H  H25  1  0.42453678  0.42796429  0.86749710  1  0  0.152952  0  0.929143  0  0  0.170494  0  0.98612  0  0  0.173321  0  0.984552  0  0  0.112485  0.168465  0  0.987327  0
H  H26  1  0.44266886  0.92797525  0.86741196  1  0  0.153917  0  0.93135  0  0  0.171341  0  0.988297  0  0  0.174183  0  0.986726  0  0  0.113074  0.169296  0  0.989509  0
H  H27  1  0.57546301  0.57203736  0.13250342  1  0  0.152962  0  0.929121  0  0  0.170488  0  0.986118  0  0  0.173315  0  0.984551  0  0  0.112481  0.168458  0  0.98733  0
H  H28  1  0.51980394  0.16023649  0.26087111  1  0  0.152269  0  0.938437  0  0  0.167658  0  1.001221  0  0  0.169962  0  1.001132  0  0  0.105002  0.165734  0  1.002056  0
H  H29  1  0.25877707  0.33969052  0.73923734  1  0  0.152108  0  0.938995  0  0  0.167601  0  1.001611  0  0  0.169884  0  1.001551  0  0  0.104808  0.165682  0  1.002446  0
H  H30  1  0.48019841  0.83976208  0.73912903  1  0  0.152274  0  0.938402  0  0  0.167686  0  1.001162  0  0  0.169989  0  1.001075  0  0  0.105013  0.165758  0  1.002001  0
H  H31  1  0.74122270  0.66031113  0.26076464  1  0  0.152094  0  0.939002  0  0  0.167595  0  1.001608  0  0  0.169877  0  1.001548  0  0  0.104806  0.165673  0  1.002446  0
H  H32  1  0.31702984  0.06690604  0.15402108  1  0  0.161055  0  0.945191  0  0  0.178461  0  1.005854  0  0  0.181432  0  1.004581  0  0  0.124945  0.176367  0  1.006842  0
H  H33  1  0.16279786  0.43319788  0.84606463  1  0  0.161238  0  0.944568  0  0  0.178378  0  1.005554  0  0  0.181354  0  1.00426  0  0  0.124741  0.17627  0  1.006555  0
H  H34  1  0.68297077  0.93309048  0.84597908  1  0  0.161069  0  0.945178  0  0  0.17847  0  1.005843  0  0  0.181442  0  1.004569  0  0  0.12494  0.176373  0  1.006833  0
H  H35  1  0.83720179  0.56680274  0.15393636  1  0  0.16122  0  0.944598  0  0  0.178358  0  1.005586  0  0  0.181333  0  1.004292  0  0  0.124731  0.17625  0  1.006588  0
C  C36  1  0.17805325  0.71227516  0.15967803  1  0  0.720233  0  3.888203  0  0  0.673307  0  4.183225  0  0  0.707242  0  4.172345  0  0  0.230728  0.650393  0  4.189745  0
C  C37  1  0.01826497  0.78755083  0.84028744  1  0  0.719719  0  3.888945  0  0  0.672907  0  4.183956  0  0  0.706826  0  4.173099  0  0  0.230988  0.650012  0  4.190438  0
C  C38  1  0.82194789  0.28772547  0.84032169  1  0  0.720306  0  3.888143  0  0  0.673381  0  4.183175  0  0  0.707318  0  4.172295  0  0  0.230777  0.650467  0  4.18969  0
C  C39  1  0.98173458  0.21244877  0.15971110  1  0  0.719656  0  3.889054  0  0  0.672862  0  4.184048  0  0  0.706783  0  4.173192  0  0  0.23099  0.649971  0  4.190523  0
C  C40  1  0.31231814  0.71538648  0.26659152  1  0  -0.17092  0  3.716866  0  0  -0.154377  0  3.952221  0  0  -0.164773  0  3.974063  0  0  -0.018255  -0.147742  0  3.937663  0
C  C41  1  0.04560872  0.78452048  0.73339041  1  0  -0.169652  0  3.715576  0  0  -0.154027  0  3.952008  0  0  -0.164372  0  3.973798  0  0  -0.019113  -0.147386  0  3.937428  0
C  C42  1  0.68768140  0.28461311  0.73340848  1  0  -0.170856  0  3.716795  0  0  -0.154309  0  3.952166  0  0  -0.164714  0  3.974023  0  0  -0.018217  -0.147669  0  3.937604  0
C  C43  1  0.95439228  0.21547912  0.26660979  1  0  -0.169682  0  3.715564  0  0  -0.154083  0  3.952027  0  0  -0.164429  0  3.973815  0  0  -0.019143  -0.147447  0  3.937452  0
C  C44  1  0.31304581  0.59895711  0.29933862  1  0  -0.051847  0  3.718451  0  0  -0.073914  0  3.968128  0  0  -0.07284  0  3.987557  0  0  -0.076649  -0.074268  0  3.954907  0
C  C45  1  0.01348205  0.90100733  0.70073714  1  0  -0.052875  0  3.719143  0  0  -0.074975  0  3.968648  0  0  -0.073928  0  3.988087  0  0  -0.077004  -0.075355  0  3.95546  0
C  C46  1  0.68695225  0.40104248  0.70066118  1  0  -0.051934  0  3.71848  0  0  -0.074007  0  3.968198  0  0  -0.072931  0  3.987633  0  0  -0.076741  -0.074369  0  3.954988  0
C  C47  1  0.98652044  0.09899227  0.29926252  1  0  -0.052853  0  3.719191  0  0  -0.074949  0  3.968706  0  0  -0.073896  0  3.988139  0  0  -0.07697  -0.075328  0  3.955519  0
C  C48  1  0.43817829  0.59622449  0.39628900  1  0  -0.088768  0  3.778787  0  0  -0.106391  0  4.036776  0  0  -0.110269  0  4.057648  0  0  -0.096638  -0.103853  0  4.022546  0
C  C49  1  0.04160981  0.90383669  0.60380342  1  0  -0.089392  0  3.777878  0  0  -0.106386  0  4.035583  0  0  -0.110257  0  4.056442  0  0  -0.096643  -0.103854  0  4.021437  0
C  C50  1  0.56182113  0.40377409  0.60371001  1  0  -0.088775  0  3.778817  0  0  -0.106364  0  4.036803  0  0  -0.11024  0  4.057672  0  0  -0.09664  -0.103822  0  4.022576  0
C  C51  1  0.95839120  0.09616291  0.39619605  1  0  -0.089297  0  3.777883  0  0  -0.106284  0  4.035584  0  0  -0.110154  0  4.056443  0  0  -0.096628  -0.103753  0  4.021438  0
C  C52  1  0.56394364  0.71142212  0.46431987  1  0  -0.036661  0  3.764987  0  0  -0.052886  0  4.020083  0  0  -0.051552  0  4.040194  0  0  -0.085283  -0.053383  0  4.006099  0
C  C53  1  0.09947455  0.78867538  0.53573749  1  0  -0.034596  0  3.764707  0  0  -0.050824  0  4.019826  0  0  -0.049431  0  4.039769  0  0  -0.084067  -0.051473  0  4.005986  0
C  C54  1  0.43605441  0.28857748  0.53568066  1  0  -0.03673  0  3.765126  0  0  -0.052964  0  4.020231  0  0  -0.05163  0  4.040342  0  0  -0.085311  -0.053462  0  4.006247  0
C  C55  1  0.90052646  0.21132422  0.46426197  1  0  -0.034655  0  3.764697  0  0  -0.050879  0  4.019825  0  0  -0.049488  0  4.039769  0  0  -0.084107  -0.051532  0  4.005994  0
C  C56  1  0.56544536  0.82854914  0.43375980  1  0  -0.173581  0  3.751384  0  0  -0.197174  0  4.010905  0  0  -0.202668  0  4.02983  0  0  -0.098422  -0.193654  0  3.998285  0
C  C57  1  0.13164967  0.67146900  0.56620009  1  0  -0.174273  0  3.751232  0  0  -0.198167  0  4.010835  0  0  -0.203517  0  4.029725  0  0  -0.098654  -0.194751  0  3.998246  0
C  C58  1  0.43455404  0.17144943  0.56623994  1  0  -0.1735  0  3.751447  0  0  -0.197069  0  4.010948  0  0  -0.202564  0  4.029873  0  0  -0.098374  -0.193563  0  3.998338  0
C  C59  1  0.86835000  0.32853163  0.43379943  1  0  -0.174301  0  3.751259  0  0  -0.19819  0  4.010854  0  0  -0.20354  0  4.029744  0  0  -0.098632  -0.19477  0  3.998262  0
C  C60  1  0.44261405  0.82940020  0.33588617  1  0  0.263732  0  3.752948  0  0  0.245973  0  4.015496  0  0  0.257768  0  4.031002  0  0  0.087473  0.237981  0  4.005144  0
C  C61  1  0.10669326  0.67051516  0.66404240  1  0  0.263993  0  3.752285  0  0  0.246897  0  4.014552  0  0  0.258674  0  4.030017  0  0  0.088546  0.238946  0  4.004202  0
C  C62  1  0.55738414  0.17060043  0.66411389  1  0  0.263764  0  3.752917  0  0  0.245987  0  4.015488  0  0  0.257785  0  4.030993  0  0  0.08749  0.238003  0  4.00513  0
C  C63  1  0.89330641  0.32948546  0.33595713  1  0  0.264005  0  3.752302  0  0  0.246907  0  4.014585  0  0  0.258684  0  4.030049  0  0  0.088542  0.238957  0  4.004236  0
C  C64  1  0.51128298  0.94249884  0.22063722  1  0  0.725529  0  3.718807  0  0  0.676383  0  4.024959  0  0  0.709901  0  4.015337  0  0  0.254736  0.653436  0  4.030985  0
C  C65  1  0.29044906  0.55741130  0.77936046  1  0  0.727472  0  3.717688  0  0  0.678674  0  4.023342  0  0  0.712248  0  4.013629  0  0  0.257803  0.655735  0  4.029342  0
C  C66  1  0.48871667  0.05750178  0.77936450  1  0  0.725755  0  3.718714  0  0  0.67651  0  4.024991  0  0  0.710035  0  4.015354  0  0  0.254784  0.653564  0  4.031016  0
C  C67  1  0.70954874  0.44258625  0.22063956  1  0  0.727433  0  3.717764  0  0  0.678657  0  4.023388  0  0  0.712231  0  4.013675  0  0  0.257792  0.655721  0  4.029388  0
C  C68  1  0.47631260  0.06841588  0.19025223  1  0  -0.470213  0  3.666356  0  0  -0.552427  0  3.910413  0  0  -0.559731  0  3.911905  0  0  -0.232459  -0.54738  0  3.909819  0
C  C69  1  0.28585500  0.43156620  0.80981330  1  0  -0.469689  0  3.663591  0  0  -0.551836  0  3.907576  0  0  -0.559106  0  3.909055  0  0  -0.232067  -0.546818  0  3.906992  0
C  C70  1  0.52368961  0.93158167  0.80974765  1  0  -0.470302  0  3.666281  0  0  -0.55251  0  3.910376  0  0  -0.559817  0  3.911862  0  0  -0.232489  -0.54746  0  3.909771  0
C  C71  1  0.71414478  0.56843544  0.19018794  1  0  -0.469632  0  3.663523  0  0  -0.551783  0  3.907501  0  0  -0.55905  0  3.908979  0  0  -0.232044  -0.546763  0  3.906922  0
O  O72  1  0.12994843  0.82388380  0.14399675  1  0  -0.71125  0  1.962513  0  0  -0.667066  0  2.198966  0  0  -0.689037  0  2.186298  0  0  -0.374931  -0.651645  0  2.207416  0
O  O73  1  0.98570470  0.67590949  0.85585221  1  0  -0.710809  0  1.963298  0  0  -0.666315  0  2.199442  0  0  -0.688328  0  2.186802  0  0  -0.374896  -0.650877  0  2.207873  0
O  O74  1  0.87005271  0.17611682  0.85600298  1  0  -0.711284  0  1.962489  0  0  -0.667096  0  2.198934  0  0  -0.689067  0  2.186266  0  0  -0.374939  -0.651676  0  2.207381  0
O  O75  1  0.01429362  0.32409215  0.14414737  1  0  -0.710761  0  1.963342  0  0  -0.666282  0  2.199487  0  0  -0.688298  0  2.186849  0  0  -0.374872  -0.650842  0  2.20791  0
O  O76  1  0.11676961  0.59462541  0.08961345  1  0  -0.795669  0  1.964538  0  0  -0.747032  0  2.202921  0  0  -0.768343  0  2.187033  0  0  -0.436927  -0.731823  0  2.213516  0
O  O77  1  0.02713245  0.90517871  0.91043163  1  0  -0.796144  0  1.964806  0  0  -0.747445  0  2.203208  0  0  -0.76872  0  2.187343  0  0  -0.437219  -0.732278  0  2.213802  0
O  O78  1  0.88323006  0.40537522  0.91038607  1  0  -0.795694  0  1.964553  0  0  -0.747054  0  2.202937  0  0  -0.768366  0  2.187048  0  0  -0.436943  -0.731848  0  2.21353  0
O  O79  1  0.97286708  0.09482089  0.08956837  1  0  -0.796081  0  1.964809  0  0  -0.747387  0  2.203207  0  0  -0.768662  0  2.187342  0  0  -0.437211  -0.732224  0  2.2138  0
O  O80  1  0.45357730  0.95038756  0.31062971  1  0  -0.344746  0  2.302581  0  0  -0.274504  0  2.532602  0  0  -0.296643  0  2.53247  0  0  -0.139752  -0.258839  0  2.532055  0
O  O81  1  0.14297932  0.54949317  0.68924615  1  0  -0.345202  0  2.303073  0  0  -0.275523  0  2.533443  0  0  -0.297665  0  2.533284  0  0  -0.142141  -0.259927  0  2.532945  0
O  O82  1  0.54642345  0.04960999  0.68936997  1  0  -0.344845  0  2.302498  0  0  -0.274567  0  2.532569  0  0  -0.29671  0  2.532429  0  0  -0.139769  -0.258906  0  2.532023  0
O  O83  1  0.85702035  0.45050745  0.31075338  1  0  -0.345193  0  2.303128  0  0  -0.275531  0  2.533506  0  0  -0.297671  0  2.533346  0  0  -0.14215  -0.259933  0  2.533006  0
O  O84  1  0.58375120  0.84131260  0.17448645  1  0  -0.554201  0  1.996617  0  0  -0.497857  0  2.202841  0  0  -0.520565  0  2.195652  0  0  -0.253548  -0.482285  0  2.208067  0
O  O85  1  0.40897712  0.65859360  0.82555616  1  0  -0.55456  0  1.99612  0  0  -0.498508  0  2.202372  0  0  -0.521239  0  2.195163  0  0  -0.253776  -0.482887  0  2.207568  0
O  O86  1  0.41625237  0.15868393  0.82551338  1  0  -0.55426  0  1.996677  0  0  -0.497883  0  2.202965  0  0  -0.520593  0  2.195769  0  0  -0.253551  -0.482315  0  2.20819  0
O  O87  1  0.59102561  0.34140804  0.17444475  1  0  -0.554581  0  1.996266  0  0  -0.498501  0  2.202472  0  0  -0.521237  0  2.195268  0  0  -0.253781  -0.482888  0  2.207674  0
O  O88  1  0.72580124  0.74992218  0.99994073  1  0  -0.964067  0  1.767151  0  0  -0.922091  0  1.937229  0  0  -0.936781  0  1.902238  0  0  -0.660596  -0.911484  0  1.961513  0
O  O89  1  0.27419843  0.25007845  0.00005880  1  0  -0.964032  0  1.767167  0  0  -0.922059  0  1.937251  0  0  -0.936747  0  1.902265  0  0  -0.660593  -0.91145  0  1.961538  0
