# generated using pymatgen
data_MgH12C12N2O7
_symmetry_space_group_name_H-M   'P 1'
_cell_length_a   7.43566858
_cell_length_b   11.97374440
_cell_length_c   14.86165710
_cell_angle_alpha   90.00001264
_cell_angle_beta   97.10570785
_cell_angle_gamma   89.99996016
_symmetry_Int_Tables_number   1
_chemical_formula_structural   MgH12C12N2O7
_chemical_formula_sum   'Mg4 H48 C48 N8 O28'
_cell_volume   1313.01238344
_cell_formula_units_Z   4
loop_
 _symmetry_equiv_pos_site_id
 _symmetry_equiv_pos_as_xyz
  1  'x, y, z'
loop_
 _atom_site_type_symbol
 _atom_site_label
 _atom_site_symmetry_multiplicity
 _atom_site_fract_x
 _atom_site_fract_y
 _atom_site_fract_z
 _atom_site_occupancy
 _atom_site_hle17_bader_spin_density
 _atom_site_hle17_ddec_charge
 _atom_site_hle17_ddec_spin_density
 _atom_site_hle17_ddec_sum_bond_order
 _atom_site_hle17_magmom
 _atom_site_hse06_10hf_bader_spin_density
 _atom_site_hse06_10hf_ddec_charge
 _atom_site_hse06_10hf_ddec_spin_density
 _atom_site_hse06_10hf_ddec_sum_bond_order
 _atom_site_hse06_10hf_magmom
 _atom_site_hse06_bader_spin_density
 _atom_site_hse06_ddec_charge
 _atom_site_hse06_ddec_spin_density
 _atom_site_hse06_ddec_sum_bond_order
 _atom_site_hse06_magmom
 _atom_site_pbe_bader_spin_density
 _atom_site_pbe_cm5_charge
 _atom_site_pbe_ddec_charge
 _atom_site_pbe_ddec_spin_density
 _atom_site_pbe_ddec_sum_bond_order
 _atom_site_pbe_magmom
Mg  Mg0  1  0.77912528  0.94522723  0.78659985  1  0  1.441783  0  1.204087  0  0  1.330306  0  1.46085  0  0  1.352708  0  1.427195  0  0  0.824239  1.314492  0  1.484319  0
Mg  Mg1  1  0.72087488  0.44522568  0.21339987  1  0  1.441771  0  1.204097  0  0  1.330285  0  1.46088  0  0  1.352688  0  1.427222  0  0  0.82424  1.314475  0  1.484338  0
Mg  Mg2  1  0.22087517  0.05477399  0.21340011  1  0  1.441761  0  1.204117  0  0  1.330285  0  1.460884  0  0  1.352688  0  1.427228  0  0  0.824239  1.314474  0  1.484344  0
Mg  Mg3  1  0.27912420  0.55477471  0.78659933  1  0  1.441799  0  1.204073  0  0  1.330316  0  1.460841  0  0  1.352717  0  1.427187  0  0  0.82425  1.314502  0  1.484308  0
H  H4  1  0.09766208  0.93132028  0.73422107  1  0  0.415133  0  0.894651  0  0  0.382328  0  0.961676  0  0  0.393634  0  0.945113  0  0  0.292374  0.374332  0  0.973375  0
H  H5  1  0.40233823  0.43131866  0.26577917  1  0  0.41511  0  0.89469  0  0  0.382302  0  0.961718  0  0  0.393612  0  0.945149  0  0  0.292347  0.374306  0  0.973417  0
H  H6  1  0.90233971  0.06868011  0.26577897  1  0  0.415087  0  0.894719  0  0  0.382284  0  0.961741  0  0  0.393593  0  0.945173  0  0  0.292356  0.374284  0  0.973443  0
H  H7  1  0.59766221  0.56868089  0.73422079  1  0  0.41508  0  0.894728  0  0  0.382275  0  0.961751  0  0  0.393585  0  0.945183  0  0  0.292355  0.374279  0  0.973449  0
H  H8  1  0.13521813  0.91209990  0.83851559  1  0  0.433161  0  0.866603  0  0  0.402887  0  0.929001  0  0  0.413097  0  0.914064  0  0  0.298589  0.395696  0  0.939524  0
H  H9  1  0.36478221  0.41209743  0.16148464  1  0  0.433102  0  0.866696  0  0  0.402841  0  0.929075  0  0  0.413052  0  0.914136  0  0  0.29856  0.395647  0  0.9396  0
H  H10  1  0.86478231  0.08790049  0.16148504  1  0  0.433145  0  0.866627  0  0  0.402868  0  0.92903  0  0  0.413078  0  0.914093  0  0  0.29859  0.395672  0  0.939557  0
H  H11  1  0.63521688  0.58790212  0.83851524  1  0  0.433181  0  0.8666  0  0  0.402934  0  0.928949  0  0  0.413143  0  0.914016  0  0  0.298627  0.395743  0  0.939472  0
H  H12  1  0.43033071  0.94972213  0.71349451  1  0  0.426737  0  0.878819  0  0  0.391939  0  0.949316  0  0  0.403448  0  0.932297  0  0  0.292502  0.383776  0  0.961382  0
H  H13  1  0.06966959  0.44972150  0.28650573  1  0  0.426734  0  0.878818  0  0  0.391933  0  0.94932  0  0  0.403443  0  0.932301  0  0  0.292496  0.383772  0  0.961384  0
H  H14  1  0.56966973  0.05027826  0.28650612  1  0  0.426734  0  0.878827  0  0  0.391931  0  0.949332  0  0  0.403441  0  0.932313  0  0  0.292486  0.38377  0  0.961397  0
H  H15  1  0.93033086  0.55027805  0.71349423  1  0  0.426752  0  0.8788  0  0  0.391945  0  0.949312  0  0  0.403455  0  0.932293  0  0  0.292495  0.383783  0  0.961378  0
H  H16  1  0.43392216  0.88422050  0.80957001  1  0  0.44908  0  0.844126  0  0  0.415008  0  0.911566  0  0  0.426025  0  0.895273  0  0  0.299993  0.407223  0  0.923076  0
H  H17  1  0.06607686  0.38421900  0.19043014  1  0  0.449083  0  0.84413  0  0  0.41501  0  0.91157  0  0  0.426028  0  0.895275  0  0  0.299981  0.407222  0  0.923083  0
H  H18  1  0.56607693  0.11577989  0.19042986  1  0  0.449096  0  0.84411  0  0  0.415022  0  0.911552  0  0  0.42604  0  0.895257  0  0  0.299992  0.407236  0  0.923063  0
H  H19  1  0.93392224  0.61577804  0.80957108  1  0  0.449087  0  0.844121  0  0  0.415021  0  0.911548  0  0  0.426037  0  0.895256  0  0  0.299992  0.407233  0  0.923062  0
H  H20  1  0.90201462  0.82227734  0.65713907  1  0  0.436201  0  0.861319  0  0  0.403355  0  0.927127  0  0  0.413817  0  0.911609  0  0  0.302708  0.395959  0  0.938095  0
H  H21  1  0.59798432  0.32227671  0.34286123  1  0  0.436189  0  0.861337  0  0  0.403344  0  0.927143  0  0  0.413806  0  0.911624  0  0  0.302704  0.39595  0  0.938109  0
H  H22  1  0.09798311  0.17772388  0.34286139  1  0  0.436253  0  0.861248  0  0  0.40339  0  0.927093  0  0  0.413851  0  0.911577  0  0  0.302726  0.395992  0  0.938067  0
H  H23  1  0.40201612  0.67772367  0.65713873  1  0  0.436164  0  0.861371  0  0  0.40332  0  0.927174  0  0  0.413782  0  0.911657  0  0  0.302704  0.395927  0  0.938139  0
H  H24  1  0.72277529  0.75498515  0.67427405  1  0  0.436916  0  0.864146  0  0  0.40454  0  0.928007  0  0  0.414732  0  0.913068  0  0  0.299037  0.397385  0  0.938498  0
H  H25  1  0.77722508  0.25498360  0.32572700  1  0  0.436883  0  0.864193  0  0  0.404507  0  0.928056  0  0  0.414701  0  0.913113  0  0  0.299023  0.397346  0  0.938553  0
H  H26  1  0.27722380  0.24501524  0.32572650  1  0  0.436953  0  0.864085  0  0  0.404568  0  0.927962  0  0  0.414762  0  0.91302  0  0  0.299047  0.397411  0  0.938456  0
H  H27  1  0.22277671  0.74501595  0.67427304  1  0  0.436946  0  0.864102  0  0  0.404576  0  0.927949  0  0  0.414769  0  0.913008  0  0  0.299069  0.397418  0  0.938443  0
H  H28  1  0.73553030  0.06285834  0.97626289  1  0  0.084754  0  0.944436  0  0  0.089385  0  1.014455  0  0  0.093376  0  1.0095  0  0  0.121557  0.086442  0  1.018082  0
H  H29  1  0.76446350  0.56285635  0.02373637  1  0  0.084786  0  0.944438  0  0  0.089402  0  1.014475  0  0  0.093397  0  1.009513  0  0  0.121553  0.086455  0  1.018106  0
H  H30  1  0.26447014  0.93714372  0.02373706  1  0  0.084766  0  0.944404  0  0  0.089402  0  1.01443  0  0  0.093394  0  1.009474  0  0  0.121557  0.086456  0  1.01806  0
H  H31  1  0.23553288  0.43714070  0.97626334  1  0  0.084802  0  0.944406  0  0  0.089422  0  1.014438  0  0  0.093415  0  1.009478  0  0  0.121559  0.086479  0  1.018065  0
H  H32  1  0.78044810  0.41777905  0.93996368  1  0  0.108956  0  0.935164  0  0  0.120796  0  0.993166  0  0  0.124344  0  0.989285  0  0  0.116254  0.11815  0  0.996022  0
H  H33  1  0.71955209  0.91777708  0.06003738  1  0  0.10895  0  0.935214  0  0  0.120809  0  0.993206  0  0  0.124361  0  0.989314  0  0  0.116271  0.118157  0  0.996061  0
H  H34  1  0.21955234  0.58222301  0.06003695  1  0  0.108957  0  0.935197  0  0  0.120813  0  0.993184  0  0  0.124363  0  0.989299  0  0  0.116275  0.118164  0  0.996039  0
H  H35  1  0.28044835  0.08221996  0.93996190  1  0  0.108949  0  0.935187  0  0  0.120772  0  0.993208  0  0  0.124321  0  0.989328  0  0  0.116265  0.118127  0  0.996062  0
H  H36  1  0.83072872  0.38232728  0.78094973  1  0  0.119547  0  0.962462  0  0  0.126633  0  1.027247  0  0  0.131037  0  1.024144  0  0  0.11164  0.123433  0  1.029692  0
H  H37  1  0.66927151  0.88232538  0.21905066  1  0  0.119543  0  0.962391  0  0  0.126604  0  1.027202  0  0  0.131008  0  1.024101  0  0  0.111628  0.123403  0  1.029648  0
H  H38  1  0.16927578  0.61767394  0.21904980  1  0  0.119548  0  0.962417  0  0  0.12661  0  1.027232  0  0  0.131012  0  1.024132  0  0  0.111643  0.123409  0  1.029677  0
H  H39  1  0.33072757  0.11767250  0.78094787  1  0  0.119529  0  0.962436  0  0  0.126637  0  1.027209  0  0  0.131044  0  1.024099  0  0  0.111641  0.123436  0  1.029654  0
H  H40  1  0.92078845  0.33737806  0.65867583  1  0  0.126644  0  0.963158  0  0  0.133971  0  1.024978  0  0  0.137688  0  1.023483  0  0  0.11201  0.131266  0  1.026262  0
H  H41  1  0.57921047  0.83737624  0.34132447  1  0  0.126579  0  0.9632  0  0  0.13392  0  1.02501  0  0  0.137636  0  1.023517  0  0  0.112  0.131226  0  1.026275  0
H  H42  1  0.07921199  0.66262233  0.34132480  1  0  0.126584  0  0.963172  0  0  0.133922  0  1.024989  0  0  0.137639  0  1.023495  0  0  0.111999  0.131233  0  1.026255  0
H  H43  1  0.42078862  0.16262331  0.65867607  1  0  0.126573  0  0.963199  0  0  0.133918  0  1.025008  0  0  0.137635  0  1.023514  0  0  0.111984  0.131215  0  1.026289  0
H  H44  1  0.92091542  0.28308341  0.49781554  1  0  0.10382  0  0.937814  0  0  0.112362  0  1.001614  0  0  0.115648  0  0.998737  0  0  0.110708  0.109902  0  1.003821  0
H  H45  1  0.57908221  0.78308247  0.50218535  1  0  0.103845  0  0.937734  0  0  0.112379  0  1.00154  0  0  0.115664  0  0.998662  0  0  0.110721  0.109913  0  1.003746  0
H  H46  1  0.07907961  0.71691698  0.50218476  1  0  0.103867  0  0.937732  0  0  0.112407  0  1.001533  0  0  0.115692  0  0.998655  0  0  0.110741  0.109946  0  1.003739  0
H  H47  1  0.42091959  0.21691625  0.49781604  1  0  0.103866  0  0.937737  0  0  0.112409  0  1.001529  0  0  0.115693  0  0.998654  0  0  0.110742  0.109948  0  1.003735  0
H  H48  1  0.71600215  0.96081883  0.56458379  1  0  0.085519  0  0.946066  0  0  0.088104  0  1.021225  0  0  0.091915  0  1.016497  0  0  0.119146  0.085288  0  1.024665  0
H  H49  1  0.78399935  0.46081731  0.43541736  1  0  0.085461  0  0.946059  0  0  0.088073  0  1.021181  0  0  0.091888  0  1.01644  0  0  0.119152  0.085264  0  1.024631  0
H  H50  1  0.28399694  0.03918156  0.43541810  1  0  0.085422  0  0.946081  0  0  0.088034  0  1.021216  0  0  0.091849  0  1.016476  0  0  0.119145  0.085225  0  1.024664  0
H  H51  1  0.21600380  0.53918224  0.56458277  1  0  0.085479  0  0.946066  0  0  0.088074  0  1.021201  0  0  0.091888  0  1.016463  0  0  0.119157  0.085264  0  1.024646  0
C  C52  1  0.75700472  0.13538451  0.93466595  1  0  0.15407  0  3.67813  0  0  0.113301  0  3.935708  0  0  0.121564  0  3.950941  0  0  0.066304  0.108095  0  3.925357  0
C  C53  1  0.74298900  0.63538338  0.06533265  1  0  0.154045  0  3.678053  0  0  0.1133  0  3.935617  0  0  0.121563  0  3.950848  0  0  0.066339  0.108094  0  3.925265  0
C  C54  1  0.24299708  0.86461587  0.06533342  1  0  0.154062  0  3.678085  0  0  0.113306  0  3.935673  0  0  0.121569  0  3.950905  0  0  0.066279  0.108101  0  3.925319  0
C  C55  1  0.25700467  0.36461450  0.93466622  1  0  0.153998  0  3.678144  0  0  0.11326  0  3.93572  0  0  0.121523  0  3.950951  0  0  0.066309  0.108054  0  3.925368  0
C  C56  1  0.75408345  0.24323048  0.97114703  1  0  -0.122128  0  3.72157  0  0  -0.099845  0  3.9655  0  0  -0.112484  0  3.990166  0  0  -0.01077  -0.091918  0  3.949044  0
C  C57  1  0.74591015  0.74323017  0.02885158  1  0  -0.122196  0  3.721523  0  0  -0.099957  0  3.965539  0  0  -0.112601  0  3.990212  0  0  -0.010818  -0.092022  0  3.949079  0
C  C58  1  0.24591428  0.75677074  0.02885209  1  0  -0.122137  0  3.721496  0  0  -0.099904  0  3.965487  0  0  -0.112545  0  3.990159  0  0  -0.010775  -0.091969  0  3.949028  0
C  C59  1  0.25408894  0.25676938  0.97114762  1  0  -0.122085  0  3.721433  0  0  -0.09988  0  3.965457  0  0  -0.112517  0  3.990125  0  0  -0.010791  -0.091948  0  3.948999  0
C  C60  1  0.78298349  0.33268703  0.91452655  1  0  0.015816  0  3.667519  0  0  -0.015726  0  3.920317  0  0  -0.010053  0  3.936741  0  0  -0.053497  -0.01902  0  3.909009  0
C  C61  1  0.71701408  0.83268675  0.08547367  1  0  0.01583  0  3.667534  0  0  -0.015747  0  3.920381  0  0  -0.010073  0  3.936806  0  0  -0.053525  -0.01904  0  3.909071  0
C  C62  1  0.21701560  0.66731419  0.08547332  1  0  0.015802  0  3.667535  0  0  -0.015746  0  3.920355  0  0  -0.010073  0  3.93678  0  0  -0.053517  -0.019037  0  3.909043  0
C  C63  1  0.28298365  0.16731197  0.91452545  1  0  0.015775  0  3.66751  0  0  -0.015746  0  3.920359  0  0  -0.010072  0  3.936779  0  0  -0.053524  -0.019047  0  3.909058  0
C  C64  1  0.81179168  0.31233164  0.82535625  1  0  -0.125392  0  3.669075  0  0  -0.146691  0  3.926647  0  0  -0.153996  0  3.94675  0  0  -0.074256  -0.142038  0  3.913174  0
C  C65  1  0.68820591  0.81233056  0.17464329  1  0  -0.125382  0  3.669  0  0  -0.146634  0  3.926561  0  0  -0.153937  0  3.946662  0  0  -0.074227  -0.141982  0  3.913089  0
C  C66  1  0.18820740  0.68766958  0.17464362  1  0  -0.12539  0  3.669126  0  0  -0.146668  0  3.926681  0  0  -0.153971  0  3.946783  0  0  -0.074255  -0.142013  0  3.913207  0
C  C67  1  0.31179182  0.18766816  0.82535516  1  0  -0.125368  0  3.669039  0  0  -0.146679  0  3.92656  0  0  -0.15398  0  3.946659  0  0  -0.074244  -0.142024  0  3.913089  0
C  C68  1  0.80998552  0.20216643  0.79401892  1  0  0.181435  0  3.755315  0  0  0.17399  0  4.004582  0  0  0.180451  0  4.024099  0  0  0.125337  0.169828  0  3.991235  0
C  C69  1  0.69001084  0.70216536  0.20598053  1  0  0.181431  0  3.755222  0  0  0.174021  0  4.004499  0  0  0.18048  0  4.024022  0  0  0.125351  0.169861  0  3.99115  0
C  C70  1  0.19001628  0.79783395  0.20598112  1  0  0.181422  0  3.755417  0  0  0.174038  0  4.004665  0  0  0.180498  0  4.024185  0  0  0.125357  0.169882  0  3.991314  0
C  C71  1  0.30998689  0.29783419  0.79401792  1  0  0.181413  0  3.755269  0  0  0.174048  0  4.004534  0  0  0.180508  0  4.024057  0  0  0.125354  0.169888  0  3.991186  0
C  C72  1  0.82522704  0.17511807  0.69812460  1  0  0.19043  0  3.751447  0  0  0.186389  0  3.995109  0  0  0.193801  0  4.013253  0  0  0.130124  0.181582  0  3.98269  0
C  C73  1  0.67476935  0.67511703  0.30187686  1  0  0.190482  0  3.751289  0  0  0.186321  0  3.995128  0  0  0.193733  0  4.013276  0  0  0.130064  0.18151  0  3.982708  0
C  C74  1  0.17477070  0.82488232  0.30187654  1  0  0.190516  0  3.751311  0  0  0.186345  0  3.995154  0  0  0.193757  0  4.0133  0  0  0.130086  0.181532  0  3.982734  0
C  C75  1  0.32522974  0.32488252  0.69812368  1  0  0.190567  0  3.751187  0  0  0.186342  0  3.995103  0  0  0.193753  0  4.01325  0  0  0.130073  0.181531  0  3.982683  0
C  C76  1  0.88004047  0.25348284  0.63707165  1  0  -0.13899  0  3.680187  0  0  -0.158291  0  3.931893  0  0  -0.166017  0  3.952752  0  0  -0.078544  -0.153351  0  3.917942  0
C  C77  1  0.61995719  0.75348101  0.36292923  1  0  -0.138896  0  3.680074  0  0  -0.15819  0  3.931851  0  0  -0.165916  0  3.952712  0  0  -0.078502  -0.15326  0  3.917892  0
C  C78  1  0.11995727  0.74651922  0.36292881  1  0  -0.138895  0  3.680083  0  0  -0.158191  0  3.931875  0  0  -0.165917  0  3.952734  0  0  -0.078506  -0.153256  0  3.917913  0
C  C79  1  0.38004325  0.24651855  0.63707140  1  0  -0.138952  0  3.680066  0  0  -0.158242  0  3.931867  0  0  -0.165969  0  3.952727  0  0  -0.078516  -0.153302  0  3.917915  0
C  C80  1  0.87797901  0.22372940  0.54653684  1  0  -0.000854  0  3.689912  0  0  -0.030018  0  3.941731  0  0  -0.024643  0  3.958955  0  0  -0.059913  -0.033195  0  3.929965  0
C  C81  1  0.62202003  0.72372842  0.45346345  1  0  -0.000839  0  3.689869  0  0  -0.029981  0  3.941677  0  0  -0.024602  0  3.958898  0  0  -0.059906  -0.033162  0  3.929916  0
C  C82  1  0.12201736  0.77627183  0.45346287  1  0  -0.000863  0  3.689859  0  0  -0.030016  0  3.941669  0  0  -0.024635  0  3.958888  0  0  -0.059916  -0.033194  0  3.929903  0
C  C83  1  0.37798448  0.27627113  0.54653743  1  0  -0.000806  0  3.689881  0  0  -0.029958  0  3.941684  0  0  -0.024581  0  3.958906  0  0  -0.059896  -0.033133  0  3.929912  0
C  C84  1  0.81327441  0.11830708  0.51780110  1  0  -0.125453  0  3.745315  0  0  -0.101964  0  3.987736  0  0  -0.11429  0  4.011103  0  0  -0.014983  -0.094252  0  3.972205  0
C  C85  1  0.68672610  0.61830775  0.48219926  1  0  -0.125611  0  3.745366  0  0  -0.102109  0  3.987801  0  0  -0.114436  0  4.011167  0  0  -0.015036  -0.094394  0  3.972269  0
C  C86  1  0.18672061  0.88169331  0.48219920  1  0  -0.125586  0  3.745411  0  0  -0.102087  0  3.987836  0  0  -0.114414  0  4.011201  0  0  -0.014994  -0.094364  0  3.972298  0
C  C87  1  0.31328112  0.38169263  0.51780178  1  0  -0.125618  0  3.745382  0  0  -0.10213  0  3.987797  0  0  -0.114457  0  4.011162  0  0  -0.01502  -0.094418  0  3.972267  0
C  C88  1  0.76443554  0.04432356  0.58353412  1  0  0.160721  0  3.671685  0  0  0.118532  0  3.930276  0  0  0.127574  0  3.944814  0  0  0.066043  0.112757  0  3.920474  0
C  C89  1  0.73556370  0.54432336  0.41646683  1  0  0.16085  0  3.671491  0  0  0.118638  0  3.930111  0  0  0.127684  0  3.94465  0  0  0.066078  0.112845  0  3.920321  0
C  C90  1  0.23556220  0.95567599  0.41646702  1  0  0.160865  0  3.671578  0  0  0.118644  0  3.930204  0  0  0.127688  0  3.944744  0  0  0.066037  0.112855  0  3.920406  0
C  C91  1  0.26443945  0.45567703  0.58353397  1  0  0.1608  0  3.671594  0  0  0.118627  0  3.93017  0  0  0.127672  0  3.94471  0  0  0.066049  0.11284  0  3.920376  0
C  C92  1  0.71615143  0.26092826  0.06742780  1  0  0.697942  0  3.90079  0  0  0.63879  0  4.206965  0  0  0.673394  0  4.198143  0  0  0.225671  0.615448  0  4.212264  0
C  C93  1  0.78384893  0.76092651  0.93257190  1  0  0.698  0  3.900633  0  0  0.638872  0  4.206781  0  0  0.673474  0  4.197966  0  0  0.225691  0.615524  0  4.212081  0
C  C94  1  0.28385171  0.73907297  0.93257098  1  0  0.69803  0  3.900606  0  0  0.638903  0  4.206763  0  0  0.6735  0  4.197956  0  0  0.225694  0.615556  0  4.212065  0
C  C95  1  0.21615016  0.23907138  0.06742663  1  0  0.697943  0  3.900673  0  0  0.638826  0  4.206827  0  0  0.673418  0  4.198024  0  0  0.225702  0.615488  0  4.21212  0
C  C96  1  0.78612129  0.08621937  0.41958118  1  0  0.657669  0  3.920436  0  0  0.60117  0  4.219648  0  0  0.634764  0  4.213297  0  0  0.215635  0.578477  0  4.223151  0
C  C97  1  0.71387926  0.58621922  0.58041985  1  0  0.657721  0  3.920364  0  0  0.601192  0  4.219609  0  0  0.634786  0  4.213259  0  0  0.215633  0.578499  0  4.223109  0
C  C98  1  0.21387644  0.91378102  0.58041862  1  0  0.657716  0  3.920397  0  0  0.60121  0  4.219603  0  0  0.634802  0  4.213252  0  0  0.215615  0.578514  0  4.22311  0
C  C99  1  0.28612525  0.41378200  0.41958103  1  0  0.657799  0  3.920349  0  0  0.601286  0  4.219566  0  0  0.63488  0  4.213214  0  0  0.215637  0.578596  0  4.223067  0
N  N100  1  0.78283656  0.11469840  0.84882558  1  0  -0.412222  0  3.205687  0  0  -0.353992  0  3.458561  0  0  -0.36742  0  3.473686  0  0  -0.341594  -0.345094  0  3.448291  0
N  N101  1  0.71715718  0.61469647  0.15117302  1  0  -0.412228  0  3.205591  0  0  -0.353987  0  3.458438  0  0  -0.367415  0  3.473562  0  0  -0.341615  -0.345092  0  3.448166  0
N  N102  1  0.21716524  0.88530282  0.15117379  1  0  -0.412261  0  3.205666  0  0  -0.354034  0  3.45852  0  0  -0.367461  0  3.473644  0  0  -0.34159  -0.345135  0  3.448247  0
N  N103  1  0.28283784  0.38530141  0.84882593  1  0  -0.412244  0  3.205725  0  0  -0.354009  0  3.458557  0  0  -0.367438  0  3.473683  0  0  -0.341611  -0.34511  0  3.448284  0
N  N104  1  0.77520789  0.07021689  0.67149978  1  0  -0.401724  0  3.178196  0  0  -0.342722  0  3.42756  0  0  -0.356324  0  3.442038  0  0  -0.338558  -0.333658  0  3.417666  0
N  N105  1  0.72479268  0.57021500  0.32850057  1  0  -0.401742  0  3.178113  0  0  -0.34269  0  3.427519  0  0  -0.356294  0  3.441997  0  0  -0.338541  -0.333622  0  3.417619  0
N  N106  1  0.22478984  0.92978517  0.32850069  1  0  -0.401753  0  3.178109  0  0  -0.342699  0  3.427516  0  0  -0.356302  0  3.441994  0  0  -0.338513  -0.333627  0  3.41762  0
N  N107  1  0.27520912  0.42978372  0.67149947  1  0  -0.401781  0  3.178133  0  0  -0.342721  0  3.427542  0  0  -0.356325  0  3.44202  0  0  -0.338534  -0.333649  0  3.417645  0
O  O108  1  0.70506008  0.36141145  0.09360993  1  0  -0.708859  0  1.988568  0  0  -0.648356  0  2.227759  0  0  -0.672466  0  2.216038  0  0  -0.355555  -0.631615  0  2.235293  0
O  O109  1  0.79494424  0.86140885  0.90639071  1  0  -0.708869  0  1.988526  0  0  -0.648393  0  2.227765  0  0  -0.672472  0  2.21598  0  0  -0.355559  -0.631656  0  2.235302  0
O  O110  1  0.29494443  0.63858977  0.90638961  1  0  -0.708872  0  1.988456  0  0  -0.648392  0  2.227689  0  0  -0.67248  0  2.215927  0  0  -0.355555  -0.631646  0  2.235222  0
O  O111  1  0.20506297  0.13858903  0.09360832  1  0  -0.708799  0  1.988526  0  0  -0.648315  0  2.227727  0  0  -0.672413  0  2.215998  0  0  -0.355536  -0.631576  0  2.235259  0
O  O112  1  0.69639428  0.17406237  0.11432249  1  0  -0.663926  0  2.001629  0  0  -0.602567  0  2.228779  0  0  -0.627029  0  2.215759  0  0  -0.315283  -0.585567  0  2.237314  0
O  O113  1  0.80360482  0.67406060  0.88567645  1  0  -0.663951  0  2.001493  0  0  -0.602612  0  2.228633  0  0  -0.627079  0  2.215614  0  0  -0.315314  -0.585615  0  2.23717  0
O  O114  1  0.30360616  0.82593885  0.88567680  1  0  -0.663991  0  2.001576  0  0  -0.602636  0  2.228721  0  0  -0.627099  0  2.215705  0  0  -0.315311  -0.585637  0  2.237258  0
O  O115  1  0.19639427  0.32593477  0.11432343  1  0  -0.663963  0  2.001615  0  0  -0.60261  0  2.228744  0  0  -0.62707  0  2.215727  0  0  -0.315319  -0.585615  0  2.237278  0
O  O116  1  0.88309232  0.13723512  0.36602996  1  0  -0.691231  0  2.061861  0  0  -0.614512  0  2.275461  0  0  -0.641757  0  2.26382  0  0  -0.320984  -0.595375  0  2.282918  0
O  O117  1  0.61690818  0.63723754  0.63397108  1  0  -0.691232  0  2.061822  0  0  -0.614495  0  2.27541  0  0  -0.641738  0  2.26376  0  0  -0.320975  -0.595362  0  2.282867  0
O  O118  1  0.11690813  0.86276359  0.63397067  1  0  -0.69123  0  2.061821  0  0  -0.614502  0  2.275399  0  0  -0.641743  0  2.263752  0  0  -0.320987  -0.595366  0  2.282856  0
O  O119  1  0.38309362  0.36276285  0.36602964  1  0  -0.691289  0  2.061823  0  0  -0.614555  0  2.27541  0  0  -0.641804  0  2.263766  0  0  -0.320994  -0.595421  0  2.282865  0
O  O120  1  0.66531149  0.01575521  0.39368212  1  0  -0.599228  0  1.943881  0  0  -0.547121  0  2.166695  0  0  -0.572124  0  2.15894  0  0  -0.303367  -0.529531  0  2.171407  0
O  O121  1  0.83468778  0.51575502  0.60631814  1  0  -0.599243  0  1.943891  0  0  -0.547128  0  2.166725  0  0  -0.572134  0  2.158976  0  0  -0.303369  -0.529533  0  2.171427  0
O  O122  1  0.33468624  0.98424434  0.60631767  1  0  -0.599275  0  1.943891  0  0  -0.547159  0  2.166694  0  0  -0.572161  0  2.158941  0  0  -0.303358  -0.529559  0  2.1714  0
O  O123  1  0.16531673  0.48424536  0.39368341  1  0  -0.599278  0  1.94391  0  0  -0.547162  0  2.16672  0  0  -0.572168  0  2.158971  0  0  -0.303358  -0.529564  0  2.171418  0
O  O124  1  0.06008971  0.95818240  0.79260628  1  0  -0.89781  0  1.875676  0  0  -0.846278  0  2.059304  0  0  -0.864662  0  2.028771  0  0  -0.618132  -0.833231  0  2.080549  0
O  O125  1  0.43990923  0.45818075  0.20739455  1  0  -0.897748  0  1.875758  0  0  -0.846241  0  2.059415  0  0  -0.864605  0  2.028834  0  0  -0.618095  -0.833197  0  2.080663  0
O  O126  1  0.93991073  0.04181882  0.20739435  1  0  -0.897776  0  1.875754  0  0  -0.846246  0  2.059384  0  0  -0.864626  0  2.028842  0  0  -0.618155  -0.8332  0  2.080634  0
O  O127  1  0.56008851  0.54182047  0.79260592  1  0  -0.897804  0  1.87574  0  0  -0.846309  0  2.059404  0  0  -0.864672  0  2.028822  0  0  -0.618181  -0.833269  0  2.080653  0
O  O128  1  0.50335770  0.93385825  0.77298104  1  0  -0.921859  0  1.854271  0  0  -0.864781  0  2.044157  0  0  -0.882598  0  2.010008  0  0  -0.624087  -0.85216  0  2.067987  0
O  O129  1  0.99664382  0.43385908  0.22701809  1  0  -0.921866  0  1.854275  0  0  -0.864778  0  2.04414  0  0  -0.882597  0  2.009999  0  0  -0.624071  -0.85216  0  2.06797  0
O  O130  1  0.49664139  0.06614381  0.22702018  1  0  -0.921877  0  1.854255  0  0  -0.864795  0  2.044141  0  0  -0.882606  0  2.00998  0  0  -0.62407  -0.852178  0  2.06797  0
O  O131  1  0.00335933  0.56614214  0.77298203  1  0  -0.921901  0  1.854247  0  0  -0.864816  0  2.044132  0  0  -0.882633  0  2.00998  0  0  -0.624096  -0.852202  0  2.067966  0
O  O132  1  0.79129361  0.82520127  0.68741521  1  0  -0.916638  0  1.880727  0  0  -0.860881  0  2.071631  0  0  -0.877149  0  2.037547  0  0  -0.620317  -0.849476  0  2.095449  0
O  O133  1  0.70870397  0.32519975  0.31258434  1  0  -0.916592  0  1.880759  0  0  -0.860837  0  2.071662  0  0  -0.877104  0  2.037574  0  0  -0.62031  -0.849437  0  2.095486  0
O  O134  1  0.20870412  0.17480079  0.31258459  1  0  -0.916699  0  1.880608  0  0  -0.860933  0  2.071511  0  0  -0.877199  0  2.037419  0  0  -0.620357  -0.849531  0  2.095335  0
O  O135  1  0.29129647  0.67480064  0.68741562  1  0  -0.916618  0  1.880703  0  0  -0.860862  0  2.071615  0  0  -0.877131  0  2.037529  0  0  -0.620349  -0.84946  0  2.095435  0
