# generated using pymatgen
data_K2MnH32C28(S2O13)2
_symmetry_space_group_name_H-M   'P 1'
_cell_length_a   7.99696091
_cell_length_b   9.91244337
_cell_length_c   12.50878777
_cell_angle_alpha   98.51291915
_cell_angle_beta   95.39494537
_cell_angle_gamma   105.61996775
_symmetry_Int_Tables_number   1
_chemical_formula_structural   K2MnH32C28(S2O13)2
_chemical_formula_sum   'K2 Mn1 H32 C28 S4 O26'
_cell_volume   935.04731526
_cell_formula_units_Z   1
loop_
 _symmetry_equiv_pos_site_id
 _symmetry_equiv_pos_as_xyz
  1  'x, y, z'
loop_
 _atom_site_type_symbol
 _atom_site_label
 _atom_site_symmetry_multiplicity
 _atom_site_fract_x
 _atom_site_fract_y
 _atom_site_fract_z
 _atom_site_occupancy
 _atom_site_hle17_ddec_charge
 _atom_site_hle17_ddec_spin_density
 _atom_site_hle17_ddec_sum_bond_order
 _atom_site_hle17_magmom
 _atom_site_hse06_10hf_ddec_charge
 _atom_site_hse06_10hf_ddec_spin_density
 _atom_site_hse06_10hf_ddec_sum_bond_order
 _atom_site_hse06_10hf_magmom
 _atom_site_hse06_ddec_charge
 _atom_site_hse06_ddec_spin_density
 _atom_site_hse06_ddec_sum_bond_order
 _atom_site_hse06_magmom
 _atom_site_pbe_cm5_charge
 _atom_site_pbe_ddec_charge
 _atom_site_pbe_ddec_spin_density
 _atom_site_pbe_ddec_sum_bond_order
 _atom_site_pbe_magmom
K  K0  1  0.36897117  0.07728050  0.09639652  1  0.932627  -0.0  0.452741  0.0  0.892162  1.1e-05  0.629537  0.0  0.904844  8e-06  0.607759  0.0  0.759921  0.881941  3.5e-05  0.645982  0.0
K  K1  1  0.63103596  0.92270912  0.90359715  1  0.932598  4e-06  0.452803  0.0  0.89216  1.2e-05  0.629582  0.0  0.904863  6e-06  0.607764  0.0  0.759943  0.881934  3.5e-05  0.646028  0.0
Mn  Mn2  1  0.00000718  0.50000256  0.00000035  1  1.358083  4.812745  1.535809  4.715  1.200257  4.747531  2.014852  4.59  1.254284  4.780647  1.944678  4.638  0.619941  1.156847  4.715324  2.066883  4.545
H  H3  1  0.23840317  0.36497041  0.90851287  1  0.441391  3.9e-05  0.85125  0.001  0.410048  0.000647  0.914743  0.002  0.420435  0.000428  0.899604  0.001  0.30905  0.40257  0.000856  0.925639  0.002
H  H4  1  0.76161851  0.63503508  0.09148922  1  0.441262  3.9e-05  0.851457  0.001  0.409982  0.000647  0.914824  0.002  0.420368  0.000428  0.899687  0.001  0.309023  0.40251  0.000856  0.925705  0.002
H  H5  1  0.10814490  0.38661666  0.81233318  1  0.431513  -0.000236  0.871165  0.001  0.397765  0.000262  0.939229  0.001  0.409284  9.9e-05  0.922574  0.001  0.300525  0.389495  0.000409  0.951205  0.002
H  H6  1  0.89186530  0.61338141  0.18766892  1  0.431523  -0.000236  0.87114  0.001  0.397783  0.000262  0.939195  0.001  0.409303  9.9e-05  0.922537  0.001  0.300526  0.389517  0.000409  0.951165  0.002
H  H7  1  0.99924508  0.81251998  0.13630253  1  0.431234  -0.000589  0.86631  0.0  0.402423  -0.000524  0.925658  0.0  0.412929  -0.000575  0.910349  0.0  0.298456  0.394724  -0.00046  0.936879  0.0
H  H8  1  0.00075825  0.18748339  0.86370939  1  0.431341  -0.000589  0.866149  0.0  0.402584  -0.000524  0.925432  0.0  0.413089  -0.000575  0.910124  0.0  0.298536  0.394883  -0.00046  0.936658  0.0
H  H9  1  0.96857723  0.96416419  0.13536069  1  0.413755  3.5e-05  0.888924  0.0  0.384122  6.9e-05  0.952803  0.0  0.39395  4.4e-05  0.938286  0.0  0.298258  0.376922  0.000125  0.963484  0.0
H  H10  1  0.03141409  0.03583723  0.86463748  1  0.413794  3.5e-05  0.888906  0.0  0.384146  6.9e-05  0.952787  0.0  0.393973  4.4e-05  0.938272  0.0  0.298291  0.376946  0.000125  0.963469  0.0
H  H11  1  0.54426711  0.43266847  0.11575825  1  0.438087  -5.1e-05  0.845926  0.0  0.406073  -7.4e-05  0.916279  0.0  0.416056  -7.3e-05  0.901553  0.0  0.306193  0.398844  -7.5e-05  0.926941  0.0
H  H12  1  0.45572504  0.56733179  0.88425022  1  0.43819  -5.1e-05  0.84578  0.0  0.406157  -7.4e-05  0.916197  0.0  0.416142  -7.3e-05  0.901469  0.0  0.306231  0.398921  -7.5e-05  0.926872  0.0
H  H13  1  0.68964220  0.35156458  0.12737233  1  0.428163  -0.000608  0.870573  0.0  0.395584  -0.000593  0.937902  0.0  0.405901  -0.000623  0.922747  0.0  0.303075  0.388206  -0.000556  0.948764  0.0
H  H14  1  0.31034379  0.64843252  0.87263379  1  0.428169  -0.000609  0.870523  0.0  0.395627  -0.000593  0.937853  0.0  0.405949  -0.000623  0.922689  0.0  0.303108  0.388249  -0.000556  0.948716  0.0
H  H15  1  0.63489354  0.24216717  0.47861442  1  0.099416  -1e-06  0.968715  0.0  0.107835  3e-06  1.034361  0.0  0.111151  2e-06  1.032245  0.0  0.106641  0.105497  4e-06  1.035804  0.0
H  H16  1  0.36512609  0.75783612  0.52139687  1  0.099282  1e-06  0.968874  0.0  0.107775  3e-06  1.034432  0.0  0.111093  2e-06  1.032316  0.0  0.106593  0.105433  4e-06  1.035875  0.0
H  H17  1  0.75578276  0.33194618  0.67725998  1  0.115493  -0.000164  0.963327  0.0  0.121136  -0.000199  1.030285  0.0  0.124826  -0.000207  1.028259  0.0  0.107691  0.118362  -0.000186  1.032044  0.0
H  H18  1  0.24423242  0.66803793  0.32274789  1  0.115525  -0.000165  0.963376  0.0  0.121176  -0.000199  1.030315  0.0  0.124868  -0.000207  1.028287  0.0  0.107695  0.118389  -0.000186  1.03209  0.0
H  H19  1  0.24963425  0.12583888  0.76080421  1  0.100818  6e-06  0.959197  0.0  0.110207  6.6e-05  1.02203  0.0  0.114136  3.9e-05  1.019113  0.0  0.110181  0.107271  0.0001  1.024393  0.0
H  H20  1  0.75036171  0.87417534  0.23919341  1  0.100766  6e-06  0.959279  0.0  0.110122  6.6e-05  1.022165  0.0  0.114053  3.9e-05  1.019244  0.0  0.110158  0.107185  0.0001  1.024531  0.0
H  H21  1  0.13599410  0.03346409  0.56526199  1  0.107101  3.2e-05  0.965148  0.0  0.114561  5.3e-05  1.032476  0.0  0.118103  3.8e-05  1.030099  0.0  0.107035  0.112005  6.2e-05  1.034252  0.0
H  H22  1  0.86400852  0.96656506  0.43473546  1  0.107001  3.3e-05  0.965351  0.0  0.114474  5.3e-05  1.032666  0.0  0.118007  3.8e-05  1.030294  0.0  0.106999  0.111923  6.2e-05  1.034437  0.0
H  H23  1  0.38022856  0.49333216  0.45414646  1  0.102313  1.8e-05  0.975768  0.0  0.109308  1.6e-05  1.043833  0.0  0.11257  1.3e-05  1.041604  0.0  0.107278  0.106995  1.9e-05  1.045413  0.0
H  H24  1  0.61976980  0.50664365  0.54584340  1  0.102383  1.8e-05  0.97558  0.0  0.109285  1.6e-05  1.043769  0.0  0.112548  1.3e-05  1.041539  0.0  0.107265  0.106972  1.9e-05  1.045349  0.0
H  H25  1  0.29151807  0.40659862  0.25487246  1  0.113077  -0.000147  0.942528  0.0  0.121848  -0.000164  1.003298  0.0  0.125274  -0.000165  1.001506  0.0  0.114387  0.119365  -0.000159  1.00468  0.0
H  H26  1  0.70848019  0.59338040  0.74511779  1  0.113164  -0.000148  0.94243  0.0  0.121943  -0.000164  1.003178  0.0  0.125369  -0.000165  1.001384  0.0  0.114412  0.119459  -0.000159  1.004554  0.0
H  H27  1  0.78842687  0.15700320  0.31423345  1  0.11211  -2.1e-05  0.948682  0.0  0.120758  -5e-06  1.011314  0.0  0.124228  -8e-06  1.00944  0.0  0.113732  0.118254  1e-06  1.012749  0.0
H  H28  1  0.21155936  0.84300152  0.68575842  1  0.112092  -2.1e-05  0.948683  0.0  0.120792  -5e-06  1.011266  0.0  0.124257  -8e-06  1.009397  0.0  0.11373  0.118284  1e-06  1.012711  0.0
H  H29  1  0.88605497  0.23671144  0.51575907  1  0.101918  1.5e-05  0.971538  0.0  0.108772  9e-06  1.039617  0.0  0.111993  9e-06  1.037506  0.0  0.107514  0.106521  8e-06  1.041073  0.0
H  H30  1  0.11394244  0.76328254  0.48423136  1  0.101879  1.5e-05  0.971479  0.0  0.108705  9e-06  1.039624  0.0  0.111921  9e-06  1.037523  0.0  0.107499  0.106465  8e-06  1.041052  0.0
H  H31  1  0.11829474  0.96128325  0.28601209  1  0.41004  3e-06  0.880215  0.0  0.38141  4e-06  0.952013  0.0  0.393702  3e-06  0.937716  0.0  0.302094  0.372773  4e-06  0.961012  0.0
H  H32  1  0.88170131  0.03874162  0.71398924  1  0.410128  4e-06  0.880258  0.0  0.381538  4e-06  0.951973  0.0  0.393828  4e-06  0.93757  0.0  0.302168  0.372903  4e-06  0.960959  0.0
H  H33  1  0.36621779  0.56243008  0.72758475  1  0.408809  -3e-06  0.886777  0.0  0.37834  -6e-06  0.960864  0.0  0.391173  -6e-06  0.944572  0.0  0.302285  0.369325  -6e-06  0.970061  0.0
H  H34  1  0.63376049  0.43755963  0.27241680  1  0.408872  -3e-06  0.886719  0.0  0.378306  -6e-06  0.96098  0.0  0.391139  -6e-06  0.94463  0.0  0.30227  0.369293  -6e-06  0.970171  0.0
C  C35  1  0.32078280  0.07619096  0.39112363  1  0.652126  -4e-06  3.832162  0.0  0.605868  6e-06  4.127782  0.0  0.638014  1e-06  4.120689  0.0  0.22978  0.583757  1.1e-05  4.132526  0.0
C  C36  1  0.67922183  0.92382640  0.60887729  1  0.652051  -4e-06  3.832033  0.0  0.605867  6e-06  4.127616  0.0  0.637985  2e-06  4.120575  0.0  0.22984  0.583755  1.1e-05  4.132358  0.0
C  C37  1  0.38170400  0.13035615  0.51012030  1  -0.071586  -0.000239  3.761343  0.0  -0.050003  4e-06  3.992081  0.0  -0.057313  -3.5e-05  4.016337  0.0  -0.015577  -0.045142  3.8e-05  3.975839  0.0
C  C38  1  0.61830641  0.86966330  0.48988122  1  -0.071475  -0.000233  3.761433  0.0  -0.050039  6e-06  3.992323  0.0  -0.057339  -3.7e-05  4.016588  0.0  -0.015585  -0.045173  3.8e-05  3.976074  0.0
C  C39  1  0.55444979  0.21578946  0.54221228  1  -0.059114  0.000158  3.707041  0.0  -0.082644  5.1e-05  3.955885  0.0  -0.08357  5.6e-05  3.976072  0.0  -0.077439  -0.081771  5.4e-05  3.942129  0.0
C  C40  1  0.44556513  0.78421816  0.45779526  1  -0.058855  0.000146  3.706777  0.0  -0.082402  5.1e-05  3.955665  0.0  -0.083314  5.7e-05  3.975813  0.0  -0.077261  -0.081527  5.4e-05  3.941909  0.0
C  C41  1  0.62025557  0.26741261  0.65223619  1  -0.067365  -0.000536  3.730776  0.0  -0.092278  -0.000192  3.98279  0.0  -0.092946  -0.000243  4.001821  0.0  -0.081494  -0.091954  -0.00015  3.970461  0.0
C  C42  1  0.37975558  0.73258115  0.34777023  1  -0.067553  -0.000519  3.730721  0.0  -0.092511  -0.000193  3.9828  0.0  -0.093164  -0.000242  4.001811  0.0  -0.081654  -0.092176  -0.00015  3.970477  0.0
C  C43  1  0.50867148  0.23522629  0.72997860  1  -0.107012  0.002135  3.728565  0.002  -0.083598  0.002311  3.976027  0.002  -0.088254  0.001894  3.995962  0.002  -0.011543  -0.080618  0.002753  3.962947  0.002
C  C44  1  0.49133236  0.76477503  0.27002350  1  -0.106935  0.002126  3.728444  0.002  -0.083484  0.00231  3.97588  0.002  -0.088154  0.001894  3.995843  0.002  -0.011485  -0.080501  0.002753  3.962788  0.002
C  C45  1  0.33483582  0.15071494  0.69914369  1  -0.059237  7e-05  3.722982  0.0  -0.084359  0.000513  3.975969  0.0  -0.084807  0.000368  3.99439  0.0  -0.080433  -0.084073  0.000678  3.963782  0.001
C  C46  1  0.66516514  0.84929923  0.30085662  1  -0.059279  7.5e-05  3.723139  0.0  -0.084389  0.000513  3.976103  0.0  -0.084832  0.000366  3.994522  0.0  -0.080425  -0.084103  0.000678  3.963917  0.001
C  C47  1  0.27147451  0.09807014  0.58928934  1  -0.056012  0.000258  3.692838  0.0  -0.081377  0.000205  3.944454  0.0  -0.082226  0.000172  3.96474  0.0  -0.077808  -0.080827  0.000248  3.930833  0.0
C  C48  1  0.72853166  0.90195150  0.41070980  1  -0.05595  0.000254  3.693118  0.0  -0.081293  0.000204  3.944755  0.0  -0.082132  0.000173  3.965031  0.0  -0.077782  -0.080746  0.000248  3.931134  0.0
C  C49  1  0.18280791  0.42706642  0.61642194  1  0.656845  2.5e-05  3.822034  0.0  0.603426  0.000127  4.122126  0.0  0.636634  7e-05  4.114642  0.0  0.236686  0.580795  0.000202  4.126748  0.0
C  C50  1  0.81718359  0.57292860  0.38357545  1  0.657183  2.2e-05  3.821809  0.0  0.603721  0.000127  4.121947  0.0  0.63693  6.9e-05  4.11446  0.0  0.236852  0.581091  0.000202  4.126579  0.0
C  C51  1  0.13498368  0.37353238  0.49680134  1  -0.076062  0.000447  3.769209  0.0  -0.055007  0.000609  4.003201  0.0  -0.063035  0.000496  4.027783  0.0  -0.015746  -0.049634  0.00079  3.986575  0.001
C  C52  1  0.86501602  0.62646793  0.50319639  1  -0.076213  0.000464  3.769388  0.0  -0.055113  0.000608  4.003373  0.0  -0.06314  0.0005  4.027955  0.0  -0.015712  -0.049747  0.000791  3.986754  0.001
C  C53  1  0.25123233  0.41987851  0.42389328  1  -0.050765  -0.000305  3.699114  0.0  -0.076735  -0.000158  3.950801  0.0  -0.077225  -0.000233  3.970979  0.0  -0.074498  -0.076374  -0.000119  3.937307  0.0
C  C54  1  0.74876679  0.58009940  0.57610008  1  -0.050715  -0.000325  3.698759  0.0  -0.076651  -0.000156  3.950513  0.0  -0.077141  -0.000236  3.970692  0.0  -0.074511  -0.076305  -0.000119  3.937054  0.0
C  C55  1  0.20195027  0.37205795  0.31224321  1  -0.049446  0.000384  3.715336  0.0  -0.074259  0.000486  3.968044  0.001  -0.074439  0.000371  3.986636  0.0  -0.073251  -0.074195  0.000671  3.955834  0.001
C  C56  1  0.79804770  0.62793067  0.68774900  1  -0.049614  0.000397  3.715152  0.0  -0.074386  0.000487  3.96785  0.001  -0.074563  0.000374  3.98644  0.0  -0.073311  -0.074321  0.000672  3.955635  0.001
C  C57  1  0.03466160  0.27959372  0.27371770  1  -0.110807  0.000252  3.729863  0.001  -0.088183  0.000422  3.978504  0.001  -0.093236  0.000141  3.998971  0.0  -0.011009  -0.084846  0.0007  3.964952  0.001
C  C58  1  0.96533559  0.72040659  0.72628228  1  -0.110823  0.000237  3.72981  0.001  -0.088235  0.00042  3.978516  0.001  -0.093293  0.000137  3.998984  0.0  -0.010989  -0.084895  0.000699  3.964958  0.001
C  C59  1  0.91761954  0.23076610  0.34536534  1  -0.065173  0.000433  3.720393  0.0  -0.090154  0.000575  3.973324  0.0  -0.090753  0.000475  3.992331  0.0  -0.080423  -0.089763  0.00071  3.960578  0.001
C  C60  1  0.08236763  0.76923430  0.65463085  1  -0.065162  0.000452  3.72044  0.0  -0.090174  0.000575  3.973371  0.0  -0.090776  0.000479  3.992401  0.0  -0.080443  -0.089785  0.00071  3.960623  0.001
C  C61  1  0.97013383  0.27674446  0.45716454  1  -0.053324  -0.000329  3.699714  0.0  -0.078541  -0.000177  3.952471  0.0  -0.079145  -0.000262  3.972688  0.0  -0.075064  -0.07796  -0.00011  3.93865  0.0
C  C62  1  0.02986645  0.72325054  0.54282939  1  -0.053238  -0.000359  3.699792  0.0  -0.078448  -0.000174  3.952544  0.0  -0.079054  -0.000266  3.972762  0.0  -0.075078  -0.077865  -0.00011  3.938729  0.0
S  S63  1  0.57990748  0.30251693  0.87165586  1  1.34362  0.003441  5.589371  0.003  1.24452  0.006092  6.104685  0.005  1.292828  0.004625  6.080496  0.004  0.533288  1.210876  0.00749  6.120075  0.006
S  S64  1  0.42010165  0.69747473  0.12834857  1  1.343658  0.003441  5.589025  0.003  1.24455  0.006093  6.104336  0.005  1.292852  0.004622  6.080148  0.004  0.533453  1.210907  0.007489  6.119722  0.006
S  S65  1  0.97322578  0.22607148  0.13020575  1  1.327381  0.003345  5.58938  0.003  1.230315  0.006091  6.101809  0.004  1.278534  0.004699  6.07857  0.004  0.535509  1.196547  0.007541  6.116774  0.005
S  S66  1  0.02676188  0.77392680  0.86978862  1  1.327347  0.003348  5.589328  0.003  1.230302  0.006091  6.101766  0.004  1.278525  0.004699  6.078525  0.004  0.535325  1.196533  0.007543  6.116736  0.005
O  O67  1  0.41612725  0.10550065  0.32057657  1  -0.596475  -3.1e-05  1.918245  0.0  -0.558878  -1e-06  2.138324  0.0  -0.578589  -5e-06  2.131452  0.0  -0.355407  -0.545174  8e-06  2.143058  0.0
O  O68  1  0.58388190  0.89450494  0.67942318  1  -0.596445  -2.9e-05  1.918208  0.0  -0.558871  1e-06  2.138286  0.0  -0.578563  -8e-06  2.131404  0.0  -0.355418  -0.545167  8e-06  2.143018  0.0
O  O69  1  0.15536925  0.99352206  0.36923622  1  -0.561392  4e-06  2.099101  0.0  -0.507515  2e-05  2.318222  0.0  -0.531013  1.3e-05  2.305598  0.0  -0.330151  -0.490981  2.3e-05  2.325856  0.0
O  O70  1  0.84463616  0.00651130  0.63076670  1  -0.561441  2e-06  2.098993  0.0  -0.507605  1.9e-05  2.318095  0.0  -0.531096  1.4e-05  2.305398  0.0  -0.330246  -0.491072  2.3e-05  2.325729  0.0
O  O71  1  0.56305209  0.17899937  0.92514900  1  -0.723378  7e-06  1.981236  0.0  -0.682326  0.000302  2.243668  0.001  -0.703423  3.9e-05  2.229654  0.001  -0.435158  -0.666913  0.000609  2.252641  0.001
O  O72  1  0.43693998  0.82099028  0.07485097  1  -0.72332  5e-06  1.981148  0.0  -0.682247  0.000302  2.243526  0.001  -0.703369  3.8e-05  2.229571  0.001  -0.435217  -0.666835  0.000608  2.252497  0.001
O  O73  1  0.46126536  0.38662632  0.90740297  1  -0.702009  0.000376  2.025204  0.001  -0.637758  0.000856  2.267873  0.002  -0.659917  0.000475  2.252298  0.001  -0.33105  -0.621914  0.001299  2.278292  0.002
O  O74  1  0.53875774  0.61337271  0.09260401  1  -0.702  0.000375  2.025024  0.001  -0.637832  0.000857  2.267703  0.002  -0.659988  0.000476  2.25213  0.001  -0.33115  -0.621995  0.0013  2.278116  0.002
O  O75  1  0.76148361  0.39545502  0.88043668  1  -0.697915  0.026235  2.011397  0.013  -0.63129  0.033727  2.292316  0.017  -0.65628  0.030426  2.273506  0.015  -0.324327  -0.612539  0.036902  2.304556  0.02
O  O76  1  0.23853167  0.60452590  0.11956921  1  -0.698027  0.026242  2.011501  0.013  -0.631319  0.033726  2.292338  0.017  -0.656306  0.030428  2.273529  0.015  -0.324319  -0.612565  0.036901  2.304571  0.02
O  O77  1  0.07890274  0.38927612  0.68182728  1  -0.570992  -8e-05  1.982337  0.0  -0.516791  3e-05  2.198403  0.0  -0.538643  -0.0001  2.189651  0.0  -0.284957  -0.501741  0.000194  2.204412  0.001
O  O78  1  0.92107865  0.61072219  0.31816672  1  -0.571059  -7.7e-05  1.982279  0.0  -0.516869  3e-05  2.198407  0.0  -0.538723  -9.9e-05  2.18965  0.0  -0.284971  -0.501821  0.000194  2.204417  0.001
O  O79  1  0.34080767  0.51818092  0.64440454  1  -0.547322  8e-06  2.108748  0.0  -0.49003  3.9e-05  2.328749  0.0  -0.513679  3.1e-05  2.314773  0.0  -0.318932  -0.473515  6.1e-05  2.336279  0.0
O  O80  1  0.65918083  0.48181623  0.35559534  1  -0.547458  8e-06  2.10866  0.0  -0.490099  3.9e-05  2.328805  0.0  -0.513749  3.1e-05  2.314783  0.0  -0.318983  -0.473582  6.1e-05  2.336337  0.0
O  O81  1  0.89683415  0.33828649  0.09613896  1  -0.73625  0.028755  2.088607  0.015  -0.661373  0.035308  2.36648  0.018  -0.688529  0.032186  2.347929  0.015  -0.324795  -0.641062  0.038057  2.378816  0.02
O  O82  1  0.10315486  0.66170859  0.90385350  1  -0.736308  0.02876  2.088662  0.015  -0.661438  0.035316  2.366591  0.018  -0.688579  0.032191  2.347987  0.015  -0.324734  -0.641132  0.038063  2.378932  0.02
O  O83  1  0.13268879  0.22579418  0.08289004  1  -0.672857  9e-05  1.960336  0.0  -0.627373  0.000652  2.212296  0.001  -0.648355  0.000419  2.199078  0.0  -0.392842  -0.612207  0.000861  2.221032  0.001
O  O84  1  0.86729626  0.77419344  0.91710207  1  -0.672745  8.9e-05  1.96014  0.0  -0.627355  0.00065  2.212182  0.001  -0.648347  0.00042  2.198976  0.0  -0.392802  -0.612166  0.000861  2.220865  0.001
O  O85  1  0.83900234  0.08715349  0.11187292  1  -0.687461  0.001759  1.945012  0.002  -0.639087  0.00253  2.190252  0.003  -0.659233  0.001889  2.174947  0.003  -0.353394  -0.624373  0.00315  2.200411  0.004
O  O86  1  0.16098319  0.91284585  0.88812305  1  -0.687437  0.00176  1.944942  0.002  -0.639015  0.002531  2.19012  0.003  -0.659158  0.00189  2.174813  0.003  -0.353303  -0.624304  0.003151  2.200277  0.004
O  O87  1  0.11585333  0.36724647  0.88943445  1  -0.856933  0.028746  1.946567  0.016  -0.788008  0.036211  2.151377  0.02  -0.813157  0.032845  2.116211  0.018  -0.550637  -0.769046  0.039209  2.176314  0.023
O  O88  1  0.88416911  0.63276114  0.11056874  1  -0.856789  0.028744  1.94664  0.016  -0.78788  0.036211  2.151438  0.02  -0.813023  0.032844  2.116267  0.018  -0.550592  -0.768924  0.039208  2.176376  0.023
O  O89  1  0.05446746  0.91668854  0.16140493  1  -0.843247  1.6e-05  1.880312  0.0  -0.794364  0.00015  2.047228  0.0  -0.812805  2.1e-05  2.01643  0.0  -0.615713  -0.781397  0.000353  2.069386  0.001
O  O90  1  0.94552992  0.08331921  0.83859917  1  -0.84336  1.6e-05  1.880183  0.0  -0.794556  0.00015  2.047026  0.0  -0.812987  2.1e-05  2.016184  0.0  -0.615832  -0.781593  0.000353  2.069182  0.001
O  O91  1  0.58213310  0.36467394  0.15576550  1  -0.82486  -0.000121  1.87626  0.0  -0.774708  -0.000137  2.051755  0.0  -0.793184  -0.000187  2.020875  0.0  -0.607962  -0.761476  -8e-05  2.073294  0.0
O  O92  1  0.41784729  0.63531468  0.84423764  1  -0.824932  -0.000121  1.876177  0.0  -0.774884  -0.000137  2.051465  0.0  -0.793368  -0.000187  2.020597  0.0  -0.608021  -0.761651  -8e-05  2.073009  0.0
