# generated using pymatgen
data_V6Zn2H18C20N6O17
_symmetry_space_group_name_H-M   'P 1'
_cell_length_a   7.27659455
_cell_length_b   10.30277319
_cell_length_c   10.67134933
_cell_angle_alpha   80.34762545
_cell_angle_beta   69.66622947
_cell_angle_gamma   87.87892146
_symmetry_Int_Tables_number   1
_chemical_formula_structural   V6Zn2H18C20N6O17
_chemical_formula_sum   'V6 Zn2 H18 C20 N6 O17'
_cell_volume   739.35212866
_cell_formula_units_Z   1
loop_
 _symmetry_equiv_pos_site_id
 _symmetry_equiv_pos_as_xyz
  1  'x, y, z'
loop_
 _atom_site_type_symbol
 _atom_site_label
 _atom_site_symmetry_multiplicity
 _atom_site_fract_x
 _atom_site_fract_y
 _atom_site_fract_z
 _atom_site_occupancy
 _atom_site_hle17_bader_spin_density
 _atom_site_hle17_ddec_charge
 _atom_site_hle17_ddec_spin_density
 _atom_site_hle17_ddec_sum_bond_order
 _atom_site_hle17_magmom
 _atom_site_hse06_10hf_bader_spin_density
 _atom_site_hse06_10hf_ddec_charge
 _atom_site_hse06_10hf_ddec_spin_density
 _atom_site_hse06_10hf_ddec_sum_bond_order
 _atom_site_hse06_10hf_magmom
 _atom_site_hse06_bader_spin_density
 _atom_site_hse06_ddec_charge
 _atom_site_hse06_ddec_spin_density
 _atom_site_hse06_ddec_sum_bond_order
 _atom_site_hse06_magmom
 _atom_site_pbe_bader_spin_density
 _atom_site_pbe_cm5_charge
 _atom_site_pbe_ddec_charge
 _atom_site_pbe_ddec_spin_density
 _atom_site_pbe_ddec_sum_bond_order
 _atom_site_pbe_magmom
V  V0  1  0.43674109  0.56823242  0.87773604  1  0  2.034002  0  2.848284  0  0  2.101784  0  3.214786  0  0  2.197925  0  3.189961  0  0  1.455048  2.035931  0  3.237318  0
V  V1  1  0.56325841  0.43176774  0.12226487  1  0  2.034033  0  2.848194  0  0  2.101807  0  3.214705  0  0  2.197907  0  3.189945  0  0  1.455037  2.035936  0  3.237276  0
V  V2  1  0.08709724  0.40181841  0.08686107  1  0  2.062669  0  2.823046  0  0  2.143129  0  3.174003  0  0  2.314634  0  3.011837  0  0  1.489037  2.075564  0  3.193927  0
V  V3  1  0.91290221  0.59818077  0.91314095  1  0  2.062585  0  2.823148  0  0  2.143041  0  3.17412  0  0  2.314559  0  3.011916  0  0  1.488992  2.075488  0  3.19401  0
V  V4  1  0.86984111  0.45676470  0.39779735  1  0  2.011542  0  2.98514  0  0  2.07928  0  3.362001  0  0  2.17207  0  3.3463  0  0  1.481616  2.01347  0  3.381148  0
V  V5  1  0.13015834  0.54323449  0.60220467  1  0  2.011598  0  2.985079  0  0  2.079328  0  3.361962  0  0  2.172129  0  3.346238  0  0  1.481646  2.013505  0  3.381122  0
Zn  Zn6  1  0.45297585  0.32667597  0.67622839  1  0  1.143679  0  1.851034  0  0  1.005661  0  2.315007  0  0  1.054449  0  2.250789  0  0  0.720354  0.972504  0  2.358053  0
Zn  Zn7  1  0.54702214  0.67332321  0.32377303  1  0  1.143725  0  1.850978  0  0  1.005706  0  2.314946  0  0  1.054494  0  2.250729  0  0  0.720369  0.972551  0  2.357991  0
H  H8  1  0.40964202  0.90584257  0.81445706  1  0  0.314259  0  0.914279  0  0  0.303447  0  0.968743  0  0  0.311591  0  0.961839  0  0  0.307176  0.297756  0  0.973577  0
H  H9  1  0.59035896  0.09415759  0.18554163  1  0  0.314259  0  0.91424  0  0  0.303447  0  0.968705  0  0  0.311593  0  0.961797  0  0  0.307163  0.297749  0  0.973543  0
H  H10  1  0.25819363  0.83930133  0.68818063  1  0  0.133511  0  0.94515  0  0  0.143482  0  1.003267  0  0  0.147294  0  1.001676  0  0  0.118064  0.140776  0  1.004455  0
H  H11  1  0.74180591  0.16069982  0.31181916  1  0  0.133487  0  0.9452  0  0  0.143458  0  1.003313  0  0  0.147274  0  1.001712  0  0  0.118058  0.140753  0  1.004499  0
H  H12  1  0.15895003  0.89318186  0.48553142  1  0  0.09375  0  0.944361  0  0  0.105852  0  1.003151  0  0  0.107766  0  1.002246  0  0  0.108818  0.104257  0  1.004215  0
H  H13  1  0.84104507  0.10681831  0.51447052  1  0  0.093792  0  0.944274  0  0  0.105881  0  1.00309  0  0  0.107795  0  1.002184  0  0  0.108826  0.104287  0  1.004156  0
H  H14  1  0.18902807  0.13031107  0.36544721  1  0  0.112573  0  0.95652  0  0  0.124003  0  1.014684  0  0  0.126905  0  1.014481  0  0  0.108283  0.121739  0  1.015327  0
H  H15  1  0.81096850  0.86968909  0.63455344  1  0  0.112647  0  0.956444  0  0  0.124019  0  1.014675  0  0  0.126909  0  1.014486  0  0  0.108292  0.121756  0  1.015319  0
H  H16  1  0.31762922  0.29891974  0.45704783  1  0  0.085395  0  0.945285  0  0  0.092139  0  1.01291  0  0  0.095104  0  1.009288  0  0  0.122242  0.090073  0  1.015378  0
H  H17  1  0.68237168  0.70107845  0.54295120  1  0  0.085371  0  0.94524  0  0  0.092113  0  1.012868  0  0  0.09508  0  1.009244  0  0  0.122226  0.090045  0  1.015338  0
H  H18  1  0.65349756  0.87869258  0.88768759  1  0  0.134159  0  0.957663  0  0  0.144047  0  1.015796  0  0  0.147853  0  1.014025  0  0  0.11457  0.141312  0  1.017382  0
H  H19  1  0.34650344  0.12130856  0.11231280  1  0  0.134176  0  0.95763  0  0  0.144071  0  1.015755  0  0  0.147875  0  1.013986  0  0  0.114582  0.141335  0  1.017337  0
H  H20  1  0.92993060  0.97364263  0.92828178  1  0  0.099673  0  0.948296  0  0  0.113394  0  1.004977  0  0  0.115898  0  1.002327  0  0  0.107677  0.111758  0  1.006454  0
H  H21  1  0.07007042  0.02635851  0.07171674  1  0  0.099683  0  0.948328  0  0  0.113373  0  1.00504  0  0  0.115911  0  1.002344  0  0  0.107681  0.111739  0  1.006512  0
H  H22  1  0.98703192  0.22282180  0.87326104  1  0  0.123184  0  0.962643  0  0  0.133799  0  1.021219  0  0  0.137445  0  1.01929  0  0  0.108335  0.131393  0  1.022439  0
H  H23  1  0.01297055  0.77717934  0.12673713  1  0  0.123178  0  0.962649  0  0  0.133796  0  1.021231  0  0  0.137443  0  1.019299  0  0  0.108341  0.131391  0  1.022451  0
H  H24  1  0.75683579  0.35781934  0.78068987  1  0  0.079975  0  0.977185  0  0  0.084073  0  1.05128  0  0  0.087289  0  1.047499  0  0  0.119352  0.081809  0  1.053843  0
H  H25  1  0.24316380  0.64218279  0.21930881  1  0  0.079986  0  0.977185  0  0  0.084084  0  1.051277  0  0  0.087301  0  1.047493  0  0  0.119373  0.08182  0  1.053843  0
C  C26  1  0.26498356  0.94038473  0.63614344  1  0  -0.205814  0  3.669532  0  0  -0.219926  0  3.918856  0  0  -0.230653  0  3.939262  0  0  -0.085236  -0.212695  0  3.904657  0
C  C27  1  0.73501591  0.05961444  0.36385576  1  0  -0.205802  0  3.669549  0  0  -0.219889  0  3.918862  0  0  -0.230616  0  3.93927  0  0  -0.0852  -0.212658  0  3.904664  0
C  C28  1  0.21045518  0.97137069  0.52314223  1  0  0.017501  0  3.738679  0  0  -0.003819  0  3.992855  0  0  0.002602  0  4.010603  0  0  -0.068718  -0.007715  0  3.980576  0
C  C29  1  0.78954278  0.02862750  0.47685843  1  0  0.017517  0  3.738656  0  0  -0.003796  0  3.9928  0  0  0.002624  0  4.010547  0  0  -0.068711  -0.007693  0  3.980524  0
C  C30  1  0.22737267  0.10206035  0.45593690  1  0  -0.156041  0  3.757535  0  0  -0.172587  0  4.015033  0  0  -0.18146  0  4.036838  0  0  -0.09746  -0.16683  0  4.00056  0
C  C31  1  0.77262684  0.89793981  0.54406307  1  0  -0.156147  0  3.757543  0  0  -0.172653  0  4.015044  0  0  -0.181519  0  4.036853  0  0  -0.097483  -0.166897  0  4.000574  0
C  C32  1  0.29842083  0.19625940  0.50643105  1  0  0.155552  0  3.704341  0  0  0.12537  0  3.952787  0  0  0.134198  0  3.970112  0  0  0.048937  0.119699  0  3.941102  0
C  C33  1  0.70158015  0.80374076  0.49356763  1  0  0.155588  0  3.704274  0  0  0.125408  0  3.952694  0  0  0.134242  0  3.970001  0  0  0.048965  0.119737  0  3.941011  0
C  C34  1  0.34220474  0.04160543  0.67868575  1  0  0.4192  0  3.797513  0  0  0.389578  0  4.058413  0  0  0.406859  0  4.076025  0  0  0.231111  0.378113  0  4.046214  0
C  C35  1  0.65779770  0.95839472  0.32131259  1  0  0.419233  0  3.797436  0  0  0.389554  0  4.058405  0  0  0.406836  0  4.076015  0  0  0.231072  0.378085  0  4.046209  0
C  C36  1  0.56084113  0.06719263  0.80970014  1  0  0.425044  0  3.77592  0  0  0.397161  0  4.034435  0  0  0.415183  0  4.050831  0  0  0.231162  0.385397  0  4.023395  0
C  C37  1  0.43916279  0.93280852  0.19030050  1  0  0.425007  0  3.775969  0  0  0.397213  0  4.034365  0  0  0.415243  0  4.050754  0  0  0.231181  0.385439  0  4.023334  0
C  C38  1  0.68100871  0.98465000  0.86567345  1  0  -0.216076  0  3.69133  0  0  -0.228931  0  3.938608  0  0  -0.239327  0  3.95792  0  0  -0.089934  -0.222465  0  3.925749  0
C  C39  1  0.31898934  0.01535015  0.13432498  1  0  -0.216069  0  3.691241  0  0  -0.228966  0  3.938505  0  0  -0.239371  0  3.957831  0  0  -0.089958  -0.222499  0  3.925645  0
C  C40  1  0.83532960  0.03900893  0.88813569  1  0  0.023542  0  3.725669  0  0  -0.000146  0  3.980996  0  0  0.006775  0  3.997668  0  0  -0.068613  -0.004226  0  3.968798  0
C  C41  1  0.16466987  0.96099024  0.11186258  1  0  0.023518  0  3.725709  0  0  -0.000135  0  3.981046  0  0  0.006763  0  3.997712  0  0  -0.06861  -0.004214  0  3.968846  0
C  C42  1  0.86780032  0.17560762  0.85714464  1  0  -0.131657  0  3.720268  0  0  -0.148329  0  3.976659  0  0  -0.156731  0  3.997924  0  0  -0.092793  -0.142212  0  3.961479  0
C  C43  1  0.13220213  0.82439253  0.14285276  1  0  -0.131648  0  3.720293  0  0  -0.148343  0  3.976704  0  0  -0.156743  0  3.997977  0  0  -0.092797  -0.142228  0  3.961527  0
C  C44  1  0.74155809  0.25099148  0.80542967  1  0  0.137606  0  3.714544  0  0  0.104594  0  3.972408  0  0  0.112627  0  3.990188  0  0  0.044923  0.099336  0  3.959873  0
C  C45  1  0.25844146  0.74900967  0.19456919  1  0  0.137637  0  3.714522  0  0  0.104633  0  3.972399  0  0  0.112663  0  3.990177  0  0  0.04489  0.099376  0  3.959866  0
N  N46  1  0.41308683  0.00679405  0.78441233  1  0  -0.473467  0  3.300508  0  0  -0.41796  0  3.53503  0  0  -0.441132  0  3.544941  0  0  -0.39794  -0.402566  0  3.527971  0
N  N47  1  0.58691411  0.99320512  0.21558652  1  0  -0.473499  0  3.300655  0  0  -0.417992  0  3.535147  0  0  -0.441168  0  3.545056  0  0  -0.397914  -0.402581  0  3.52808  0
N  N48  1  0.58971287  0.19932791  0.78234368  1  0  -0.445582  0  3.248177  0  0  -0.368864  0  3.524678  0  0  -0.391124  0  3.535805  0  0  -0.338198  -0.353567  0  3.517056  0
N  N49  1  0.41028517  0.80067225  0.21765570  1  0  -0.445636  0  3.248135  0  0  -0.368958  0  3.524627  0  0  -0.39122  0  3.53575  0  0  -0.33823  -0.353659  0  3.517009  0
N  N50  1  0.35366048  0.16717765  0.61634617  1  0  -0.430776  0  3.252707  0  0  -0.351764  0  3.51344  0  0  -0.373794  0  3.52665  0  0  -0.337283  -0.337533  0  3.504656  0
N  N51  1  0.64634196  0.83282250  0.38365218  1  0  -0.430761  0  3.252606  0  0  -0.35172  0  3.513326  0  0  -0.373743  0  3.526528  0  0  -0.337267  -0.337492  0  3.504548  0
O  O52  1  0.67022803  0.36924483  0.49582584  1  0  -0.838238  0  1.506072  0  0  -0.834443  0  1.815457  0  0  -0.868931  0  1.798751  0  0  -0.603804  -0.810009  0  1.826507  0
O  O53  1  0.32977293  0.63075534  0.50417566  1  0  -0.838294  0  1.506074  0  0  -0.834496  0  1.815445  0  0  -0.868992  0  1.798743  0  0  -0.603813  -0.810058  0  1.826497  0
O  O54  1  0.19370347  0.40639433  0.68318618  1  0  -0.849619  0  1.565623  0  0  -0.848568  0  1.889138  0  0  -0.886072  0  1.877834  0  0  -0.593504  -0.82292  0  1.898261  0
O  O55  1  0.80629597  0.59360486  0.31681771  1  0  -0.849611  0  1.565637  0  0  -0.848546  0  1.889124  0  0  -0.886072  0  1.877875  0  0  -0.5935  -0.822901  0  1.898247  0
O  O56  1  0.00000068  0.49999830  0.50000055  1  0  -1.000454  0  1.565864  0  0  -1.030146  0  1.868808  0  0  -1.075304  0  1.860919  0  0  -0.696928  -0.996835  0  1.873817  0
O  O57  1  0.51296105  0.49801968  0.73891714  1  0  -0.830495  0  1.466229  0  0  -0.828998  0  1.771861  0  0  -0.862714  0  1.754618  0  0  -0.585433  -0.805003  0  1.781858  0
O  O58  1  0.48703849  0.50198147  0.26108359  1  0  -0.830526  0  1.466231  0  0  -0.829025  0  1.771866  0  0  -0.862724  0  1.754628  0  0  -0.585425  -0.805025  0  1.781867  0
O  O59  1  0.15515733  0.53948358  0.92246951  1  0  -1.09014  0  1.793835  0  0  -1.123927  0  2.122217  0  0  -1.204893  0  2.11664  0  0  -0.702394  -1.08707  0  2.118265  0
O  O60  1  0.84484212  0.46051560  0.07753157  1  0  -1.090194  0  1.793883  0  0  -1.123959  0  2.122232  0  0  -1.204912  0  2.116656  0  0  -0.702399  -1.087105  0  2.118296  0
O  O61  1  0.33571416  0.46689012  0.06644919  1  0  -1.089698  0  1.761278  0  0  -1.119775  0  2.090165  0  0  -1.184462  0  2.083489  0  0  -0.706805  -1.084022  0  2.088238  0
O  O62  1  0.66428383  0.53310906  0.93355223  1  0  -1.08967  0  1.761271  0  0  -1.11975  0  2.090158  0  0  -1.184443  0  2.083479  0  0  -0.706795  -1.083995  0  2.088219  0
O  O63  1  0.12324500  0.26288016  0.03378089  1  0  -0.671024  0  1.253956  0  0  -0.680442  0  1.484045  0  0  -0.720096  0  1.453375  0  0  -0.550715  -0.665979  0  1.491187  0
O  O64  1  0.87675445  0.73711902  0.96622112  1  0  -0.671021  0  1.254014  0  0  -0.680431  0  1.484106  0  0  -0.720082  0  1.453419  0  0  -0.550697  -0.665976  0  1.491246  0
O  O65  1  0.00944557  0.36292001  0.26901260  1  0  -0.919018  0  1.48954  0  0  -0.950187  0  1.778852  0  0  -1.010541  0  1.760928  0  0  -0.665112  -0.919939  0  1.783509  0
O  O66  1  0.99055389  0.63707917  0.73098847  1  0  -0.918979  0  1.48954  0  0  -0.950128  0  1.778823  0  0  -1.010483  0  1.76089  0  0  -0.665093  -0.919878  0  1.783475  0
O  O67  1  0.45010446  0.72860439  0.83694245  1  0  -0.758956  0  1.309772  0  0  -0.777064  0  1.562284  0  0  -0.8049  0  1.554186  0  0  -0.584315  -0.757722  0  1.567835  0
O  O68  1  0.54989651  0.27139577  0.16305717  1  0  -0.758927  0  1.309747  0  0  -0.777058  0  1.562282  0  0  -0.804884  0  1.554201  0  0  -0.584323  -0.757712  0  1.567845  0
