# generated using pymatgen
data_CdH9C12(NO)4
_symmetry_space_group_name_H-M   'P 1'
_cell_length_a   10.40126417
_cell_length_b   10.66494142
_cell_length_c   13.34836274
_cell_angle_alpha   89.40346627
_cell_angle_beta   83.56269179
_cell_angle_gamma   69.17809245
_symmetry_Int_Tables_number   1
_chemical_formula_structural   CdH9C12(NO)4
_chemical_formula_sum   'Cd4 H36 C48 N16 O16'
_cell_volume   1374.59567196
_cell_formula_units_Z   4
loop_
 _symmetry_equiv_pos_site_id
 _symmetry_equiv_pos_as_xyz
  1  'x, y, z'
loop_
 _atom_site_type_symbol
 _atom_site_label
 _atom_site_symmetry_multiplicity
 _atom_site_fract_x
 _atom_site_fract_y
 _atom_site_fract_z
 _atom_site_occupancy
 _atom_site_hle17_bader_spin_density
 _atom_site_hle17_ddec_charge
 _atom_site_hle17_ddec_spin_density
 _atom_site_hle17_ddec_sum_bond_order
 _atom_site_hle17_magmom
 _atom_site_hse06_10hf_bader_spin_density
 _atom_site_hse06_10hf_ddec_charge
 _atom_site_hse06_10hf_ddec_spin_density
 _atom_site_hse06_10hf_ddec_sum_bond_order
 _atom_site_hse06_10hf_magmom
 _atom_site_hse06_bader_spin_density
 _atom_site_hse06_ddec_charge
 _atom_site_hse06_ddec_spin_density
 _atom_site_hse06_ddec_sum_bond_order
 _atom_site_hse06_magmom
 _atom_site_pbe_bader_spin_density
 _atom_site_pbe_cm5_charge
 _atom_site_pbe_ddec_charge
 _atom_site_pbe_ddec_spin_density
 _atom_site_pbe_ddec_sum_bond_order
 _atom_site_pbe_magmom
Cd  Cd0  1  0.61905625  0.49357027  0.61150301  1  0  1.088492  0  1.754943  0  0  0.879336  0  2.206594  0  0  0.932526  0  2.160223  0  0  0.800557  0.841296  0  2.238068  0
Cd  Cd1  1  0.38094398  0.50642923  0.38849658  1  0  1.088515  0  1.754905  0  0  0.879354  0  2.206559  0  0  0.932545  0  2.160186  0  0  0.80057  0.841313  0  2.238033  0
Cd  Cd2  1  0.40194716  0.07336827  0.87853293  1  0  1.091498  0  1.762619  0  0  0.885165  0  2.213291  0  0  0.938211  0  2.166413  0  0  0.802432  0.846942  0  2.245383  0
Cd  Cd3  1  0.59805271  0.92663223  0.12146742  1  0  1.09149  0  1.76262  0  0  0.885168  0  2.213279  0  0  0.93821  0  2.166402  0  0  0.802428  0.846942  0  2.245372  0
H  H4  1  0.59603200  0.72297626  0.82667740  1  0  0.08118  0  0.930311  0  0  0.090324  0  0.994886  0  0  0.092304  0  0.992886  0  0  0.126973  0.088841  0  0.996401  0
H  H5  1  0.40396921  0.27702323  0.17332285  1  0  0.08119  0  0.930308  0  0  0.090326  0  0.994891  0  0  0.092305  0  0.992892  0  0  0.126968  0.088843  0  0.996406  0
H  H6  1  0.89576237  0.25720641  0.47788594  1  0  0.100963  0  0.940445  0  0  0.110462  0  1.004437  0  0  0.112893  0  1.001672  0  0  0.137985  0.108623  0  1.006498  0
H  H7  1  0.10423884  0.74279308  0.52211356  1  0  0.101011  0  0.94048  0  0  0.110511  0  1.00446  0  0  0.112942  0  1.001694  0  0  0.138009  0.108672  0  1.00652  0
H  H8  1  0.99869818  0.56179263  0.32075785  1  0  0.133449  0  0.965246  0  0  0.142521  0  1.025546  0  0  0.146082  0  1.022805  0  0  0.124716  0.139899  0  1.02768  0
H  H9  1  0.00130169  0.43820787  0.67924251  1  0  0.133431  0  0.96526  0  0  0.142502  0  1.025561  0  0  0.146064  0  1.022819  0  0  0.124711  0.139879  0  1.027697  0
H  H10  1  0.76479957  0.67966033  0.45825946  1  0  0.11143  0  0.958155  0  0  0.119283  0  1.022196  0  0  0.122118  0  1.020181  0  0  0.11663  0.117028  0  1.024078  0
H  H11  1  0.23520066  0.32033917  0.54174012  1  0  0.11142  0  0.958165  0  0  0.119272  0  1.022209  0  0  0.122107  0  1.020194  0  0  0.116624  0.117017  0  1.02409  0
H  H12  1  0.18300509  0.24262413  0.37303377  1  0  0.090381  0  0.91207  0  0  0.105492  0  0.973206  0  0  0.106195  0  0.972706  0  0  0.114779  0.104895  0  0.973662  0
H  H13  1  0.81699418  0.75737537  0.62696516  1  0  0.090402  0  0.912054  0  0  0.105523  0  0.973165  0  0  0.106229  0  0.972667  0  0  0.114807  0.104924  0  0.97362  0
H  H14  1  0.13239981  0.32714982  0.26128917  1  0  0.091457  0  0.939465  0  0  0.103674  0  1.007965  0  0  0.104821  0  1.007194  0  0  0.11581  0.102818  0  1.008559  0
H  H15  1  0.86759946  0.67284968  0.73870976  1  0  0.091465  0  0.939477  0  0  0.103665  0  1.007993  0  0  0.104816  0  1.007223  0  0  0.115809  0.102809  0  1.008586  0
H  H16  1  0.86128401  0.07126819  0.14366784  1  0  0.09849  0  0.974143  0  0  0.105189  0  1.044868  0  0  0.108863  0  1.042446  0  0  0.096435  0.102556  0  1.04659  0
H  H17  1  0.13871526  0.92873131  0.85633183  1  0  0.098501  0  0.974171  0  0  0.105209  0  1.044885  0  0  0.108885  0  1.042461  0  0  0.096456  0.102575  0  1.046607  0
H  H18  1  0.95887159  0.85475490  0.22973209  1  0  0.098316  0  0.952051  0  0  0.110067  0  1.008589  0  0  0.112873  0  1.00753  0  0  0.1015  0.107981  0  1.009561  0
H  H19  1  0.04112887  0.14524661  0.77026820  1  0  0.098302  0  0.952029  0  0  0.110054  0  1.008571  0  0  0.112862  0  1.007511  0  0  0.101499  0.107968  0  1.009542  0
H  H20  1  0.12506755  0.83451369  0.35654305  1  0  0.085269  0  0.956538  0  0  0.096464  0  1.019799  0  0  0.099133  0  1.018368  0  0  0.098376  0.094476  0  1.020965  0
H  H21  1  0.87493328  0.16548681  0.64345648  1  0  0.085269  0  0.95655  0  0  0.096463  0  1.019808  0  0  0.099131  0  1.018378  0  0  0.098376  0.094474  0  1.020974  0
H  H22  1  0.18561928  0.02965458  0.39774556  1  0  0.104977  0  0.98152  0  0  0.116939  0  1.040623  0  0  0.12005  0  1.038576  0  0  0.10367  0.114725  0  1.042059  0
H  H23  1  0.81438118  0.97034692  0.60225399  1  0  0.10499  0  0.981486  0  0  0.116954  0  1.040593  0  0  0.120066  0  1.038546  0  0  0.10366  0.114743  0  1.042027  0
H  H24  1  0.41352838  0.30722417  0.68558268  1  0  0.087566  0  0.943862  0  0  0.095257  0  1.011403  0  0  0.097418  0  1.008842  0  0  0.127427  0.093619  0  1.013332  0
H  H25  1  0.58647149  0.69277633  0.31441693  1  0  0.087563  0  0.943885  0  0  0.095256  0  1.01142  0  0  0.097416  0  1.008859  0  0  0.127429  0.093617  0  1.013348  0
H  H26  1  0.09575249  0.09679616  0.01936316  1  0  0.100858  0  0.93675  0  0  0.111121  0  0.999472  0  0  0.113306  0  0.997003  0  0  0.13767  0.10941  0  1.001434  0
H  H27  1  0.90424738  0.90320434  0.98063720  1  0  0.100848  0  0.936778  0  0  0.111112  0  0.999503  0  0  0.113296  0  0.997034  0  0  0.137656  0.109401  0  1.001464  0
H  H28  1  0.27541991  0.39339143  0.97061160  1  0  0.105862  0  0.946144  0  0  0.116552  0  1.002809  0  0  0.118931  0  1.002322  0  0  0.117045  0.114734  0  1.003422  0
H  H29  1  0.72458129  0.60660807  0.02938790  1  0  0.105869  0  0.946153  0  0  0.116572  0  1.002807  0  0  0.11895  0  1.00232  0  0  0.117056  0.114753  0  1.00342  0
H  H30  1  0.04730197  0.49054743  0.11500600  1  0  0.126243  0  0.958893  0  0  0.133107  0  1.023358  0  0  0.136556  0  1.020683  0  0  0.125199  0.130502  0  1.025633  0
H  H31  1  0.95269753  0.50945407  0.88499439  1  0  0.126207  0  0.958951  0  0  0.133043  0  1.023439  0  0  0.136489  0  1.020767  0  0  0.125182  0.130438  0  1.025713  0
H  H32  1  0.83235824  0.29565806  0.12067144  1  0  0.099882  0  0.917487  0  0  0.117061  0  0.973262  0  0  0.118485  0  0.971831  0  0  0.117804  0.115846  0  0.974505  0
H  H33  1  0.16764163  0.70434244  0.87932892  1  0  0.099873  0  0.917484  0  0  0.117054  0  0.97326  0  0  0.118475  0  0.971829  0  0  0.117801  0.115837  0  0.974502  0
H  H34  1  0.88630703  0.38928302  0.20547347  1  0  0.089656  0  0.924069  0  0  0.105514  0  0.982765  0  0  0.106784  0  0.982017  0  0  0.117661  0.104664  0  0.983187  0
H  H35  1  0.11369284  0.61071748  0.79452689  1  0  0.089665  0  0.924056  0  0  0.105526  0  0.982748  0  0  0.106794  0  0.982  0  0  0.11767  0.104675  0  0.983169  0
H  H36  1  0.28727646  0.97839900  0.52848772  1  0  0.377736  0  0.93229  0  0  0.345915  0  1.014668  0  0  0.358952  0  1.000532  0  0  0.287223  0.336846  0  1.023343  0
H  H37  1  0.71272377  0.02160049  0.47151262  1  0  0.37765  0  0.93247  0  0  0.345887  0  1.014716  0  0  0.358924  0  1.000571  0  0  0.2872  0.336816  0  1.023392  0
H  H38  1  0.79853201  0.26576113  0.94449358  1  0  0.379226  0  0.926654  0  0  0.347339  0  1.009698  0  0  0.360347  0  0.996624  0  0  0.287765  0.33817  0  1.018617  0
H  H39  1  0.20146823  0.73423836  0.05550601  1  0  0.379236  0  0.926637  0  0  0.347346  0  1.009684  0  0  0.360353  0  0.996613  0  0  0.28776  0.338177  0  1.018603  0
C  C40  1  0.53601711  0.77098403  0.76622202  1  0  0.251243  0  3.712978  0  0  0.191573  0  3.991575  0  0  0.205766  0  4.004856  0  0  0.135096  0.182289  0  3.98176  0
C  C41  1  0.46398275  0.22901648  0.23377759  1  0  0.251215  0  3.712941  0  0  0.191544  0  3.991545  0  0  0.205737  0  4.004826  0  0  0.135091  0.182263  0  3.981729  0
C  C42  1  0.39996420  0.92357562  0.67836304  1  0  -0.02758  0  3.808854  0  0  -0.031522  0  4.056326  0  0  -0.034893  0  4.080079  0  0  0.064614  -0.029221  0  4.039864  0
C  C43  1  0.60003641  0.07642287  0.32163727  1  0  -0.027571  0  3.808814  0  0  -0.031523  0  4.056278  0  0  -0.034897  0  4.080036  0  0  0.064628  -0.029222  0  4.039817  0
C  C44  1  0.44470021  0.80015949  0.62548223  1  0  -0.014652  0  3.801554  0  0  -0.021484  0  4.052114  0  0  -0.023642  0  4.074068  0  0  0.063312  -0.020228  0  4.037179  0
C  C45  1  0.55529906  0.19984001  0.37451819  1  0  -0.014688  0  3.801545  0  0  -0.021537  0  4.052128  0  0  -0.0237  0  4.074092  0  0  0.063283  -0.020282  0  4.037193  0
C  C46  1  0.30901396  0.05895809  0.65465087  1  0  0.63232  0  3.892396  0  0  0.584253  0  4.191381  0  0  0.61782  0  4.182553  0  0  0.219586  0.561326  0  4.197262  0
C  C47  1  0.69098724  0.94104141  0.34534863  1  0  0.632249  0  3.892476  0  0  0.584238  0  4.191399  0  0  0.617809  0  4.18257  0  0  0.219549  0.561312  0  4.197278  0
C  C48  1  0.40660216  0.76071902  0.53057327  1  0  0.6316  0  3.945295  0  0  0.579952  0  4.242772  0  0  0.614651  0  4.234338  0  0  0.206784  0.556368  0  4.247855  0
C  C49  1  0.59339904  0.23928048  0.46942698  1  0  0.631624  0  3.94533  0  0  0.579978  0  4.242818  0  0  0.614675  0  4.234385  0  0  0.20681  0.556393  0  4.247901  0
C  C50  1  0.89046046  0.35702098  0.45619925  1  0  0.157494  0  3.668806  0  0  0.095689  0  3.930222  0  0  0.109266  0  3.944478  0  0  0.139915  0.086874  0  3.920339  0
C  C51  1  0.10954074  0.64297852  0.54380025  1  0  0.157449  0  3.66883  0  0  0.095653  0  3.930231  0  0  0.10923  0  3.944487  0  0  0.139916  0.08684  0  3.920347  0
C  C52  1  0.94053307  0.51851868  0.37387556  1  0  -0.059036  0  3.651024  0  0  -0.100495  0  3.911272  0  0  -0.098997  0  3.929471  0  0  0.003092  -0.101328  0  3.899012  0
C  C53  1  0.05946620  0.48148082  0.62612411  1  0  -0.058993  0  3.651033  0  0  -0.100443  0  3.911275  0  0  -0.098944  0  3.929474  0  0  0.003115  -0.101277  0  3.899016  0
C  C54  1  0.82626759  0.57436192  0.44334377  1  0  0.002722  0  3.743862  0  0  -0.034247  0  4.016222  0  0  -0.032111  0  4.036441  0  0  -0.005984  -0.035731  0  4.00275  0
C  C55  1  0.17373265  0.42563757  0.55665582  1  0  0.002699  0  3.743888  0  0  -0.034271  0  4.016246  0  0  -0.032136  0  4.036465  0  0  -0.005999  -0.035755  0  4.002774  0
C  C56  1  0.09794462  0.27757786  0.32567924  1  0  -0.035474  0  3.633556  0  0  -0.10391  0  3.886332  0  0  -0.098832  0  3.896211  0  0  -0.045134  -0.107384  0  3.87989  0
C  C57  1  0.90205622  0.72242264  0.67432028  1  0  -0.035572  0  3.633641  0  0  -0.103994  0  3.886406  0  0  -0.098934  0  3.896311  0  0  -0.04518  -0.107462  0  3.879958  0
C  C58  1  0.05960835  0.16067992  0.29506571  1  0  0.009319  0  3.754046  0  0  0.025676  0  3.993104  0  0  0.023564  0  4.018469  0  0  -0.018986  0.02712  0  3.975965  0
C  C59  1  0.94039248  0.83932058  0.70493382  1  0  0.009485  0  3.753944  0  0  0.025819  0  3.993038  0  0  0.023713  0  4.018406  0  0  -0.018938  0.02726  0  3.975899  0
C  C60  1  0.96787504  0.17175847  0.22244145  1  0  0.015954  0  3.744686  0  0  0.028736  0  3.987045  0  0  0.027196  0  4.012885  0  0  -0.01759  0.029781  0  3.969565  0
C  C61  1  0.03212349  0.82824304  0.77755827  1  0  0.015805  0  3.744802  0  0  0.028612  0  3.98713  0  0  0.027072  0  4.012968  0  0  -0.017649  0.029655  0  3.969649  0
C  C62  1  0.93209514  0.06131572  0.20029482  1  0  -0.126919  0  3.753467  0  0  -0.146447  0  4.005662  0  0  -0.150578  0  4.029262  0  0  -0.096928  -0.143619  0  3.989696  0
C  C63  1  0.06790472  0.93868478  0.79970554  1  0  -0.126913  0  3.75354  0  0  -0.14645  0  4.00573  0  0  -0.150583  0  4.02933  0  0  -0.09693  -0.143623  0  3.989764  0
C  C64  1  0.98763555  0.93978812  0.24810189  1  0  -0.061225  0  3.770548  0  0  -0.077208  0  4.022582  0  0  -0.079635  0  4.046116  0  0  -0.093536  -0.07563  0  4.00688  0
C  C65  1  0.01236528  0.06021238  0.75189839  1  0  -0.06118  0  3.770494  0  0  -0.077169  0  4.022541  0  0  -0.079597  0  4.046076  0  0  -0.093525  -0.07559  0  4.006837  0
C  C66  1  0.07943123  0.92852587  0.31897370  1  0  -0.048977  0  3.762703  0  0  -0.065957  0  4.015942  0  0  -0.067962  0  4.038306  0  0  -0.090226  -0.064533  0  4.000917  0
C  C67  1  0.92056961  0.07147463  0.68102582  1  0  -0.048961  0  3.762592  0  0  -0.065931  0  4.01582  0  0  -0.067936  0  4.038184  0  0  -0.090206  -0.064507  0  4.000794  0
C  C68  1  0.11419891  0.03883772  0.34231941  1  0  -0.112641  0  3.745864  0  0  -0.132544  0  3.988128  0  0  -0.134733  0  4.009382  0  0  -0.092335  -0.131126  0  3.973723  0
C  C69  1  0.88580230  0.96116178  0.65768009  1  0  -0.112719  0  3.745789  0  0  -0.132633  0  3.988072  0  0  -0.134822  0  4.009324  0  0  -0.092352  -0.131217  0  3.973666  0
C  C70  1  0.48762577  0.29888654  0.73862879  1  0  0.259241  0  3.69724  0  0  0.197526  0  3.973497  0  0  0.212166  0  3.98639  0  0  0.137687  0.187991  0  3.96417  0
C  C71  1  0.51237447  0.70111296  0.26137079  1  0  0.259263  0  3.697299  0  0  0.19755  0  3.973546  0  0  0.212191  0  3.986441  0  0  0.137701  0.188018  0  3.964217  0
C  C72  1  0.60460179  0.23558116  0.86662538  1  0  -0.014122  0  3.797417  0  0  -0.021305  0  4.048827  0  0  -0.023398  0  4.071387  0  0  0.065812  -0.020045  0  4.033564  0
C  C73  1  0.39539711  0.76441934  0.13337432  1  0  -0.014071  0  3.797371  0  0  -0.021283  0  4.048832  0  0  -0.023378  0  4.071393  0  0  0.065806  -0.02002  0  4.033565  0
C  C74  1  0.65292175  0.32578094  0.81157009  1  0  -0.034169  0  3.829421  0  0  -0.039466  0  4.078953  0  0  -0.043555  0  4.103461  0  0  0.063382  -0.036748  0  4.062474  0
C  C75  1  0.34707811  0.67421956  0.18842952  1  0  -0.034243  0  3.82955  0  0  -0.03956  0  4.079112  0  0  -0.043646  0  4.103619  0  0  0.063348  -0.036842  0  4.062634  0
C  C76  1  0.64914675  0.15713737  0.95655584  1  0  0.639325  0  3.939237  0  0  0.587205  0  4.239309  0  0  0.622277  0  4.230003  0  0  0.207555  0.563283  0  4.24483  0
C  C77  1  0.35085289  0.84286113  0.04344381  1  0  0.639307  0  3.939204  0  0  0.587193  0  4.239282  0  0  0.622264  0  4.229975  0  0  0.207556  0.56327  0  4.244803  0
C  C78  1  0.76503734  0.37523429  0.82352152  1  0  0.629013  0  3.893713  0  0  0.583014  0  4.190738  0  0  0.616606  0  4.181627  0  0  0.219006  0.560028  0  4.196565  0
C  C79  1  0.23496193  0.62476521  0.17647965  1  0  0.629039  0  3.8938  0  0  0.583064  0  4.190808  0  0  0.616653  0  4.181697  0  0  0.219024  0.560076  0  4.196639  0
C  C80  1  0.11339509  0.19082011  0.02306029  1  0  0.177072  0  3.640551  0  0  0.115377  0  3.901176  0  0  0.129634  0  3.914214  0  0  0.143858  0.106098  0  3.89231  0
C  C81  1  0.88660381  0.80918039  0.97694015  1  0  0.177057  0  3.640551  0  0  0.115348  0  3.901184  0  0  0.129605  0  3.914224  0  0  0.143862  0.106069  0  3.89232  0
C  C82  1  0.20366167  0.34631304  0.00171561  1  0  -0.008305  0  3.761078  0  0  -0.042451  0  4.027997  0  0  -0.041623  0  4.049259  0  0  -0.009421  -0.043148  0  4.013833  0
C  C83  1  0.79633723  0.65368746  0.99828409  1  0  -0.008284  0  3.761047  0  0  -0.042447  0  4.027959  0  0  -0.041618  0  4.049219  0  0  -0.009428  -0.043144  0  4.013795  0
C  C84  1  0.09071183  0.39561294  0.07322669  1  0  -0.061983  0  3.695968  0  0  -0.106008  0  3.964099  0  0  -0.103787  0  3.982505  0  0  0.002723  -0.107389  0  3.951885  0
C  C85  1  0.90928707  0.60438756  0.92677300  1  0  -0.061967  0  3.695987  0  0  -0.105964  0  3.964127  0  0  -0.10374  0  3.982531  0  0  0.002731  -0.107346  0  3.951913  0
C  C86  1  0.91934378  0.29556811  0.16027324  1  0  -0.037353  0  3.627439  0  0  -0.103994  0  3.875949  0  0  -0.098906  0  3.884701  0  0  -0.043586  -0.107251  0  3.870032  0
C  C87  1  0.08065705  0.70443239  0.83972628  1  0  -0.037314  0  3.627379  0  0  -0.103963  0  3.875895  0  0  -0.09887  0  3.884643  0  0  -0.043581  -0.107214  0  3.869969  0
N  N88  1  0.53095810  0.70556343  0.68192751  1  0  -0.422386  0  3.237334  0  0  -0.348593  0  3.521151  0  0  -0.369288  0  3.536956  0  0  -0.364211  -0.333746  0  3.509441  0
N  N89  1  0.46904214  0.29443606  0.31807283  1  0  -0.422345  0  3.237298  0  0  -0.348541  0  3.521106  0  0  -0.369235  0  3.536914  0  0  -0.364178  -0.333694  0  3.509396  0
N  N90  1  0.45848037  0.90248043  0.76728962  1  0  -0.413443  0  3.260614  0  0  -0.335179  0  3.54276  0  0  -0.356539  0  3.558873  0  0  -0.363302  -0.319878  0  3.530364  0
N  N91  1  0.54152046  0.09752008  0.23271065  1  0  -0.413411  0  3.260596  0  0  -0.335145  0  3.542743  0  0  -0.356504  0  3.558857  0  0  -0.363297  -0.319843  0  3.530346  0
N  N92  1  0.79662755  0.47249991  0.49434252  1  0  -0.390857  0  3.304782  0  0  -0.305872  0  3.591339  0  0  -0.328119  0  3.609273  0  0  -0.365485  -0.290695  0  3.578698  0
N  N93  1  0.20337172  0.52749959  0.50565715  1  0  -0.390837  0  3.304788  0  0  -0.305854  0  3.591341  0  0  -0.328101  0  3.609274  0  0  -0.365489  -0.290678  0  3.578699  0
N  N94  1  0.97938040  0.38111309  0.38304164  1  0  -0.064821  0  3.577788  0  0  0.031225  0  3.794637  0  0  0.015892  0  3.822153  0  0  -0.240952  0.04138  0  3.775975  0
N  N95  1  0.02061984  0.61888641  0.61695795  1  0  -0.064811  0  3.57782  0  0  0.031222  0  3.794676  0  0  0.015894  0  3.822197  0  0  -0.240964  0.041376  0  3.776012  0
N  N96  1  0.57737095  0.36405873  0.73120502  1  0  -0.417012  0  3.290515  0  0  -0.337433  0  3.575841  0  0  -0.359153  0  3.592167  0  0  -0.368243  -0.322032  0  3.563877  0
N  N97  1  0.42262892  0.63594177  0.26879459  1  0  -0.417017  0  3.290617  0  0  -0.337431  0  3.575944  0  0  -0.359151  0  3.59227  0  0  -0.368239  -0.32203  0  3.56398  0
N  N98  1  0.50058530  0.22081634  0.81926239  1  0  -0.40999  0  3.254885  0  0  -0.334262  0  3.534783  0  0  -0.355524  0  3.551746  0  0  -0.363893  -0.318942  0  3.52216  0
N  N99  1  0.49941494  0.77918316  0.18073719  1  0  -0.410009  0  3.254824  0  0  -0.334267  0  3.534723  0  0  -0.355532  0  3.551691  0  0  -0.363898  -0.318947  0  3.522098  0
N  N100  1  0.21624286  0.21861311  0.97115875  1  0  -0.384841  0  3.289046  0  0  -0.301437  0  3.572111  0  0  -0.322804  0  3.588856  0  0  -0.364056  -0.286815  0  3.560439  0
N  N101  1  0.78375604  0.78138739  0.02884169  1  0  -0.384853  0  3.289023  0  0  -0.301444  0  3.572093  0  0  -0.322811  0  3.588838  0  0  -0.364045  -0.286821  0  3.560423  0
N  N102  1  0.03465707  0.29621059  0.08561945  1  0  -0.057854  0  3.550508  0  0  0.037176  0  3.768399  0  0  0.022065  0  3.794503  0  0  -0.239014  0.04719  0  3.750575  0
N  N103  1  0.96534280  0.70378992  0.91438091  1  0  -0.057834  0  3.550401  0  0  0.037211  0  3.768277  0  0  0.022096  0  3.79438  0  0  -0.239018  0.047223  0  3.750452  0
O  O104  1  0.27997346  0.15507250  0.71566516  1  0  -0.572052  0  1.9504  0  0  -0.524743  0  2.182424  0  0  -0.546919  0  2.172445  0  0  -0.298557  -0.509587  0  2.189235  0
O  O105  1  0.72002678  0.84492700  0.28433443  1  0  -0.572014  0  1.950433  0  0  -0.524746  0  2.182446  0  0  -0.546918  0  2.17246  0  0  -0.298547  -0.509593  0  2.189265  0
O  O106  1  0.26056724  0.07427501  0.56603845  1  0  -0.554889  0  2.073594  0  0  -0.507517  0  2.291017  0  0  -0.529612  0  2.276373  0  0  -0.335916  -0.49209  0  2.300011  0
O  O107  1  0.73943336  0.92572349  0.43396186  1  0  -0.554829  0  2.073715  0  0  -0.50749  0  2.291053  0  0  -0.52959  0  2.276406  0  0  -0.335879  -0.492064  0  2.300047  0
O  O108  1  0.32137777  0.84963496  0.48210363  1  0  -0.58666  0  1.995166  0  0  -0.538308  0  2.219151  0  0  -0.562537  0  2.209715  0  0  -0.311474  -0.52146  0  2.2248  0
O  O109  1  0.67862247  0.15036454  0.51789595  1  0  -0.586627  0  1.995204  0  0  -0.538306  0  2.219162  0  0  -0.562532  0  2.209724  0  0  -0.311478  -0.521457  0  2.224811  0
O  O110  1  0.46010917  0.63663542  0.50333766  1  0  -0.641986  0  2.078603  0  0  -0.563028  0  2.342281  0  0  -0.592423  0  2.32917  0  0  -0.325259  -0.542361  0  2.35042  0
O  O111  1  0.53989047  0.36336308  0.49666349  1  0  -0.642011  0  2.078657  0  0  -0.563036  0  2.342306  0  0  -0.592438  0  2.32921  0  0  -0.325275  -0.542371  0  2.350445  0
O  O112  1  0.58402128  0.07947541  0.98633629  1  0  -0.648139  0  2.063622  0  0  -0.570463  0  2.327802  0  0  -0.599772  0  2.313741  0  0  -0.32513  -0.549687  0  2.336846  0
O  O113  1  0.41597665  0.92052509  0.01366349  1  0  -0.648118  0  2.063552  0  0  -0.570436  0  2.327725  0  0  -0.599743  0  2.313663  0  0  -0.325122  -0.549659  0  2.336769  0
O  O114  1  0.74906430  0.16930824  0.99817371  1  0  -0.60666  0  1.978455  0  0  -0.559515  0  2.204629  0  0  -0.583521  0  2.193979  0  0  -0.317638  -0.542776  0  2.211671  0
O  O115  1  0.25093571  0.83068925  0.00182591  1  0  -0.606664  0  1.97846  0  0  -0.559522  0  2.204644  0  0  -0.583526  0  2.193994  0  0  -0.317644  -0.542782  0  2.211686  0
O  O116  1  0.83298865  0.33629114  0.90336076  1  0  -0.549383  0  2.084125  0  0  -0.501664  0  2.304399  0  0  -0.523994  0  2.291274  0  0  -0.331458  -0.485982  0  2.313142  0
O  O117  1  0.16701062  0.66370836  0.09664041  1  0  -0.549403  0  2.084141  0  0  -0.501694  0  2.304425  0  0  -0.524024  0  2.291304  0  0  -0.331451  -0.48601  0  2.313169  0
O  O118  1  0.79546751  0.45037503  0.76065321  1  0  -0.584827  0  1.935555  0  0  -0.539139  0  2.168589  0  0  -0.560891  0  2.158557  0  0  -0.301772  -0.524169  0  2.175421  0
O  O119  1  0.20453102  0.54962647  0.23934801  1  0  -0.584831  0  1.935616  0  0  -0.539141  0  2.168629  0  0  -0.560893  0  2.158597  0  0  -0.301771  -0.524172  0  2.175462  0
