# generated using pymatgen
data_CuH16C10Br2(N8O3)2
_symmetry_space_group_name_H-M   'P 1'
_cell_length_a   7.81890807
_cell_length_b   8.07499843
_cell_length_c   9.66254355
_cell_angle_alpha   77.84141170
_cell_angle_beta   81.72695344
_cell_angle_gamma   87.45454879
_symmetry_Int_Tables_number   1
_chemical_formula_structural   CuH16C10Br2(N8O3)2
_chemical_formula_sum   'Cu1 H16 C10 Br2 N16 O6'
_cell_volume   590.11664241
_cell_formula_units_Z   1
loop_
 _symmetry_equiv_pos_site_id
 _symmetry_equiv_pos_as_xyz
  1  'x, y, z'
loop_
 _atom_site_type_symbol
 _atom_site_label
 _atom_site_symmetry_multiplicity
 _atom_site_fract_x
 _atom_site_fract_y
 _atom_site_fract_z
 _atom_site_occupancy
 _atom_site_hle17_ddec_charge
 _atom_site_hle17_ddec_spin_density
 _atom_site_hle17_ddec_sum_bond_order
 _atom_site_hle17_magmom
 _atom_site_hse06_10hf_ddec_charge
 _atom_site_hse06_10hf_ddec_spin_density
 _atom_site_hse06_10hf_ddec_sum_bond_order
 _atom_site_hse06_10hf_magmom
 _atom_site_hse06_ddec_charge
 _atom_site_hse06_ddec_spin_density
 _atom_site_hse06_ddec_sum_bond_order
 _atom_site_hse06_magmom
 _atom_site_pbe_cm5_charge
 _atom_site_pbe_ddec_charge
 _atom_site_pbe_ddec_spin_density
 _atom_site_pbe_ddec_sum_bond_order
 _atom_site_pbe_magmom
Cu  Cu0  1  0.00000071  0.99999492  0.00000429  1  0.78603  0.73122  2.003356  0.568  0.747308  0.801169  2.389733  0.666  0.819218  0.857424  2.338335  0.74  0.798296  0.702684  0.760048  2.425175  0.614
H  H1  1  0.82325569  0.63626957  0.18624825  1  0.132164  -0.000282  0.925885  0.0  0.137293  -0.000132  0.985266  0.0  0.140221  -9.8e-05  0.982007  0.0  0.141352  0.135393  -0.000155  0.987274  0.0
H  H2  1  0.17674151  0.36371874  0.81374750  1  0.132205  -0.000278  0.925682  0.0  0.137345  -0.000131  0.985056  0.0  0.140276  -9.8e-05  0.981795  0.0  0.1414  0.135445  -0.000155  0.987062  0.0
H  H3  1  0.36045765  0.86049143  0.11764514  1  0.131392  -0.00013  0.906508  0.0  0.140307  -7.2e-05  0.958249  0.0  0.142763  -4.7e-05  0.955867  0.0  0.149947  0.138443  -8.9e-05  0.960057  0.0
H  H4  1  0.63954463  0.13950830  0.88235623  1  0.13141  -0.000135  0.906488  0.0  0.140324  -7.2e-05  0.958221  0.0  0.142781  -4.7e-05  0.955838  0.0  0.14995  0.138459  -8.9e-05  0.960029  0.0
H  H5  1  0.63601855  0.83104130  0.63375312  1  0.100307  -0.00013  0.91401  0.0  0.111599  -4.7e-05  0.978237  0.0  0.112266  -5.4e-05  0.977262  0.0  0.117535  0.111024  -4.1e-05  0.979004  0.0
H  H6  1  0.36398617  0.16897109  0.36624466  1  0.10035  -0.000133  0.913973  0.0  0.111602  -4.7e-05  0.978243  0.0  0.112289  -5.5e-05  0.977246  0.0  0.11753  0.111007  -4.1e-05  0.979029  0.0
H  H7  1  0.43767311  0.75382559  0.60461013  1  0.117366  -3.2e-05  0.896167  0.0  0.135213  1.1e-05  0.946343  0.0  0.136292  2e-06  0.94571  0.0  0.133208  0.134231  1.7e-05  0.947068  0.0
H  H8  1  0.56233297  0.24618045  0.39538655  1  0.117409  -4e-05  0.896111  0.0  0.135202  1.2e-05  0.946333  0.0  0.136276  2e-06  0.94571  0.0  0.133181  0.13422  1.7e-05  0.947053  0.0
H  H9  1  0.87454109  0.60925821  0.65161139  1  0.118727  -4.9e-05  0.940461  0.0  0.127448  0.0  1.005274  0.0  0.129145  -3e-06  1.004253  0.0  0.116935  0.126293  1.3e-05  1.00584  0.0
H  H10  1  0.12547402  0.39074906  0.34838400  1  0.118632  -4.8e-05  0.940593  0.0  0.127409  1e-06  1.005371  0.0  0.129098  -4e-06  1.004365  0.0  0.116919  0.126258  1.3e-05  1.005928  0.0
H  H11  1  0.83020639  0.40737821  0.76553324  1  0.116256  0.000278  0.955205  0.0  0.126769  0.000159  1.016781  0.0  0.128723  0.000102  1.01532  0.0  0.113002  0.125097  0.000214  1.018265  0.0
H  H12  1  0.16979838  0.59262782  0.23446050  1  0.116174  0.000277  0.955162  0.0  0.126717  0.000159  1.016784  0.0  0.128688  0.000103  1.015299  0.0  0.113024  0.125042  0.000214  1.018275  0.0
H  H13  1  0.51650995  0.48857527  0.81184310  1  0.083013  5e-06  0.949881  0.0  0.09451  4e-06  1.020913  0.0  0.095695  3e-06  1.021249  0.0  0.098216  0.093599  7e-06  1.020754  0.0
H  H14  1  0.48350126  0.51142944  0.18814286  1  0.082957  5e-06  0.949915  0.0  0.09443  3e-06  1.020986  0.0  0.095612  4e-06  1.021322  0.0  0.098212  0.093514  7e-06  1.020825  0.0
H  H15  1  0.59352047  0.49937119  0.62846029  1  0.113516  0.000116  0.897148  0.0  0.136593  7.9e-05  0.942502  0.0  0.136933  4.9e-05  0.943518  0.0  0.115818  0.136246  0.00011  0.942005  0.0
H  H16  1  0.40649192  0.50064494  0.37152763  1  0.113552  0.000114  0.897107  0.0  0.136652  7.9e-05  0.942429  0.0  0.136993  4.9e-05  0.943442  0.0  0.115827  0.136299  0.00011  0.941933  0.0
C  C17  1  0.83253879  0.64945031  0.07086905  1  0.178368  -0.00461  3.642311  0.0  0.12977  -0.00052  3.937061  0.002  0.140195  -0.001786  3.948265  0.0  0.160456  0.122943  0.000357  3.92924  0.003
C  C18  1  0.16745714  0.35054187  0.92913961  1  0.178436  -0.004628  3.642422  0.0  0.129811  -0.000518  3.937172  0.002  0.140233  -0.001784  3.948384  0.0  0.160509  0.122985  0.000358  3.929348  0.003
C  C19  1  0.36581823  0.85214279  0.00669294  1  0.178013  -0.005167  3.664319  -0.002  0.12993  -0.001307  3.957536  0.001  0.139722  -0.0024  3.969368  -0.001  0.162722  0.123464  -0.00051  3.949933  0.002
C  C20  1  0.63418015  0.14785949  0.99330845  1  0.178017  -0.005128  3.66423  -0.002  0.129943  -0.001309  3.957447  0.001  0.139735  -0.002398  3.96928  -0.001  0.16272  0.123476  -0.00051  3.949843  0.002
C  C21  1  0.53103094  0.74191731  0.68068204  1  -0.041897  0.000733  3.558529  0.001  -0.101898  0.0005  3.818984  0.001  -0.098615  0.000375  3.82922  0.001  -0.035971  -0.104029  0.000614  3.812102  0.001
C  C22  1  0.46897511  0.25809254  0.31931604  1  -0.04193  0.000748  3.558504  0.001  -0.101853  0.0005  3.818909  0.001  -0.098583  0.000376  3.829141  0.001  -0.035927  -0.103973  0.000614  3.812029  0.001
C  C23  1  0.78955458  0.54138130  0.74477159  1  -0.075214  0.000851  3.571309  0.001  -0.12776  0.000468  3.819682  0.001  -0.126276  0.000314  3.830356  0.0  -0.051778  -0.128702  0.000618  3.812489  0.001
C  C24  1  0.21045539  0.45862346  0.25522383  1  -0.074922  0.000849  3.571169  0.001  -0.127651  0.000467  3.819772  0.001  -0.126199  0.000315  3.830487  0.0  -0.051797  -0.128593  0.000618  3.812572  0.001
C  C25  1  0.60040411  0.55955360  0.71937512  1  -0.123243  -0.000118  3.628837  0.0  -0.169073  2.5e-05  3.889644  0.0  -0.170765  -4.3e-05  3.902308  0.0  -0.151184  -0.16769  9.2e-05  3.880759  0.0
C  C26  1  0.39960967  0.44045493  0.28061606  1  -0.123321  -0.000115  3.628837  0.0  -0.169061  2.6e-05  3.88963  0.0  -0.170756  -4.5e-05  3.902312  0.0  -0.151175  -0.167654  9.2e-05  3.880712  0.0
Br  Br27  1  0.04431619  0.13340054  0.62409204  1  1.172116  -0.001522  4.065954  -0.001  1.116114  -0.000915  4.655076  0.0  1.161138  -0.000764  4.618683  0.0  0.731211  1.083403  -0.001073  4.678961  -0.001
Br  Br28  1  0.95566293  0.86659041  0.37591471  1  1.172001  -0.001523  4.066166  -0.001  1.115999  -0.000914  4.655288  0.0  1.16102  -0.000764  4.6189  0.0  0.731103  1.08329  -0.001073  4.679176  -0.001
N  N29  1  0.89179802  0.79003000  0.97549045  1  -0.228172  0.074782  3.31276  0.101  -0.205678  0.050164  3.652598  0.071  -0.232254  0.040042  3.673863  0.06  -0.235204  -0.188919  0.057049  3.639141  0.077
N  N30  1  0.10820305  0.20996213  0.02451139  1  -0.228267  0.074773  3.312678  0.101  -0.205748  0.050162  3.652505  0.071  -0.232323  0.040039  3.673766  0.06  -0.235231  -0.188991  0.057047  3.639051  0.077
N  N31  1  0.28091182  0.87257126  0.80049020  1  -0.070074  -0.004507  2.843498  -0.004  -0.076885  -0.000588  3.135155  0.0  -0.07201  -0.001898  3.145889  -0.002  -0.059036  -0.079786  0.000397  3.128383  0.001
N  N32  1  0.71908665  0.12742214  0.19951069  1  -0.070109  -0.004474  2.843599  -0.004  -0.076922  -0.000592  3.135275  0.0  -0.072046  -0.001893  3.146008  -0.001  -0.059057  -0.079823  0.000397  3.128502  0.001
N  N33  1  0.88506169  0.76503685  0.84569120  1  -0.068671  -0.006016  2.849429  -0.005  -0.078317  -0.001145  3.149027  -0.001  -0.073097  -0.002661  3.160461  -0.002  -0.062375  -0.081297  -6.7e-05  3.14147  0.0
N  N34  1  0.11494453  0.23495780  0.15431061  1  -0.068645  -0.006005  2.849223  -0.005  -0.078303  -0.001149  3.148784  -0.001  -0.073077  -0.002655  3.160214  -0.002  -0.062373  -0.081285  -6.7e-05  3.141228  0.0
N  N35  1  0.43569106  0.80036209  0.80432321  1  0.227619  0.000742  3.508548  0.002  0.279145  0.001401  3.78747  0.003  0.276246  0.000558  3.807336  0.002  0.008622  0.280907  0.002084  3.774163  0.004
N  N36  1  0.56430994  0.19963639  0.19567854  1  0.227672  0.000706  3.508631  0.002  0.279202  0.001403  3.787518  0.003  0.276303  0.000555  3.807388  0.002  0.008633  0.280963  0.002084  3.774208  0.004
N  N37  1  0.49450778  0.78515545  0.92946399  1  -0.250427  0.005436  2.880039  0.007  -0.239502  0.002443  3.162061  0.003  -0.246736  0.001957  3.175977  0.003  -0.188696  -0.23459  0.003029  3.152821  0.004
N  N38  1  0.50549187  0.21484937  0.07053783  1  -0.250482  0.00544  2.880103  0.007  -0.239559  0.002442  3.162117  0.003  -0.246792  0.001957  3.176035  0.003  -0.188702  -0.234647  0.003029  3.152877  0.004
N  N39  1  0.23602219  0.90647771  0.92882236  1  -0.216285  0.062411  3.260348  0.085  -0.188912  0.046222  3.587468  0.066  -0.212855  0.037122  3.606099  0.057  -0.224246  -0.174134  0.052343  3.576218  0.072
N  N40  1  0.76397881  0.09352075  0.07117733  1  -0.216293  0.062393  3.260372  0.085  -0.18893  0.046221  3.587494  0.066  -0.212872  0.037119  3.606125  0.057  -0.22425  -0.174152  0.052342  3.576241  0.072
N  N41  1  0.78826227  0.53358586  0.00297246  1  -0.255893  0.007436  2.835713  0.009  -0.252131  0.003147  3.124173  0.004  -0.259161  0.002447  3.137005  0.003  -0.196279  -0.247148  0.004019  3.115354  0.005
N  N42  1  0.21173620  0.46640371  0.99702187  1  -0.255998  0.007441  2.836041  0.009  -0.252246  0.003149  3.124506  0.004  -0.259274  0.002446  3.137341  0.003  -0.196458  -0.247265  0.004018  3.115687  0.005
N  N43  1  0.82348539  0.61126859  0.86555016  1  0.235509  0.001051  3.532589  0.003  0.284772  0.00147  3.816017  0.003  0.282164  0.000556  3.835977  0.002  0.004714  0.286489  0.002184  3.80248  0.004
N  N44  1  0.17652077  0.38872858  0.13444604  1  0.235444  0.001046  3.532509  0.003  0.284772  0.001468  3.815948  0.003  0.282164  0.000553  3.835902  0.002  0.004791  0.286487  0.002183  3.802411  0.004
O  O45  1  0.92838838  0.15350037  0.78428220  1  -0.69883  0.001566  1.708962  0.005  -0.669637  -0.001448  2.006604  0.0  -0.689115  -0.001911  1.984565  0.0  -0.417602  -0.655599  -0.000847  2.021095  0.001
O  O46  1  0.07160630  0.84649314  0.21573776  1  -0.698808  0.001566  1.709209  0.005  -0.669633  -0.001451  2.006876  0.0  -0.689102  -0.00191  1.984819  0.0  -0.417576  -0.655597  -0.000847  2.02137  0.001
O  O47  1  0.20533134  0.27304748  0.59933668  1  -0.640701  0.00021  1.508963  0.0  -0.607063  -0.000189  1.751178  0.0  -0.625078  -0.000151  1.734575  0.0  -0.414677  -0.593861  -0.000197  1.761586  0.0
O  O48  1  0.79463860  0.72694978  0.40065451  1  -0.64065  0.000209  1.508826  0.0  -0.607001  -0.00019  1.751043  0.0  -0.625022  -0.000148  1.734448  0.0  -0.414656  -0.593801  -0.000197  1.761456  0.0
O  O49  1  0.91232743  0.20842544  0.50268039  1  -0.627932  0.001334  1.535547  0.002  -0.606236  -0.00031  1.789928  0.0  -0.625114  -0.000424  1.773651  0.0  -0.415825  -0.593094  -0.00019  1.800834  0.0
O  O50  1  0.08762974  0.79157329  0.49734829  1  -0.62789  0.001333  1.53567  0.002  -0.606179  -0.000309  1.790031  0.0  -0.625065  -0.000426  1.773768  0.0  -0.415762  -0.593033  -0.00019  1.800931  0.0
