# generated using pymatgen
data_CdH19C18(N2O3)2
_symmetry_space_group_name_H-M   'P 1'
_cell_length_a   8.62659724
_cell_length_b   11.61640249
_cell_length_c   11.49932829
_cell_angle_alpha   65.21549342
_cell_angle_beta   69.61442074
_cell_angle_gamma   79.06481122
_symmetry_Int_Tables_number   1
_chemical_formula_structural   CdH19C18(N2O3)2
_chemical_formula_sum   'Cd2 H38 C36 N8 O12'
_cell_volume   979.38977993
_cell_formula_units_Z   2
loop_
 _symmetry_equiv_pos_site_id
 _symmetry_equiv_pos_as_xyz
  1  'x, y, z'
loop_
 _atom_site_type_symbol
 _atom_site_label
 _atom_site_symmetry_multiplicity
 _atom_site_fract_x
 _atom_site_fract_y
 _atom_site_fract_z
 _atom_site_occupancy
 _atom_site_hle17_bader_spin_density
 _atom_site_hle17_ddec_charge
 _atom_site_hle17_ddec_spin_density
 _atom_site_hle17_ddec_sum_bond_order
 _atom_site_hle17_magmom
 _atom_site_hse06_10hf_bader_spin_density
 _atom_site_hse06_10hf_ddec_charge
 _atom_site_hse06_10hf_ddec_spin_density
 _atom_site_hse06_10hf_ddec_sum_bond_order
 _atom_site_hse06_10hf_magmom
 _atom_site_hse06_bader_spin_density
 _atom_site_hse06_ddec_charge
 _atom_site_hse06_ddec_spin_density
 _atom_site_hse06_ddec_sum_bond_order
 _atom_site_hse06_magmom
 _atom_site_pbe_bader_spin_density
 _atom_site_pbe_cm5_charge
 _atom_site_pbe_ddec_charge
 _atom_site_pbe_ddec_spin_density
 _atom_site_pbe_ddec_sum_bond_order
 _atom_site_pbe_magmom
Cd  Cd0  1  0.19577152  0.88474785  0.34904260  1  0  1.114402  0  1.6926  0  0  0.923572  0  2.131521  0  0  0.980464  0  2.081678  0  0  0.768278  0.88325  0  2.165437  0
Cd  Cd1  1  0.80422741  0.11525163  0.65096023  1  0  1.114346  0  1.692695  0  0  0.923522  0  2.131593  0  0  0.980413  0  2.081754  0  0  0.768254  0.883199  0  2.165496  0
H  H2  1  0.50031836  0.72055212  0.93913989  1  0  0.086777  0  1.009409  0  0  0.093964  0  1.080364  0  0  0.096724  0  1.079643  0  0  0.095995  0.091976  0  1.080966  0
H  H3  1  0.49967807  0.27944738  0.06086185  1  0  0.086734  0  1.00949  0  0  0.093938  0  1.08041  0  0  0.096699  0  1.079694  0  0  0.095987  0.091948  0  1.081009  0
H  H4  1  0.88548962  0.47008583  0.68894102  1  0  0.108326  0  0.9381  0  0  0.117158  0  1.001362  0  0  0.121109  0  0.998378  0  0  0.105233  0.114263  0  1.003667  0
H  H5  1  0.11450681  0.52991368  0.31106072  1  0  0.108316  0  0.938112  0  0  0.117154  0  1.00137  0  0  0.121099  0  0.998384  0  0  0.105224  0.114257  0  1.003675  0
H  H6  1  0.67041081  0.36174674  0.89584254  1  0  0.087028  0  0.9964  0  0  0.095644  0  1.063912  0  0  0.098165  0  1.063563  0  0  0.096628  0.093791  0  1.064314  0
H  H7  1  0.32958558  0.63825371  0.10415883  1  0  0.087024  0  0.996383  0  0  0.095646  0  1.063891  0  0  0.09816  0  1.06355  0  0  0.096631  0.093795  0  1.064295  0
H  H8  1  0.94971267  0.80300010  0.22298276  1  0  0.10185  0  0.944853  0  0  0.107038  0  1.016453  0  0  0.10975  0  1.013155  0  0  0.136374  0.104997  0  1.018835  0
H  H9  1  0.05028252  0.19699942  0.77701757  1  0  0.101872  0  0.94479  0  0  0.107022  0  1.016456  0  0  0.109732  0  1.01316  0  0  0.136364  0.104983  0  1.018821  0
H  H10  1  0.78373972  0.65406822  0.44484825  1  0  0.130801  0  0.987596  0  0  0.137045  0  1.05208  0  0  0.140859  0  1.049547  0  0  0.119444  0.134251  0  1.053963  0
H  H11  1  0.21626053  0.34592936  0.55515329  1  0  0.130821  0  0.987599  0  0  0.137064  0  1.052079  0  0  0.140878  0  1.049544  0  0  0.11944  0.134267  0  1.05397  0
H  H12  1  0.40896158  0.62771066  0.29775506  1  0  0.093101  0  0.948466  0  0  0.102706  0  1.015712  0  0  0.104512  0  1.013675  0  0  0.133704  0.10138  0  1.017084  0
H  H13  1  0.59103978  0.37228882  0.70224278  1  0  0.093123  0  0.948473  0  0  0.102731  0  1.015699  0  0  0.104538  0  1.013664  0  0  0.13372  0.101403  0  1.017077  0
H  H14  1  0.01849157  0.88188874  0.85041361  1  0  0.105269  0  0.957227  0  0  0.120469  0  1.018088  0  0  0.121671  0  1.017367  0  0  0.117069  0.119512  0  1.018718  0
H  H15  1  0.98150835  0.11811455  0.14958388  1  0  0.105315  0  0.957205  0  0  0.120493  0  1.018075  0  0  0.121695  0  1.017355  0  0  0.117077  0.119533  0  1.018706  0
H  H16  1  0.85379297  0.87851410  0.99619177  1  0  0.092385  0  0.927259  0  0  0.104884  0  0.992219  0  0  0.105965  0  0.991973  0  0  0.113577  0.104012  0  0.992556  0
H  H17  1  0.14620453  0.12148827  0.00380589  1  0  0.092467  0  0.92718  0  0  0.10497  0  0.992109  0  0  0.106052  0  0.991863  0  0  0.113584  0.104097  0  0.992442  0
H  H18  1  0.87686513  0.44792105  0.17775842  1  0  0.051182  0  0.935721  0  0  0.066461  0  1.000463  0  0  0.066978  0  1.000085  0  0  0.098213  0.065979  0  1.000864  0
H  H19  1  0.12313989  0.55207936  0.82223719  1  0  0.051189  0  0.935697  0  0  0.066457  0  1.000464  0  0  0.066978  0  1.000083  0  0  0.098213  0.065972  0  1.00087  0
H  H20  1  0.70288209  0.54901278  0.13708277  1  0  0.042  0  0.937751  0  0  0.055544  0  1.006019  0  0  0.055509  0  1.006419  0  0  0.093471  0.055492  0  1.005814  0
H  H21  1  0.29712058  0.45098482  0.86291203  1  0  0.041981  0  0.937707  0  0  0.055525  0  1.005995  0  0  0.055492  0  1.006396  0  0  0.093483  0.05547  0  1.005792  0
H  H22  1  0.44174771  0.91659584  0.01981798  1  0  0.111102  0  0.957669  0  0  0.12036  0  1.018035  0  0  0.123149  0  1.016215  0  0  0.118617  0.118331  0  1.019445  0
H  H23  1  0.55824739  0.08340556  0.98018420  1  0  0.111005  0  0.957758  0  0  0.120333  0  1.018035  0  0  0.123124  0  1.01621  0  0  0.118622  0.118308  0  1.019443  0
H  H24  1  0.54860278  0.85426041  0.44812234  1  0  0.118907  0  0.937565  0  0  0.128682  0  0.993945  0  0  0.131966  0  0.991721  0  0  0.121037  0.126279  0  0.995626  0
H  H25  1  0.45139630  0.14573622  0.55188164  1  0  0.119047  0  0.937565  0  0  0.12881  0  0.993937  0  0  0.132099  0  0.991705  0  0  0.121079  0.126403  0  0.995616  0
H  H26  1  0.30137612  0.91429638  0.83664822  1  0  0.126859  0  0.935395  0  0  0.141068  0  0.985926  0  0  0.14395  0  0.984488  0  0  0.130059  0.138926  0  0.987125  0
H  H27  1  0.69862022  0.08570502  0.16335363  1  0  0.126942  0  0.935287  0  0  0.141085  0  0.985894  0  0  0.143967  0  0.984457  0  0  0.130075  0.138942  0  0.987095  0
H  H28  1  0.87171634  0.68610021  0.94951910  1  0  0.059794  0  0.943768  0  0  0.072899  0  1.011724  0  0  0.072768  0  1.012332  0  0  0.101129  0.072844  0  1.01145  0
H  H29  1  0.12828615  0.31390118  0.05047591  1  0  0.059864  0  0.943756  0  0  0.072979  0  1.011709  0  0  0.072848  0  1.01232  0  0  0.101158  0.072925  0  1.011441  0
H  H30  1  0.07550444  0.64493750  0.96894198  1  0  0.043195  0  0.931377  0  0  0.056669  0  0.998095  0  0  0.05724  0  0.997336  0  0  0.093824  0.056161  0  0.998726  0
H  H31  1  0.92449790  0.35506672  0.03105361  1  0  0.043216  0  0.931404  0  0  0.056709  0  0.998093  0  0  0.057289  0  0.997324  0  0  0.093826  0.056202  0  0.998721  0
H  H32  1  0.62448401  0.42056700  0.37902229  1  0  0.085676  0  0.935918  0  0  0.100327  0  0.998695  0  0  0.100134  0  1.00048  0  0  0.114054  0.100356  0  0.99759  0
H  H33  1  0.37551852  0.57943344  0.62097223  1  0  0.085735  0  0.935887  0  0  0.100336  0  0.998692  0  0  0.100147  0  1.00047  0  0  0.114084  0.100366  0  0.99759  0
H  H34  1  0.80016348  0.46265766  0.39643714  1  0  0.095881  0  0.927934  0  0  0.110044  0  0.990443  0  0  0.110574  0  0.990681  0  0  0.118143  0.10952  0  0.990454  0
H  H35  1  0.19984033  0.53734183  0.60355657  1  0  0.095848  0  0.92807  0  0  0.110045  0  0.990519  0  0  0.110573  0  0.990758  0  0  0.118141  0.109519  0  0.99053  0
H  H36  1  0.85475450  0.96769408  0.44747916  1  0  0.429707  0  0.873162  0  0  0.399469  0  0.935445  0  0  0.410159  0  0.919972  0  0  0.287283  0.391899  0  0.946371  0
H  H37  1  0.14524431  0.03230731  0.55252117  1  0  0.429715  0  0.873147  0  0  0.399477  0  0.935432  0  0  0.410167  0  0.919959  0  0  0.287282  0.391906  0  0.946359  0
H  H38  1  0.95719534  0.08796083  0.36463671  1  0  0.421852  0  0.883167  0  0  0.391726  0  0.946337  0  0  0.402616  0  0.93038  0  0  0.287363  0.383995  0  0.957633  0
H  H39  1  0.04280610  0.91203768  0.63536499  1  0  0.421817  0  0.883202  0  0  0.391677  0  0.9464  0  0  0.402567  0  0.930443  0  0  0.287339  0.383943  0  0.957705  0
C  C40  1  0.81819053  0.65575222  0.69676431  1  0  -0.066537  0  3.718971  0  0  -0.0538  0  3.956538  0  0  -0.058781  0  3.976706  0  0  -0.012416  -0.050678  0  3.943177  0
C  C41  1  0.18181093  0.34424628  0.30323913  1  0  -0.066785  0  3.719027  0  0  -0.053993  0  3.956613  0  0  -0.058975  0  3.976776  0  0  -0.012549  -0.05087  0  3.943245  0
C  C42  1  0.56496242  0.53164866  0.93650893  1  0  0.045632  0  3.791916  0  0  0.060256  0  4.02721  0  0  0.061108  0  4.049184  0  0  -0.014145  0.059605  0  4.012447  0
C  C43  1  0.43503646  0.46835176  0.06349439  1  0  0.045628  0  3.791837  0  0  0.060188  0  4.027185  0  0  0.06104  0  4.049161  0  0  -0.014122  0.059538  0  4.012422  0
C  C44  1  0.96214682  0.71593989  0.57703467  1  0  0.641838  0  3.932997  0  0  0.590174  0  4.231007  0  0  0.624121  0  4.22388  0  0  0.196862  0.567108  0  4.235055  0
C  C45  1  0.03785455  0.28406050  0.42296975  1  0  0.642038  0  3.932807  0  0  0.590268  0  4.230983  0  0  0.624218  0  4.223853  0  0  0.196924  0.567209  0  4.235022  0
C  C46  1  0.71020931  0.86663303  0.72328370  1  0  0.644487  0  3.933545  0  0  0.593435  0  4.227581  0  0  0.627311  0  4.220384  0  0  0.195451  0.570431  0  4.231634  0
C  C47  1  0.28979218  0.13336454  0.27671751  1  0  0.644377  0  3.933573  0  0  0.593364  0  4.227561  0  0  0.627232  0  4.220376  0  0  0.195441  0.57037  0  4.231603  0
C  C48  1  0.58243829  0.66296894  0.88610733  1  0  -0.134221  0  3.731083  0  0  -0.162971  0  3.977512  0  0  -0.16452  0  3.995985  0  0  -0.092401  -0.161895  0  3.965176  0
C  C49  1  0.41755940  0.33703055  0.11389583  1  0  -0.13418  0  3.73107  0  0  -0.162903  0  3.977479  0  0  -0.164451  0  3.995948  0  0  -0.092387  -0.161822  0  3.965135  0
C  C50  1  0.70490443  0.72536122  0.76828748  1  0  -0.052364  0  3.736387  0  0  -0.03725  0  3.971022  0  0  -0.040617  0  3.989603  0  0  -0.01254  -0.035201  0  3.958727  0
C  C51  1  0.29509451  0.27463825  0.23171623  1  0  -0.05225  0  3.736347  0  0  -0.03717  0  3.970975  0  0  -0.040534  0  3.98956  0  0  -0.012477  -0.035127  0  3.958679  0
C  C52  1  0.79973776  0.52504086  0.74403014  1  0  -0.073067  0  3.743716  0  0  -0.098936  0  4.003186  0  0  -0.098654  0  4.021061  0  0  -0.086958  -0.099119  0  3.991259  0
C  C53  1  0.20026117  0.47495861  0.25597269  1  0  -0.073043  0  3.743749  0  0  -0.098929  0  4.003207  0  0  -0.098635  0  4.021069  0  0  -0.086944  -0.099106  0  3.991278  0
C  C54  1  0.67670893  0.46400285  0.86163798  1  0  -0.117608  0  3.731428  0  0  -0.139759  0  3.987295  0  0  -0.141538  0  4.006122  0  0  -0.096499  -0.138545  0  3.974695  0
C  C55  1  0.32328876  0.53599664  0.13836518  1  0  -0.117572  0  3.731381  0  0  -0.139703  0  3.987238  0  0  -0.141477  0  4.006068  0  0  -0.096484  -0.138497  0  3.974649  0
C  C56  1  0.06541048  0.83380855  0.14476791  1  0  0.178396  0  3.636298  0  0  0.114701  0  3.907868  0  0  0.129386  0  3.919916  0  0  0.143581  0.10523  0  3.89937  0
C  C57  1  0.93458342  0.16619193  0.85523323  1  0  0.178408  0  3.636479  0  0  0.114711  0  3.908077  0  0  0.12939  0  3.920139  0  0  0.143538  0.105243  0  3.899572  0
C  C58  1  0.67024789  0.67804816  0.41645826  1  0  -0.068645  0  3.657696  0  0  -0.110714  0  3.921381  0  0  -0.109588  0  3.93948  0  0  -0.000726  -0.111397  0  3.909356  0
C  C59  1  0.32975358  0.32194943  0.58354035  1  0  -0.068674  0  3.657759  0  0  -0.110722  0  3.921435  0  0  -0.109595  0  3.939535  0  0  -0.000701  -0.111407  0  3.909411  0
C  C60  1  0.47731208  0.66391375  0.33753340  1  0  0.157716  0  3.665634  0  0  0.096789  0  3.933051  0  0  0.11079  0  3.945945  0  0  0.137817  0.087782  0  3.923963  0
C  C61  1  0.52269052  0.33608573  0.66246411  1  0  0.157683  0  3.665597  0  0  0.096768  0  3.933021  0  0  0.11077  0  3.945916  0  0  0.137804  0.08776  0  3.923935  0
C  C62  1  0.97435120  0.83359601  0.95986753  1  0  -0.043198  0  3.632669  0  0  -0.109759  0  3.892231  0  0  -0.106505  0  3.901971  0  0  -0.059686  -0.111831  0  3.885662  0
C  C63  1  0.02564507  0.16640636  0.04013132  1  0  -0.043274  0  3.632752  0  0  -0.109779  0  3.892265  0  0  -0.106527  0  3.902006  0  0  -0.059694  -0.111843  0  3.885687  0
C  C64  1  0.79487663  0.52988409  0.19101510  1  0  0.078176  0  3.665078  0  0  0.018589  0  3.937719  0  0  0.025163  0  3.943801  0  0  -0.0669  0.014176  0  3.933471  0
C  C65  1  0.20512472  0.47011541  0.80898100  1  0  0.078321  0  3.664756  0  0  0.018694  0  3.937456  0  0  0.025258  0  3.943552  0  0  -0.066893  0.014288  0  3.933205  0
C  C66  1  0.31825454  0.89316356  0.03595204  1  0  -0.006129  0  3.765342  0  0  -0.041131  0  4.038348  0  0  -0.038324  0  4.056706  0  0  -0.005508  -0.043051  0  4.025999  0
C  C67  1  0.68174057  0.10683785  0.96405014  1  0  -0.00607  0  3.765432  0  0  -0.041116  0  4.038389  0  0  -0.038308  0  4.056748  0  0  -0.005487  -0.043042  0  4.026049  0
C  C68  1  0.55433046  0.77758742  0.41606077  1  0  -0.004356  0  3.750313  0  0  -0.036803  0  4.015385  0  0  -0.035117  0  4.035119  0  0  -0.004412  -0.037961  0  4.002113  0
C  C69  1  0.44566854  0.22241018  0.58393936  1  0  -0.004481  0  3.750396  0  0  -0.036926  0  4.015463  0  0  -0.035244  0  4.035193  0  0  -0.00447  -0.038081  0  4.002187  0
C  C70  1  0.25169876  0.89176358  0.94378993  1  0  -0.075357  0  3.678312  0  0  -0.115732  0  3.937593  0  0  -0.114562  0  3.955803  0  0  0.002461  -0.116439  0  3.92539  0
C  C71  1  0.74829639  0.10823688  0.05621263  1  0  -0.07531  0  3.678144  0  0  -0.115639  0  3.937458  0  0  -0.11447  0  3.955669  0  0  0.002453  -0.116342  0  3.925262  0
C  C72  1  0.95473360  0.69392330  0.99998028  1  0  0.076011  0  3.650328  0  0  0.017286  0  3.922441  0  0  0.024362  0  3.927567  0  0  -0.068538  0.012587  0  3.918838  0
C  C73  1  0.04526512  0.30607905  0.00001618  1  0  0.075728  0  3.650472  0  0  0.016946  0  3.922632  0  0  0.024012  0  3.927758  0  0  -0.068684  0.012236  0  3.919033  0
C  C74  1  0.70969201  0.49652117  0.34046670  1  0  -0.033139  0  3.625636  0  0  -0.098636  0  3.887033  0  0  -0.094992  0  3.897478  0  0  -0.052319  -0.100946  0  3.879922  0
C  C75  1  0.29031057  0.50347832  0.65952820  1  0  -0.033307  0  3.625612  0  0  -0.098715  0  3.886911  0  0  -0.095067  0  3.897348  0  0  -0.052321  -0.101018  0  3.879783  0
N  N76  1  0.43515758  0.76741924  0.36649069  1  0  -0.39482  0  3.295273  0  0  -0.31972  0  3.58402  0  0  -0.340894  0  3.600757  0  0  -0.36395  -0.305212  0  3.572124  0
N  N77  1  0.56484261  0.23257930  0.63350959  1  0  -0.394841  0  3.295253  0  0  -0.319744  0  3.584003  0  0  -0.340919  0  3.600743  0  0  -0.363974  -0.305245  0  3.572113  0
N  N78  1  0.61881174  0.60685882  0.36716285  1  0  -0.059602  0  3.589899  0  0  0.032355  0  3.81164  0  0  0.018504  0  3.83718  0  0  -0.245895  0.041438  0  3.794328  0
N  N79  1  0.38119086  0.39314066  0.63283379  1  0  -0.059516  0  3.589705  0  0  0.032388  0  3.811463  0  0  0.018534  0  3.837006  0  0  -0.245904  0.041472  0  3.794148  0
N  N80  1  0.20056509  0.85665847  0.16083002  1  0  -0.399859  0  3.260431  0  0  -0.324397  0  3.545466  0  0  -0.346635  0  3.563926  0  0  -0.363311  -0.309191  0  3.532431  0
N  N81  1  0.79942883  0.14334200  0.83917286  1  0  -0.399741  0  3.260691  0  0  -0.32428  0  3.545753  0  0  -0.346519  0  3.564213  0  0  -0.363275  -0.309074  0  3.532718  0
N  N82  1  0.09168531  0.85378924  0.01453634  1  0  -0.056225  0  3.57202  0  0  0.037334  0  3.793845  0  0  0.022749  0  3.820582  0  0  -0.242695  0.046966  0  3.775627  0
N  N83  1  0.90831103  0.14621217  0.98546464  1  0  -0.056462  0  3.572153  0  0  0.037116  0  3.793923  0  0  0.022532  0  3.820658  0  0  -0.242699  0.046748  0  3.775704  0
O  O84  1  0.88468668  0.63952652  0.14237369  1  0  -0.314645  0  2.293307  0  0  -0.24385  0  2.549368  0  0  -0.260193  0  2.552754  0  0  -0.230528  -0.232308  0  2.54656  0
O  O85  1  0.11531209  0.36047489  0.85762229  1  0  -0.314544  0  2.293193  0  0  -0.243722  0  2.549262  0  0  -0.260058  0  2.552653  0  0  -0.230484  -0.232182  0  2.54645  0
O  O86  1  0.99585290  0.69127152  0.47345623  1  0  -0.626812  0  1.904756  0  0  -0.572045  0  2.130836  0  0  -0.597791  0  2.122092  0  0  -0.325757  -0.553813  0  2.136087  0
O  O87  1  0.00414698  0.30873363  0.52654659  1  0  -0.626851  0  1.904794  0  0  -0.572038  0  2.13092  0  0  -0.597785  0  2.122172  0  0  -0.325766  -0.553809  0  2.136171  0
O  O88  1  0.04871901  0.78861577  0.58657833  1  0  -0.673901  0  2.010076  0  0  -0.602808  0  2.243616  0  0  -0.632198  0  2.232805  0  0  -0.331588  -0.582113  0  2.250343  0
O  O89  1  0.95128126  0.21138271  0.41343065  1  0  -0.673961  0  2.010041  0  0  -0.602856  0  2.243656  0  0  -0.632246  0  2.232845  0  0  -0.331588  -0.582164  0  2.250378  0
O  O90  1  0.71813304  0.93858584  0.60190891  1  0  -0.66808  0  1.96442  0  0  -0.604589  0  2.185355  0  0  -0.631367  0  2.173532  0  0  -0.335155  -0.585699  0  2.192779  0
O  O91  1  0.28186970  0.06141172  0.39809285  1  0  -0.668034  0  1.964465  0  0  -0.604553  0  2.185387  0  0  -0.63133  0  2.173565  0  0  -0.335137  -0.585664  0  2.192807  0
O  O92  1  0.70505680  0.90794129  0.81102182  1  0  -0.626205  0  1.93539  0  0  -0.563217  0  2.17038  0  0  -0.591698  0  2.16336  0  0  -0.325672  -0.543077  0  2.174292  0
O  O93  1  0.29494463  0.09205723  0.18897901  1  0  -0.62616  0  1.935355  0  0  -0.563202  0  2.170343  0  0  -0.59168  0  2.163329  0  0  -0.325687  -0.543071  0  2.174269  0
O  O94  1  0.94012880  0.00792541  0.35985095  1  0  -0.83357  0  1.855704  0  0  -0.77051  0  2.034599  0  0  -0.793762  0  2.003359  0  0  -0.588062  -0.754031  0  2.056302  0
O  O95  1  0.05987254  0.99207500  0.64014998  1  0  -0.833518  0  1.855708  0  0  -0.770452  0  2.034592  0  0  -0.793704  0  2.003353  0  0  -0.588023  -0.753973  0  2.056291  0
