# generated using pymatgen
data_CdH8C12(NO2)2
_symmetry_space_group_name_H-M   'P 1'
_cell_length_a   9.90661572
_cell_length_b   10.61029868
_cell_length_c   12.41980000
_cell_angle_alpha   90.00000000
_cell_angle_beta   112.46185797
_cell_angle_gamma   90.00000000
_symmetry_Int_Tables_number   1
_chemical_formula_structural   CdH8C12(NO2)2
_chemical_formula_sum   'Cd4 H32 C48 N8 O16'
_cell_volume   1206.43107728
_cell_formula_units_Z   4
loop_
 _symmetry_equiv_pos_site_id
 _symmetry_equiv_pos_as_xyz
  1  'x, y, z'
loop_
 _atom_site_type_symbol
 _atom_site_label
 _atom_site_symmetry_multiplicity
 _atom_site_fract_x
 _atom_site_fract_y
 _atom_site_fract_z
 _atom_site_occupancy
 _atom_site_hle17_bader_spin_density
 _atom_site_hle17_ddec_charge
 _atom_site_hle17_ddec_spin_density
 _atom_site_hle17_ddec_sum_bond_order
 _atom_site_hle17_magmom
 _atom_site_hse06_10hf_bader_spin_density
 _atom_site_hse06_10hf_ddec_charge
 _atom_site_hse06_10hf_ddec_spin_density
 _atom_site_hse06_10hf_ddec_sum_bond_order
 _atom_site_hse06_10hf_magmom
 _atom_site_hse06_bader_spin_density
 _atom_site_hse06_ddec_charge
 _atom_site_hse06_ddec_spin_density
 _atom_site_hse06_ddec_sum_bond_order
 _atom_site_hse06_magmom
 _atom_site_pbe_bader_charge
 _atom_site_pbe_bader_spin_density
 _atom_site_pbe_cm5_charge
 _atom_site_pbe_ddec_charge
 _atom_site_pbe_ddec_spin_density
 _atom_site_pbe_ddec_sum_bond_order
 _atom_site_pbe_magmom
Cd  Cd0  1  0.82198210  0.89448566  0.94202769  1  0  1.140987  0  1.707268  0  0  0.950705  0  2.162299  0  0  1.010845  0  2.108156  0  1.293825  0  0.786379  0.90778  0  2.199433  0
Cd  Cd1  1  0.17801668  0.39448842  0.55796984  1  0  1.140974  0  1.70719  0  0  0.950699  0  2.162207  0  0  1.010837  0  2.108065  0  1.293744  0  0.786371  0.907774  0  2.199338  0
Cd  Cd2  1  0.17801668  0.10551164  0.05797226  1  0  1.14098  0  1.707188  0  0  0.950711  0  2.162209  0  0  1.010851  0  2.108065  0  1.293778  0  0.786382  0.907786  0  2.199341  0
Cd  Cd3  1  0.82198210  0.60551264  0.44202930  1  0  1.140985  0  1.707212  0  0  0.950707  0  2.162229  0  0  1.010844  0  2.108087  0  1.293765  0  0.786373  0.907777  0  2.19937  0
H  H4  1  0.24158275  0.55675624  0.36401405  1  0  0.076653  0  0.945404  0  0  0.087663  0  1.006185  0  0  0.089777  0  1.004279  0  0.109298  0  0.115226  0.08603  0  1.007624  0
H  H5  1  0.75842477  0.05675429  0.13598293  1  0  0.076644  0  0.945428  0  0  0.087642  0  1.006218  0  0  0.089759  0  1.004312  0  0.109269  0  0.115199  0.086028  0  1.007637  0
H  H6  1  0.75841930  0.44324294  0.63598368  1  0  0.076655  0  0.945422  0  0  0.087633  0  1.006236  0  0  0.089744  0  1.004326  0  0.109289  0  0.115206  0.085982  0  1.007694  0
H  H7  1  0.24157728  0.94324112  0.86401319  1  0  0.076644  0  0.94541  0  0  0.087625  0  1.006227  0  0  0.089735  0  1.004316  0  0.10928  0  0.115192  0.085969  0  1.00769  0
H  H8  1  0.39706648  0.73629973  0.34553199  1  0  0.105206  0  0.952768  0  0  0.115993  0  1.010078  0  0  0.118671  0  1.01032  0  0.066562  0  0.108161  0.114031  0  1.010103  0
H  H9  1  0.60294759  0.23630155  0.15446940  1  0  0.105214  0  0.952848  0  0  0.116048  0  1.010118  0  0  0.118726  0  1.010361  0  0.066584  0  0.108188  0.114083  0  1.01014  0
H  H10  1  0.60293885  0.26369851  0.65446915  1  0  0.105226  0  0.952746  0  0  0.116005  0  1.01007  0  0  0.118681  0  1.010315  0  0.066677  0  0.108163  0.114043  0  1.010092  0
H  H11  1  0.39705883  0.76369669  0.84553047  1  0  0.10523  0  0.952774  0  0  0.116022  0  1.010077  0  0  0.1187  0  1.010323  0  0.066637  0  0.108156  0.114058  0  1.0101  0
H  H12  1  0.57598539  0.83418952  0.52757025  1  0  0.116561  0  0.922151  0  0  0.129213  0  0.976547  0  0  0.132335  0  0.973527  0  0.123634  0  0.118304  0.12692  0  0.978655  0
H  H13  1  0.42402103  0.33419229  0.97243283  1  0  0.116493  0  0.922068  0  0  0.129183  0  0.976442  0  0  0.132309  0  0.973418  0  0.123844  0  0.118285  0.12689  0  0.97855  0
H  H14  1  0.42401884  0.16580589  0.47243136  1  0  0.116546  0  0.922107  0  0  0.129224  0  0.976488  0  0  0.13235  0  0.973464  0  0.12383  0  0.11829  0.126931  0  0.978597  0
H  H15  1  0.57598211  0.66580689  0.02756684  1  0  0.116563  0  0.922142  0  0  0.12922  0  0.976532  0  0  0.132345  0  0.973508  0  0.123752  0  0.118287  0.126928  0  0.978641  0
H  H16  1  0.43466435  0.56623288  0.72422151  1  0  0.096595  0  0.943254  0  0  0.102631  0  1.009804  0  0  0.106525  0  1.005498  0  0.167913  0  0.117514  0.099778  0  1.012877  0
H  H17  1  0.56533443  0.06623188  0.77577602  1  0  0.09658  0  0.943212  0  0  0.102669  0  1.009726  0  0  0.106564  0  1.005418  0  0.167881  0  0.117524  0.099816  0  1.012792  0
H  H18  1  0.56533334  0.43376536  0.27577650  1  0  0.09662  0  0.943214  0  0  0.102686  0  1.009747  0  0  0.106581  0  1.005439  0  0.16799  0  0.117549  0.09983  0  1.012813  0
H  H19  1  0.43466762  0.93376730  0.22422170  1  0  0.096665  0  0.943242  0  0  0.102643  0  1.009845  0  0  0.106537  0  1.00554  0  0.167946  0  0.117523  0.099794  0  1.012912  0
H  H20  1  0.12933639  0.81300633  0.63468564  1  0  0.070114  0  0.92708  0  0  0.082316  0  0.985973  0  0  0.08443  0  0.984223  0  0.056165  0  0.112575  0.080691  0  0.987387  0
H  H21  1  0.87065801  0.31300815  0.86531136  1  0  0.07012  0  0.927023  0  0  0.082302  0  0.985942  0  0  0.0844  0  0.984211  0  0.056328  0  0.112555  0.080678  0  0.987354  0
H  H22  1  0.87066238  0.18699474  0.36531511  1  0  0.070068  0  0.927118  0  0  0.082229  0  0.986055  0  0  0.084358  0  0.984289  0  0.056374  0  0.112549  0.080606  0  0.987464  0
H  H23  1  0.12933639  0.68699386  0.13468725  1  0  0.070051  0  0.927072  0  0  0.082231  0  0.985997  0  0  0.084337  0  0.984257  0  0.056151  0  0.112554  0.080608  0  0.987408  0
H  H24  1  0.25266626  0.99761659  0.58304907  1  0  0.122369  0  0.950865  0  0  0.130602  0  1.009755  0  0  0.134947  0  1.007798  0  0.137543  0  0.107376  0.127467  0  1.011333  0
H  H25  1  0.74732924  0.49761653  0.91694988  1  0  0.122343  0  0.950844  0  0  0.130583  0  1.009729  0  0  0.134928  0  1.007773  0  0.137475  0  0.107373  0.127445  0  1.011311  0
H  H26  1  0.74733252  0.00238448  0.41695249  1  0  0.122365  0  0.950826  0  0  0.13059  0  1.009728  0  0  0.134935  0  1.007772  0  0.137568  0  0.107366  0.127452  0  1.011311  0
H  H27  1  0.25266626  0.50238360  0.08305068  1  0  0.1224  0  0.950821  0  0  0.130615  0  1.009728  0  0  0.134959  0  1.007771  0  0.137548  0  0.107392  0.127477  0  1.011313  0
H  H28  1  0.19343550  0.04528619  0.37073899  1  0  0.121129  0  0.936537  0  0  0.129835  0  0.997793  0  0  0.133679  0  0.993875  0  0.152141  0  0.113753  0.126878  0  1.000925  0
H  H29  1  0.80655781  0.54528437  0.12926010  1  0  0.121211  0  0.936471  0  0  0.129853  0  0.997794  0  0  0.133698  0  0.993875  0  0.152141  0  0.11374  0.126895  0  1.000926  0
H  H30  1  0.80655563  0.95472147  0.62926346  1  0  0.121175  0  0.936528  0  0  0.12988  0  0.997787  0  0  0.133726  0  0.993869  0  0.152199  0  0.113768  0.126923  0  1.000921  0
H  H31  1  0.19343987  0.45471670  0.87074113  1  0  0.121201  0  0.936506  0  0  0.129872  0  0.9978  0  0  0.133718  0  0.99388  0  0.152168  0  0.113755  0.126916  0  1.000931  0
H  H32  1  0.91298988  0.72113804  0.28647807  1  0  0.084202  0  0.978271  0  0  0.089035  0  1.048794  0  0  0.092374  0  1.045103  0  0.119505  0  0.113316  0.086541  0  1.051601  0
H  H33  1  0.08700889  0.22114175  0.21351946  1  0  0.084215  0  0.978299  0  0  0.089046  0  1.048825  0  0  0.092382  0  1.045137  0  0.119571  0  0.11331  0.086552  0  1.051632  0
H  H34  1  0.08700889  0.27886585  0.71352268  1  0  0.084154  0  0.978302  0  0  0.089008  0  1.048812  0  0  0.092345  0  1.045122  0  0.119547  0  0.113314  0.086514  0  1.051621  0
H  H35  1  0.91298988  0.77886026  0.78647968  1  0  0.084181  0  0.978301  0  0  0.089015  0  1.048835  0  0  0.092352  0  1.045147  0  0.119529  0  0.113294  0.086522  0  1.051643  0
C  C36  1  0.32070527  0.60273327  0.44054822  1  0  0.138418  0  3.705879  0  0  0.10281  0  3.96188  0  0  0.111341  0  3.980938  0  0.455464  0  0.047367  0.097449  0  3.948911  0
C  C37  1  0.67930224  0.10273415  0.05944956  1  0  0.138498  0  3.706125  0  0  0.102903  0  3.962132  0  0  0.11143  0  3.981192  0  0.455602  0  0.04743  0.097529  0  3.949151  0
C  C38  1  0.67929787  0.39726403  0.55945226  1  0  0.138419  0  3.70581  0  0  0.102841  0  3.961802  0  0  0.111378  0  3.980851  0  0.455502  0  0.047402  0.097494  0  3.948837  0
C  C39  1  0.32070200  0.89726221  0.94054802  1  0  0.138465  0  3.70588  0  0  0.102873  0  3.961896  0  0  0.111414  0  3.980942  0  0.455314  0  0.047422  0.097534  0  3.948928  0
C  C40  1  0.40682176  0.70209805  0.43077119  1  0  -0.122168  0  3.738432  0  0  -0.132877  0  3.993891  0  0  -0.141715  0  4.016398  0  0.081147  0  -0.082549  -0.127349  0  3.978688  0
C  C41  1  0.59318794  0.20210081  0.06922887  1  0  -0.122145  0  3.73875  0  0  -0.132913  0  3.99422  0  0  -0.14175  0  4.016732  0  0.081239  0  -0.082518  -0.12738  0  3.979018  0
C  C42  1  0.59318138  0.29789831  0.56922768  1  0  -0.122163  0  3.738523  0  0  -0.13287  0  3.993991  0  0  -0.141708  0  4.016501  0  0.081121  0  -0.082544  -0.127341  0  3.978786  0
C  C43  1  0.40681630  0.79789837  0.93077033  1  0  -0.122182  0  3.738614  0  0  -0.132887  0  3.994046  0  0  -0.141726  0  4.016553  0  0.081299  0  -0.082513  -0.127351  0  3.978832  0
C  C44  1  0.50642699  0.75655080  0.53186671  1  0  0.016377  0  3.653574  0  0  -0.014959  0  3.901245  0  0  -0.008018  0  3.916678  0  -0.064349  0  -0.050622  -0.018958  0  3.89037  0
C  C45  1  0.49358270  0.25654980  0.96813173  1  0  0.016453  0  3.653751  0  0  -0.014907  0  3.901437  0  0  -0.007972  0  3.916877  0  -0.064472  0  -0.050613  -0.018904  0  3.890558  0
C  C46  1  0.49358161  0.24344744  0.46813462  1  0  0.016435  0  3.653681  0  0  -0.014932  0  3.901366  0  0  -0.007996  0  3.91681  0  -0.064706  0  -0.050585  -0.018932  0  3.890493  0
C  C47  1  0.50642044  0.74344655  0.03186472  1  0  0.016315  0  3.653803  0  0  -0.015022  0  3.901476  0  0  -0.008084  0  3.916914  0  -0.064644  0  -0.050631  -0.019022  0  3.890601  0
C  C48  1  0.51817462  0.70850692  0.63995660  1  0  -0.103778  0  3.741486  0  0  -0.077069  0  3.976494  0  0  -0.089856  0  3.999724  0  -0.00428  0  -0.01102  -0.0692  0  3.961096  0
C  C49  1  0.48183399  0.20850780  0.86004956  1  0  -0.103788  0  3.741588  0  0  -0.077091  0  3.97663  0  0  -0.089875  0  3.99986  0  -0.004087  0  -0.011069  -0.069219  0  3.961226  0
C  C50  1  0.48182962  0.29149038  0.36004501  1  0  -0.103893  0  3.741616  0  0  -0.077181  0  3.976618  0  0  -0.089973  0  3.999859  0  -0.00391  0  -0.011106  -0.069309  0  3.961216  0
C  C51  1  0.51817134  0.79149139  0.13995319  1  0  -0.103735  0  3.741565  0  0  -0.077051  0  3.976552  0  0  -0.089838  0  3.999784  0  -0.003859  0  -0.011078  -0.069178  0  3.961154  0
C  C52  1  0.42838584  0.60778685  0.64203949  1  0  0.111341  0  3.68411  0  0  0.070556  0  3.933082  0  0  0.079118  0  3.950998  0  0.443926  0  0.049749  0.065054  0  3.921068  0
C  C53  1  0.57161294  0.10779056  0.85795723  1  0  0.11136  0  3.683946  0  0  0.070516  0  3.932939  0  0  0.079078  0  3.950851  0  0.443904  0  0.049711  0.065003  0  3.920948  0
C  C54  1  0.57161075  0.39220856  0.35795898  1  0  0.111396  0  3.683994  0  0  0.070572  0  3.932981  0  0  0.079132  0  3.950897  0  0.443478  0  0.049751  0.065068  0  3.920975  0
C  C55  1  0.42838693  0.89220957  0.14203741  1  0  0.111263  0  3.684235  0  0  0.070545  0  3.933191  0  0  0.079106  0  3.951106  0  0.443626  0  0.049776  0.065037  0  3.921187  0
C  C56  1  0.11028787  0.83456934  0.54401842  1  0  0.140197  0  3.69803  0  0  0.105591  0  3.960068  0  0  0.114065  0  3.978417  0  0.470632  0  0.04898  0.100249  0  3.947339  0
C  C57  1  0.88970981  0.33456834  0.95598280  1  0  0.140215  0  3.698112  0  0  0.10561  0  3.960161  0  0  0.114096  0  3.978507  0  0.470707  0  0.049031  0.100271  0  3.947428  0
C  C58  1  0.88970981  0.16543361  0.45598602  1  0  0.140358  0  3.698105  0  0  0.105782  0  3.960127  0  0  0.114246  0  3.978476  0  0.470465  0  0.049062  0.100441  0  3.947395  0
C  C59  1  0.11028678  0.66543179  0.04401729  1  0  0.14036  0  3.698197  0  0  0.10576  0  3.960223  0  0  0.11424  0  3.97857  0  0.470607  0  0.049029  0.10042  0  3.947492  0
C  C60  1  0.17822967  0.93717531  0.51508479  1  0  -0.127338  0  3.710154  0  0  -0.137922  0  3.964765  0  0  -0.147102  0  3.986832  0  -0.029216  0  -0.083161  -0.131814  0  3.949637  0
C  C61  1  0.82176364  0.43717619  0.98491269  1  0  -0.127374  0  3.710115  0  0  -0.137953  0  3.964701  0  0  -0.147132  0  3.986762  0  -0.029102  0  -0.083212  -0.131846  0  3.949574  0
C  C62  1  0.82176692  0.06282858  0.48491852  1  0  -0.127459  0  3.710222  0  0  -0.138032  0  3.964828  0  0  -0.147215  0  3.986902  0  -0.029049  0  -0.083196  -0.131924  0  3.9497  0
C  C63  1  0.17823076  0.56282581  0.01508753  1  0  -0.127381  0  3.710047  0  0  -0.137939  0  3.964652  0  0  -0.147118  0  3.986716  0  -0.02906  0  -0.083142  -0.131834  0  3.949526  0
C  C64  1  0.14479563  0.96486822  0.39754280  1  0  -0.000509  0  3.649834  0  0  -0.028408  0  3.894368  0  0  -0.022191  0  3.910788  0  -0.011494  0  -0.055848  -0.032141  0  3.883239  0
C  C65  1  0.85520205  0.46486533  0.10245682  1  0  -0.00063  0  3.650134  0  0  -0.028471  0  3.89467  0  0  -0.022254  0  3.91109  0  -0.011688  0  -0.05586  -0.032203  0  3.88354  0
C  C66  1  0.85519986  0.03514133  0.60245857  1  0  -0.000561  0  3.650151  0  0  -0.028461  0  3.894673  0  0  -0.022241  0  3.911085  0  -0.011876  0  -0.055892  -0.032191  0  3.883537  0
C  C67  1  0.14479673  0.53513479  0.89754152  1  0  -0.000657  0  3.650037  0  0  -0.028533  0  3.89457  0  0  -0.022316  0  3.910989  0  -0.01169  0  -0.055898  -0.032264  0  3.883439  0
C  C68  1  0.04480592  0.88712300  0.31392136  1  0  -0.120832  0  3.766134  0  0  -0.09316  0  3.999595  0  0  -0.106709  0  4.02325  0  -0.057118  0  -0.018778  -0.084649  0  3.983899  0
C  C69  1  0.95518958  0.38712859  0.18607839  1  0  -0.12073  0  3.766064  0  0  -0.093077  0  3.999523  0  0  -0.106627  0  4.023182  0  -0.057127  0  -0.018749  -0.084566  0  3.983824  0
C  C70  1  0.95518740  0.11288278  0.68607853  1  0  -0.1208  0  3.766121  0  0  -0.093122  0  3.999578  0  0  -0.106673  0  4.023236  0  -0.057139  0  -0.018766  -0.084611  0  3.98388  0
C  C71  1  0.04480919  0.61287530  0.81392397  1  0  -0.120779  0  3.76619  0  0  -0.0931  0  3.999652  0  0  -0.106647  0  4.02331  0  -0.0571  0  -0.018784  -0.084588  0  3.983955  0
C  C72  1  0.98810806  0.78357926  0.35154616  1  0  0.112208  0  3.724397  0  0  0.073779  0  3.970669  0  0  0.082025  0  3.989132  0  0.519822  0  0.042774  0.068426  0  3.958381  0
C  C73  1  0.01189399  0.28357826  0.14845238  1  0  0.112042  0  3.724087  0  0  0.073622  0  3.970369  0  0  0.081867  0  3.988832  0  0.519871  0  0.042712  0.06827  0  3.958083  0
C  C74  1  0.01188962  0.21642369  0.64845426  1  0  0.11222  0  3.724267  0  0  0.073769  0  3.970551  0  0  0.082017  0  3.989012  0  0.519952  0  0.04274  0.068417  0  3.958265  0
C  C75  1  0.98810587  0.71642281  0.85154710  1  0  0.112155  0  3.724181  0  0  0.073715  0  3.970457  0  0  0.081958  0  3.98892  0  0.519841  0  0.042759  0.068362  0  3.958172  0
C  C76  1  0.98272086  0.90870863  0.18531558  1  0  0.644926  0  3.945276  0  0  0.592789  0  4.236624  0  0  0.628744  0  4.229439  0  1.53977  0  0.200519  0.568469  0  4.240486  0
C  C77  1  0.01728010  0.40871328  0.31468262  1  0  0.644843  0  3.945379  0  0  0.59272  0  4.236723  0  0  0.628678  0  4.229544  0  1.54013  0  0.200475  0.568402  0  4.240581  0
C  C78  1  0.01727682  0.09129055  0.81468565  1  0  0.644926  0  3.945124  0  0  0.592785  0  4.236481  0  0  0.628742  0  4.229294  0  1.539869  0  0.200572  0.568468  0  4.240336  0
C  C79  1  0.98271977  0.59129061  0.68531685  1  0  0.64489  0  3.945276  0  0  0.59274  0  4.236652  0  0  0.628695  0  4.229467  0  1.539845  0  0.2005  0.568423  0  4.240508  0
C  C80  1  0.62303925  0.76387199  0.75161565  1  0  0.626103  0  3.966314  0  0  0.576333  0  4.25942  0  0  0.611201  0  4.2541  0  1.573119  0  0.191359  0.552829  0  4.262121  0
C  C81  1  0.37695953  0.26387476  0.74838430  1  0  0.626082  0  3.966279  0  0  0.576322  0  4.259386  0  0  0.611193  0  4.254065  0  1.573127  0  0.191438  0.552819  0  4.262083  0
C  C82  1  0.37696062  0.23612530  0.24838383  1  0  0.626033  0  3.966316  0  0  0.576304  0  4.259372  0  0  0.611173  0  4.254053  0  1.573318  0  0.191407  0.5528  0  4.262071  0
C  C83  1  0.62304143  0.73612725  0.25161551  1  0  0.625992  0  3.966387  0  0  0.576254  0  4.259467  0  0  0.611123  0  4.254147  0  1.573291  0  0.191381  0.552749  0  4.262166  0
N  N84  1  0.33067683  0.55674493  0.54433108  1  0  -0.34131  0  3.272782  0  0  -0.262847  0  3.545288  0  0  -0.284803  0  3.565345  0  -1.249813  0  -0.330106  -0.247976  0  3.531296  0
N  N85  1  0.66932741  0.05674393  0.95566651  1  0  -0.341437  0  3.272773  0  0  -0.262949  0  3.545277  0  0  -0.284906  0  3.565339  0  -1.250312  0  -0.330144  -0.248076  0  3.53129  0
N  N86  1  0.66932522  0.44325425  0.45566745  1  0  -0.341361  0  3.272574  0  0  -0.262882  0  3.545067  0  0  -0.28484  0  3.565131  0  -1.249794  0  -0.330134  -0.248007  0  3.531064  0
N  N87  1  0.33067464  0.94325243  0.04433202  1  0  -0.341315  0  3.272768  0  0  -0.262856  0  3.545237  0  0  -0.284811  0  3.565292  0  -1.249853  0  -0.330134  -0.247983  0  3.531237  0
N  N88  1  0.01750948  0.75737453  0.46338133  1  0  -0.336037  0  3.231009  0  0  -0.266866  0  3.498793  0  0  -0.286673  0  3.518042  0  -1.226642  0  -0.328681  -0.253297  0  3.485578  0
N  N89  1  0.98248493  0.25737824  0.03661487  1  0  -0.335905  0  3.231025  0  0  -0.266734  0  3.498822  0  0  -0.286539  0  3.518065  0  -1.226861  0  -0.328638  -0.253166  0  3.485604  0
N  N90  1  0.98248820  0.24262748  0.53661909  1  0  -0.336037  0  3.231009  0  0  -0.266869  0  3.498805  0  0  -0.286679  0  3.518061  0  -1.22671  0  -0.328684  -0.253301  0  3.48559  0
N  N91  1  0.01751276  0.74262471  0.96338555  1  0  -0.336036  0  3.231076  0  0  -0.266866  0  3.498899  0  0  -0.286671  0  3.518144  0  -1.22672  0  -0.328682  -0.253297  0  3.485684  0
O  O92  1  0.67425256  0.87348908  0.74563911  1  0  -0.642105  0  1.984818  0  0  -0.578279  0  2.226922  0  0  -0.608388  0  2.216873  0  -1.15914  0  -0.329433  -0.557086  0  2.233016  0
O  O93  1  0.32574840  0.37348996  0.75436150  1  0  -0.642065  0  1.984972  0  0  -0.578232  0  2.227063  0  0  -0.608339  0  2.217014  0  -1.159174  0  -0.329426  -0.557042  0  2.233159  0
O  O94  1  0.32574730  0.12650634  0.25436278  1  0  -0.64206  0  1.984769  0  0  -0.578243  0  2.226848  0  0  -0.608353  0  2.216799  0  -1.159191  0  -0.329438  -0.557052  0  2.232945  0
O  O95  1  0.67425147  0.62650734  0.24563797  1  0  -0.642072  0  1.984841  0  0  -0.578254  0  2.226928  0  0  -0.608363  0  2.216878  0  -1.159191  0  -0.329441  -0.557059  0  2.23302  0
O  O96  1  0.86923694  0.84290276  0.12865548  1  0  -0.628131  0  2.0041  0  0  -0.56553  0  2.256773  0  0  -0.595997  0  2.247696  0  -1.138153  0  -0.326051  -0.544174  0  2.262274  0
O  O97  1  0.13076948  0.34291118  0.37134278  1  0  -0.628102  0  2.004218  0  0  -0.565517  0  2.256911  0  0  -0.595959  0  2.247772  0  -1.138475  0  -0.32603  -0.54416  0  2.262409  0
O  O98  1  0.13076621  0.15709454  0.87134500  1  0  -0.628191  0  2.004105  0  0  -0.565592  0  2.256784  0  0  -0.596056  0  2.247701  0  -1.138153  0  -0.326094  -0.544233  0  2.262278  0
O  O99  1  0.86923148  0.65709083  0.62865703  1  0  -0.628137  0  2.004185  0  0  -0.565536  0  2.256875  0  0  -0.595991  0  2.247768  0  -1.138175  0  -0.326038  -0.544178  0  2.26237  0
O  O100  1  0.65572179  0.70255515  0.84569716  1  0  -0.636169  0  1.923601  0  0  -0.581816  0  2.153848  0  0  -0.609174  0  2.145679  0  -1.176682  0  -0.325039  -0.562704  0  2.158731  0
O  O101  1  0.34427262  0.20255415  0.65430065  1  0  -0.636164  0  1.923481  0  0  -0.581816  0  2.153725  0  0  -0.609178  0  2.145561  0  -1.176655  0  -0.325069  -0.562701  0  2.158605  0
O  O102  1  0.34427480  0.29744026  0.15430293  1  0  -0.636121  0  1.923648  0  0  -0.581793  0  2.153885  0  0  -0.609151  0  2.145716  0  -1.176878  0  -0.325059  -0.562681  0  2.158767  0
O  O103  1  0.65572834  0.79744503  0.34569513  1  0  -0.636124  0  1.923664  0  0  -0.581772  0  2.153889  0  0  -0.609128  0  2.145721  0  -1.176813  0  -0.325032  -0.562658  0  2.158772  0
O  O104  1  0.03655909  0.98941230  0.13817745  1  0  -0.664995  0  2.088698  0  0  -0.600109  0  2.361153  0  0  -0.62945  0  2.348251  0  -1.193495  0  -0.332054  -0.579242  0  2.369225  0
O  O105  1  0.96343531  0.48940752  0.36182036  1  0  -0.664962  0  2.088741  0  0  -0.600068  0  2.361175  0  0  -0.629412  0  2.348272  0  -1.193549  0  -0.332013  -0.579201  0  2.369245  0
O  O106  1  0.96343422  0.01059442  0.86182083  1  0  -0.664926  0  2.088641  0  0  -0.600024  0  2.361077  0  0  -0.629365  0  2.348172  0  -1.193553  0  -0.332029  -0.579159  0  2.369146  0
O  O107  1  0.03656783  0.51059637  0.63818172  1  0  -0.664944  0  2.088627  0  0  -0.600036  0  2.361059  0  0  -0.629378  0  2.348156  0  -1.193491  0  -0.332032  -0.579169  0  2.369129  0
