# generated using pymatgen
data_UCuH8C12N4O11
_symmetry_space_group_name_H-M   'P 1'
_cell_length_a   9.32276459
_cell_length_b   11.80218971
_cell_length_c   15.62263662
_cell_angle_alpha   89.99960120
_cell_angle_beta   99.80926541
_cell_angle_gamma   89.99893727
_symmetry_Int_Tables_number   1
_chemical_formula_structural   UCuH8C12N4O11
_chemical_formula_sum   'U4 Cu4 H32 C48 N16 O44'
_cell_volume   1693.81331583
_cell_formula_units_Z   4
loop_
 _symmetry_equiv_pos_site_id
 _symmetry_equiv_pos_as_xyz
  1  'x, y, z'
loop_
 _atom_site_type_symbol
 _atom_site_label
 _atom_site_symmetry_multiplicity
 _atom_site_fract_x
 _atom_site_fract_y
 _atom_site_fract_z
 _atom_site_occupancy
 _atom_site_pbe_cm5_charge
 _atom_site_pbe_ddec_charge
 _atom_site_pbe_ddec_spin_density
 _atom_site_pbe_ddec_sum_bond_order
 _atom_site_pbe_magmom
U  U0  1  0.75685375  0.63789445  0.42767417  1  2.186987  2.416966  -0.0043  4.811415  -0.002
U  U1  1  0.74312808  0.13789599  0.57231880  1  2.187051  2.416993  -0.004083  4.811695  -0.002
U  U2  1  0.24313792  0.36209871  0.57233447  1  2.187078  2.416809  -0.004034  4.811603  -0.002
U  U3  1  0.25688287  0.86209887  0.42767185  1  2.186936  2.416701  0.004649  4.812106  0.002
Cu  Cu4  1  0.07939002  0.48363341  0.18051004  1  0.756839  0.767753  -0.739695  2.370992  -0.563
Cu  Cu5  1  0.42059261  0.98363432  0.81947980  1  0.756763  0.767665  -0.740016  2.371257  -0.564
Cu  Cu6  1  0.92057547  0.51635636  0.81949288  1  0.756616  0.767691  -0.739229  2.370406  -0.563
Cu  Cu7  1  0.57940639  0.01634529  0.18051098  1  0.756647  0.767766  0.787309  2.370628  0.563
H  H8  1  0.27408372  0.59526665  0.29935851  1  0.295104  0.395387  4.1e-05  0.937079  0.0
H  H9  1  0.22591123  0.09527233  0.70064227  1  0.295139  0.395458  -2.6e-05  0.93699  0.0
H  H10  1  0.72590562  0.40472905  0.70064030  1  0.295147  0.395483  -2.6e-05  0.936934  0.0
H  H11  1  0.77410867  0.90472592  0.29936461  1  0.295148  0.395533  -3.6e-05  0.93691  0.0
H  H12  1  0.31439188  0.62346579  0.20809361  1  0.285447  0.379556  0.000424  0.965071  0.0
H  H13  1  0.18559698  0.12346951  0.79191156  1  0.285437  0.379525  -0.000341  0.965128  0.0
H  H14  1  0.68559319  0.37651551  0.79190991  1  0.285461  0.379579  -0.000342  0.965089  0.0
H  H15  1  0.81441529  0.87652281  0.20809394  1  0.285501  0.379569  -0.000402  0.965104  0.0
H  H16  1  0.95065787  0.34011408  0.31417807  1  0.1374  0.123184  -0.001305  0.977956  -0.002
H  H17  1  0.54935485  0.84011487  0.68582895  1  0.137373  0.123074  -0.001302  0.978344  -0.002
H  H18  1  0.04932716  0.65990027  0.68582288  1  0.137469  0.12335  -0.001299  0.977804  -0.002
H  H19  1  0.45067712  0.15989270  0.31418549  1  0.137396  0.123184  0.001386  0.977974  0.002
H  H20  1  0.92475615  0.12582769  0.33055409  1  0.13056  0.151297  -0.000341  0.970627  0.0
H  H21  1  0.57529470  0.62583503  0.66945391  1  0.130556  0.151291  -0.000341  0.970582  0.0
H  H22  1  0.07526728  0.87418751  0.66946977  1  0.130483  0.151276  -0.00034  0.970758  0.0
H  H23  1  0.42474785  0.37417932  0.33054171  1  0.130512  0.151256  0.000361  0.970789  0.0
H  H24  1  0.04735642  0.00178807  0.23394552  1  0.130886  0.098803  -0.000275  0.982625  -0.001
H  H25  1  0.45267457  0.50178646  0.76605219  1  0.130893  0.09882  -0.000264  0.982538  -0.001
H  H26  1  0.95261779  0.99822628  0.76605888  1  0.13084  0.098759  -0.000254  0.982577  0.0
H  H27  1  0.54738317  0.49821094  0.23394233  1  0.130897  0.098859  0.000283  0.982628  0.0
H  H28  1  0.21558067  0.56681008  0.02509492  1  0.13014  0.105006  -0.001576  1.007814  -0.003
H  H29  1  0.28442030  0.06679964  0.97489635  1  0.130134  0.104922  -0.001695  1.007994  -0.003
H  H30  1  0.78443779  0.43322969  0.97495919  1  0.130051  0.104806  -0.001353  1.008126  -0.002
H  H31  1  0.71553761  0.93321386  0.02503862  1  0.130147  0.104948  0.001596  1.007922  0.002
H  H32  1  0.37707352  0.46961339  0.93419710  1  0.115326  0.127134  -0.000457  1.021776  0.0
H  H33  1  0.12291719  0.96961632  0.06579999  1  0.115302  0.127094  -0.000473  1.021584  0.0
H  H34  1  0.62285267  0.53043061  0.06579436  1  0.115313  0.12718  -0.000239  1.021718  0.0
H  H35  1  0.87711454  0.03041243  0.93419906  1  0.115377  0.127256  0.000281  1.021831  0.0
H  H36  1  0.42354878  0.25856226  0.96015889  1  0.117945  0.098134  -0.000533  1.031501  -0.001
H  H37  1  0.07645275  0.75856019  0.03983589  1  0.117945  0.098137  -0.00053  1.031492  -0.001
H  H38  1  0.57644384  0.74150038  0.03984087  1  0.117919  0.098327  -5e-05  1.031411  0.0
H  H39  1  0.92353761  0.24147788  0.96015919  1  0.117921  0.09821  0.00011  1.031444  0.0
C  C40  1  0.76366349  0.36441706  0.45419706  1  0.235901  0.509737  4e-06  4.219709  0.0
C  C41  1  0.73634203  0.86441812  0.54580594  1  0.236016  0.509792  -1.1e-05  4.219827  0.0
C  C42  1  0.23634327  0.63557610  0.54580343  1  0.235899  0.509812  -1.9e-05  4.21977  0.0
C  C43  1  0.26365504  0.13557928  0.45420066  1  0.235869  0.509759  5e-06  4.219732  0.0
C  C44  1  0.75074547  0.41170458  0.54378471  1  0.246017  0.518197  3e-06  4.180867  0.0
C  C45  1  0.74925887  0.91171051  0.45622112  1  0.246141  0.518322  -1.8e-05  4.18135  0.0
C  C46  1  0.24925156  0.58828096  0.45621932  1  0.246013  0.518277  4.3e-05  4.180656  0.0
C  C47  1  0.25074580  0.08828519  0.54378493  1  0.246023  0.518263  -2.4e-05  4.180877  0.0
C  C48  1  0.88773979  0.62433756  0.24167319  1  0.233718  0.502075  0.002119  4.151899  0.004
C  C49  1  0.61226324  0.12434012  0.75833278  1  0.233617  0.501709  0.002114  4.151833  0.004
C  C50  1  0.11225840  0.37565307  0.75833544  1  0.233627  0.501971  0.002107  4.15222  0.004
C  C51  1  0.38772938  0.87564796  0.24166699  1  0.233649  0.501998  -0.001766  4.151986  -0.004
C  C52  1  0.92901138  0.68669893  0.16191496  1  0.209786  0.465382  0.000482  4.220485  0.001
C  C53  1  0.57100034  0.18669458  0.83805373  1  0.210024  0.465665  0.000479  4.220467  0.001
C  C54  1  0.07094735  0.31328237  0.83807194  1  0.209689  0.46521  0.000476  4.220968  0.001
C  C55  1  0.42903106  0.81327401  0.16192416  1  0.20977  0.465191  -0.000223  4.220596  -0.001
C  C56  1  0.99892687  0.27898119  0.27506042  1  0.082894  0.159851  -5.5e-05  3.841674  0.001
C  C57  1  0.50109718  0.77898910  0.72494482  1  0.082867  0.159965  4.3e-05  3.841916  0.001
C  C58  1  0.00107787  0.72102977  0.72495012  1  0.082828  0.159729  3.6e-05  3.841714  0.001
C  C59  1  0.49892920  0.22101593  0.27505948  1  0.082882  0.159862  0.000358  3.841514  -0.001
C  C60  1  0.98570411  0.16240372  0.28371518  1  -0.056095  -0.134002  -0.004979  3.850112  -0.006
C  C61  1  0.51432842  0.66241152  0.71629406  1  -0.0562  -0.13421  -0.004894  3.850213  -0.006
C  C62  1  0.01431601  0.83760978  0.71630580  1  -0.055959  -0.133834  -0.004857  3.850419  -0.006
C  C63  1  0.48570003  0.33759605  0.28370404  1  -0.056019  -0.133871  0.005271  3.850343  0.006
C  C64  1  0.05400545  0.09385824  0.22975994  1  0.083322  0.161658  0.002739  3.886824  0.002
C  C65  1  0.44601568  0.59385839  0.77024465  1  0.083277  0.161594  0.002807  3.8871  0.003
C  C66  1  0.94598186  0.90615611  0.77024828  1  0.083237  0.161457  0.002807  3.886791  0.003
C  C67  1  0.55401936  0.40614240  0.22975728  1  0.083184  0.161334  -0.002571  3.887111  -0.002
C  C68  1  0.13343332  0.24910627  0.16510571  1  0.250555  0.26595  0.001986  4.029864  0.002
C  C69  1  0.36656744  0.74910189  0.83489417  1  0.250588  0.265939  0.002031  4.029875  0.002
C  C70  1  0.86656373  0.75090045  0.83489961  1  0.250593  0.266021  0.002047  4.029842  0.002
C  C71  1  0.63342729  0.25088280  0.16510196  1  0.250471  0.26588  -0.001722  4.030168  -0.002
C  C72  1  0.20687818  0.30556929  0.09913466  1  0.251837  0.270108  0.000801  4.002683  0.0
C  C73  1  0.29313309  0.80555859  0.90086529  1  0.251864  0.270271  0.000863  4.002628  0.0
C  C74  1  0.79314947  0.69445522  0.90088129  1  0.251842  0.270015  0.001022  4.002397  0.001
C  C75  1  0.70683862  0.19443711  0.09911838  1  0.251962  0.270202  -0.000729  4.002737  -0.001
C  C76  1  0.23981430  0.47657068  0.03187057  1  0.084767  0.168541  -0.000209  3.852626  0.001
C  C77  1  0.26019803  0.97656747  0.96813048  1  0.084728  0.168537  -0.000402  3.85286  0.001
C  C78  1  0.76018302  0.52346569  0.96815205  1  0.084921  0.16843  8.8e-05  3.853151  0.001
C  C79  1  0.73979205  0.02345112  0.03184600  1  0.0848  0.168499  0.000454  3.852998  -0.001
C  C80  1  0.32980793  0.42227145  0.98240024  1  -0.068515  -0.154342  -0.004806  3.891552  -0.006
C  C81  1  0.17020134  0.92227245  0.01759377  1  -0.068471  -0.154176  -0.004972  3.891108  -0.006
C  C82  1  0.67013799  0.57775985  0.01760208  1  -0.068367  -0.154027  -0.004529  3.890938  -0.005
C  C83  1  0.82983246  0.07774444  0.98239844  1  -0.068416  -0.154225  0.004966  3.891282  0.005
C  C84  1  0.35392526  0.30666808  0.99657932  1  0.069844  0.145125  0.001753  3.89155  0.002
C  C85  1  0.14608154  0.80665262  0.00341442  1  0.069842  0.144987  0.001717  3.891612  0.001
C  C86  1  0.64606192  0.69338439  0.00342056  1  0.069867  0.144756  0.002223  3.892194  0.002
C  C87  1  0.85391633  0.19336512  0.99657369  1  0.069876  0.144914  -0.001925  3.891903  -0.002
N  N88  1  0.07177568  0.32162778  0.21509009  1  -0.339128  -0.304693  -0.05673  3.594395  -0.073
N  N89  1  0.42822867  0.82163398  0.78491038  1  -0.33916  -0.304775  -0.056837  3.594161  -0.073
N  N90  1  0.92821812  0.67836708  0.78491555  1  -0.339114  -0.304849  -0.056735  3.593919  -0.073
N  N91  1  0.57177584  0.17835410  0.21508541  1  -0.339178  -0.304911  0.06039  3.59428  0.073
N  N92  1  0.17955408  0.41812576  0.09026404  1  -0.342589  -0.289055  -0.059889  3.566384  -0.076
N  N93  1  0.32045971  0.91812136  0.90973427  1  -0.342466  -0.289023  -0.059878  3.566092  -0.076
N  N94  1  0.82044873  0.58188519  0.90976232  1  -0.342585  -0.288999  -0.059716  3.566487  -0.076
N  N95  1  0.67953687  0.08187519  0.09024092  1  -0.342543  -0.289183  0.063617  3.566913  0.076
N  N96  1  0.29221529  0.24782196  0.05463303  1  -0.294542  -0.295142  -0.010272  3.273817  -0.012
N  N97  1  0.20778873  0.74782650  0.94536461  1  -0.29465  -0.295243  -0.009866  3.274528  -0.012
N  N98  1  0.70782335  0.75219408  0.94539101  1  -0.294538  -0.294864  -0.008702  3.274971  -0.01
N  N99  1  0.79216108  0.25217683  0.05460864  1  -0.294643  -0.295024  0.009767  3.274693  0.011
N  N100  1  0.12830070  0.13650260  0.17060743  1  -0.294269  -0.297992  -0.009179  3.264525  -0.011
N  N101  1  0.37171810  0.63650074  0.82938774  1  -0.294147  -0.297777  -0.009  3.26477  -0.011
N  N102  1  0.87167230  0.86350243  0.82938917  1  -0.294261  -0.297934  -0.008953  3.264572  -0.011
N  N103  1  0.62832014  0.36349073  0.17061002  1  -0.294198  -0.297827  0.009737  3.264371  0.011
O  O104  1  0.95133167  0.64105839  0.46201668  1  -0.745234  -0.69104  -0.000111  1.923939  0.0
O  O105  1  0.54869701  0.14105969  0.53798847  1  -0.745593  -0.690802  -0.000106  1.925206  0.0
O  O106  1  0.04867209  0.35894240  0.53800081  1  -0.745342  -0.690862  -0.000108  1.924274  0.0
O  O107  1  0.45130624  0.85893263  0.46199568  1  -0.745698  -0.690759  0.00011  1.925489  0.0
O  O108  1  0.56313850  0.62860115  0.39212675  1  -0.753541  -0.680485  1.1e-05  1.863016  0.0
O  O109  1  0.93689476  0.12860122  0.60787313  1  -0.753158  -0.680714  2.4e-05  1.862111  0.0
O  O110  1  0.43686502  0.37139117  0.60787534  1  -0.753542  -0.680581  2.2e-05  1.862765  0.0
O  O111  1  0.06310765  0.87139364  0.39212758  1  -0.753095  -0.680626  -1.1e-05  1.862029  0.0
O  O112  1  0.77116945  0.43774605  0.39569306  1  -0.333108  -0.564303  -0.000316  2.329366  0.0
O  O113  1  0.72883851  0.93773565  0.60430850  1  -0.333183  -0.564281  -0.000226  2.329567  0.0
O  O114  1  0.22883840  0.56225898  0.60430753  1  -0.33304  -0.564196  -0.00022  2.329566  0.0
O  O115  1  0.27115961  0.06225582  0.39569564  1  -0.333156  -0.564337  0.000329  2.329385  0.0
O  O116  1  0.76275958  0.25796737  0.44601470  1  -0.325635  -0.544047  -9.9e-05  2.272244  0.0
O  O117  1  0.73724100  0.75796071  0.55398455  1  -0.325691  -0.544157  -1.7e-05  2.272041  0.0
O  O118  1  0.23724605  0.74203342  0.55398312  1  -0.325709  -0.544206  4.6e-05  2.272028  0.0
O  O119  1  0.26274732  0.24203160  0.44601865  1  -0.325598  -0.544087  4.6e-05  2.272202  0.0
O  O120  1  0.73842787  0.51757821  0.55059602  1  -0.326904  -0.528956  -1.2e-05  2.266747  0.0
O  O121  1  0.76158327  0.01756791  0.44940553  1  -0.327009  -0.52909  -6.8e-05  2.267741  0.0
O  O122  1  0.26156700  0.48241919  0.44940909  1  -0.326811  -0.528888  2.3e-05  2.267149  0.0
O  O123  1  0.23842894  0.98241594  0.55059612  1  -0.326791  -0.528842  3.4e-05  2.266825  0.0
O  O124  1  0.75155219  0.33942787  0.60390426  1  -0.319988  -0.541095  -7.6e-05  2.378803  0.0
O  O125  1  0.74844957  0.83942506  0.39609531  1  -0.319989  -0.541099  -9e-05  2.378444  0.0
O  O126  1  0.24844472  0.66056275  0.39609208  1  -0.32003  -0.54114  0.0001  2.378203  0.0
O  O127  1  0.25154745  0.16056217  0.60390809  1  -0.320047  -0.541139  -7.7e-05  2.378628  0.0
O  O128  1  0.79127871  0.66511610  0.28082759  1  -0.346971  -0.554342  -0.010022  2.31547  -0.013
O  O129  1  0.70874161  0.16508882  0.71916958  1  -0.346978  -0.554196  -0.009985  2.315326  -0.013
O  O130  1  0.20872279  0.33487791  0.71918456  1  -0.346946  -0.554304  -0.009981  2.315535  -0.013
O  O131  1  0.29125397  0.83486792  0.28081127  1  -0.346858  -0.55427  0.010678  2.315582  0.013
O  O132  1  0.95420120  0.53190328  0.26285545  1  -0.283584  -0.471939  -0.067795  2.391646  -0.094
O  O133  1  0.54579520  0.03188074  0.73713117  1  -0.283482  -0.471771  -0.067869  2.390595  -0.094
O  O134  1  0.04581125  0.46810514  0.73716159  1  -0.283538  -0.471951  -0.067736  2.391661  -0.094
O  O135  1  0.45418941  0.96809548  0.26284351  1  -0.283596  -0.471925  0.072163  2.391463  0.094
O  O136  1  0.00550933  0.62587988  0.11806174  1  -0.321278  -0.520483  -0.056007  2.366116  -0.079
O  O137  1  0.49447605  0.12588080  0.88193348  1  -0.32122  -0.520424  -0.056173  2.36491  -0.079
O  O138  1  0.99439387  0.37405991  0.88191983  1  -0.320923  -0.519994  -0.055824  2.366018  -0.078
O  O139  1  0.50560050  0.87405814  0.11808141  1  -0.320964  -0.520078  0.059682  2.365781  0.078
O  O140  1  0.88877573  0.78569196  0.14362608  1  -0.28396  -0.467197  -0.014795  2.195567  -0.02
O  O141  1  0.61121515  0.28568516  0.85635417  1  -0.284062  -0.467292  -0.014982  2.195943  -0.02
O  O142  1  0.11118271  0.21426985  0.85634288  1  -0.284091  -0.46741  -0.014771  2.195752  -0.02
O  O143  1  0.38878502  0.71427496  0.14364185  1  -0.284166  -0.467421  0.015851  2.195817  0.02
O  O144  1  0.28179970  0.56048179  0.24272498  1  -0.600004  -0.790687  -0.000596  2.123056  -0.002
O  O145  1  0.21820490  0.06048112  0.75727948  1  -0.600025  -0.790704  -0.001968  2.123109  -0.003
O  O146  1  0.71818533  0.43951222  0.75727598  1  -0.600025  -0.790811  -0.001965  2.123098  -0.003
O  O147  1  0.78182480  0.93950950  0.24272834  1  -0.600074  -0.79082  0.000715  2.122939  0.002
