# generated using pymatgen
data_CuH13C18N3O4
_symmetry_space_group_name_H-M   'P 1'
_cell_length_a   11.07682844
_cell_length_b   14.29952488
_cell_length_c   17.19337901
_cell_angle_alpha   89.99989120
_cell_angle_beta   90.00003233
_cell_angle_gamma   89.99995012
_symmetry_Int_Tables_number   1
_chemical_formula_structural   CuH13C18N3O4
_chemical_formula_sum   'Cu4 H52 C72 N12 O16'
_cell_volume   2723.31748136
_cell_formula_units_Z   4
loop_
 _symmetry_equiv_pos_site_id
 _symmetry_equiv_pos_as_xyz
  1  'x, y, z'
loop_
 _atom_site_type_symbol
 _atom_site_label
 _atom_site_symmetry_multiplicity
 _atom_site_fract_x
 _atom_site_fract_y
 _atom_site_fract_z
 _atom_site_occupancy
 _atom_site_pbe_bader_charge
 _atom_site_pbe_bader_spin_density
 _atom_site_pbe_cm5_charge
 _atom_site_pbe_ddec_charge
 _atom_site_pbe_ddec_spin_density
 _atom_site_pbe_ddec_sum_bond_order
 _atom_site_pbe_magmom
Cu  Cu0  1  0.00000006  0.15260681  0.01402523  1  1.097606  0.572241  0.750831  0.79858  0.733965  2.194673  0.569
Cu  Cu1  1  0.99999996  0.84739346  0.98597481  1  1.097613  0.572239  0.750818  0.798564  0.733962  2.194616  0.569
Cu  Cu2  1  0.99999999  0.65260540  0.48597569  1  1.097613  0.572246  0.750796  0.798567  0.733969  2.194602  0.569
Cu  Cu3  1  0.00000003  0.34739487  0.51402376  1  1.097596  0.572245  0.750794  0.798556  0.733969  2.194637  0.569
H  H4  1  0.00000003  0.10082060  0.20719421  1  0.107201  7.9e-05  0.098387  0.124749  2.2e-05  1.05059  0.0
H  H5  1  0.99999998  0.89918178  0.79280524  1  0.107232  7.9e-05  0.098353  0.124735  2.2e-05  1.050641  0.0
H  H6  1  0.99999993  0.60081929  0.29280603  1  0.107203  7.9e-05  0.098357  0.124708  2.2e-05  1.050607  0.0
H  H7  1  0.00000099  0.39918098  0.70719401  1  0.107229  7.9e-05  0.098352  0.124754  2.2e-05  1.050593  0.0
H  H8  1  0.00000054  0.98998623  0.44107250  1  0.096308  3e-06  0.101841  0.119404  -2.4e-05  1.032673  0.0
H  H9  1  0.00000024  0.01001508  0.55892968  1  0.096691  3e-06  0.101875  0.119498  -2.4e-05  1.032615  0.0
H  H10  1  0.99999989  0.48998441  0.05892713  1  0.096634  3e-06  0.101867  0.119458  -2.4e-05  1.03267  0.0
H  H11  1  0.99999936  0.51001483  0.94107308  1  0.096282  3e-06  0.10187  0.11948  -2.4e-05  1.032729  0.0
H  H12  1  0.00000056  0.80260121  0.24636688  1  0.018924  0.000975  0.09171  0.096059  0.000798  1.067178  0.0
H  H13  1  0.99999946  0.19740116  0.75363083  1  0.018884  0.000975  0.091708  0.096088  0.000798  1.067206  0.0
H  H14  1  0.00000008  0.30260033  0.25363246  1  0.018888  0.000975  0.091721  0.096073  0.000798  1.067252  0.0
H  H15  1  0.99999917  0.69740030  0.74636834  1  0.018895  0.000975  0.09172  0.096065  0.000798  1.067248  0.0
H  H16  1  0.81165228  0.21689960  0.90903711  1  0.146615  0.001562  0.126365  0.103571  0.000651  1.000406  0.001
H  H17  1  0.81165341  0.78310047  0.09096362  1  0.146593  0.001562  0.126363  0.10357  0.000651  1.000381  0.001
H  H18  1  0.18834619  0.71690000  0.59096417  1  0.146557  0.001562  0.126343  0.103538  0.000651  1.000394  0.001
H  H19  1  0.18834545  0.28309908  0.40903575  1  0.146551  0.001562  0.12635  0.103565  0.000651  1.000346  0.001
H  H20  1  0.18834683  0.78309928  0.09096350  1  0.146597  0.001562  0.126367  0.103564  0.000652  1.000393  0.001
H  H21  1  0.18834661  0.21689981  0.90903642  1  0.146597  0.001562  0.126364  0.103584  0.000652  1.000363  0.001
H  H22  1  0.81165473  0.28309957  0.40903587  1  0.146556  0.001562  0.126352  0.103558  0.000651  1.000363  0.001
H  H23  1  0.81165367  0.71689979  0.59096370  1  0.146561  0.001562  0.12635  0.103559  0.000651  1.000378  0.001
H  H24  1  0.81496253  0.07845464  0.12005211  1  0.143464  0.002008  0.1269  0.107198  0.000927  1.00069  0.001
H  H25  1  0.81496329  0.92154542  0.87994803  1  0.143456  0.002008  0.126902  0.107199  0.000927  1.000707  0.001
H  H26  1  0.18503746  0.57845439  0.37994816  1  0.143452  0.002008  0.126905  0.107217  0.000927  1.000668  0.001
H  H27  1  0.18503766  0.42154540  0.62005176  1  0.143529  0.002008  0.1269  0.107168  0.000927  1.000725  0.001
H  H28  1  0.18503749  0.92154563  0.87994792  1  0.143537  0.002008  0.12689  0.107189  0.000927  1.00069  0.001
H  H29  1  0.18503673  0.07845415  0.12005258  1  0.143522  0.002008  0.126915  0.107229  0.000927  1.000633  0.001
H  H30  1  0.81496165  0.42154589  0.62005187  1  0.143471  0.002008  0.126899  0.107182  0.000927  1.000727  0.001
H  H31  1  0.81496326  0.57845417  0.37994769  1  0.143444  0.002008  0.126896  0.1072  0.000927  1.000686  0.001
H  H32  1  0.58874371  0.21795496  0.90406655  1  0.077175  0.000994  0.11237  0.11665  0.000529  1.00246  0.0
H  H33  1  0.58874484  0.78204456  0.09593293  1  0.087109  0.000956  0.112355  0.116647  0.000529  1.002437  0.0
H  H34  1  0.41125566  0.71795520  0.59593356  1  0.077087  0.000994  0.11239  0.116686  0.000529  1.002464  0.0
H  H35  1  0.41125492  0.28204513  0.40406586  1  0.087157  0.000956  0.112384  0.116678  0.000529  1.002456  0.0
H  H36  1  0.41125631  0.78204462  0.09593290  1  0.077164  0.000994  0.112364  0.116637  0.000529  1.002465  0.0
H  H37  1  0.41125518  0.21795432  0.90406652  1  0.08718  0.000956  0.11236  0.11666  0.000529  1.002493  0.0
H  H38  1  0.58874435  0.28204507  0.40406589  1  0.077156  0.000994  0.112385  0.116672  0.000529  1.002453  0.0
H  H39  1  0.58874419  0.71795584  0.59593359  1  0.08709  0.000956  0.112391  0.116686  0.000529  1.002442  0.0
H  H40  1  0.59118097  0.07134189  0.12478646  1  0.109425  0.001212  0.111152  0.115251  0.000651  1.002356  0.001
H  H41  1  0.59118172  0.92865693  0.87521361  1  0.109477  0.001212  0.111135  0.115237  0.000651  1.002339  0.001
H  H42  1  0.40881813  0.57134289  0.37521383  1  0.118304  0.00117  0.111145  0.115263  0.000651  1.002322  0.001
H  H43  1  0.40881832  0.42865744  0.62478501  1  0.10942  0.001212  0.111141  0.115254  0.000651  1.002359  0.001
H  H44  1  0.40881815  0.92865699  0.87521416  1  0.118305  0.00117  0.111142  0.115255  0.000651  1.002327  0.001
H  H45  1  0.40881830  0.07134195  0.12478643  1  0.11825  0.00117  0.111128  0.11524  0.000652  1.002344  0.001
H  H46  1  0.59118189  0.42865738  0.62478562  1  0.11823  0.00117  0.11114  0.115253  0.000651  1.002345  0.001
H  H47  1  0.59118170  0.57134353  0.37521386  1  0.109487  0.001212  0.111138  0.115225  0.000651  1.002378  0.001
H  H48  1  0.00000003  0.20348261  0.32440669  1  0.42902  0.000187  0.290728  0.290423  0.000197  1.000413  0.0
H  H49  1  0.00000075  0.79652010  0.67559316  1  0.42905  0.000187  0.290773  0.290475  0.000197  1.000364  0.0
H  H50  1  0.99999982  0.70348158  0.17559397  1  0.429032  0.000187  0.290711  0.29042  0.000197  1.000438  0.0
H  H51  1  0.99999943  0.29651836  0.82440625  1  0.429031  0.000187  0.290752  0.290456  0.000197  1.000392  0.0
H  H52  1  0.00000010  0.15672011  0.41758330  1  0.521945  9e-05  0.290886  0.318605  9.3e-05  1.017313  0.0
H  H53  1  0.00000068  0.84328050  0.58241597  1  0.521765  9e-05  0.290913  0.318625  9.3e-05  1.017264  0.0
H  H54  1  0.99999981  0.65671929  0.08241627  1  0.521816  9e-05  0.290903  0.318634  9.3e-05  1.017241  0.0
H  H55  1  0.99999945  0.34328065  0.91758336  1  0.521826  9e-05  0.290921  0.318626  9.3e-05  1.017269  0.0
C  C56  1  0.00000043  0.93962617  0.13121605  1  1.494761  -0.00157  0.195845  0.563755  -0.002207  4.218715  -0.004
C  C57  1  0.99999959  0.06037340  0.86878515  1  1.4948  -0.00157  0.195835  0.563684  -0.002207  4.218769  -0.004
C  C58  1  0.00000006  0.43962713  0.36878598  1  1.49493  -0.001569  0.196136  0.564331  -0.002207  4.218293  -0.004
C  C59  1  0.00000010  0.56037420  0.63121481  1  1.494803  -0.00157  0.196176  0.564371  -0.002207  4.218269  -0.004
C  C60  1  0.00000047  0.95066560  0.21813206  1  0.037928  0.009687  -0.038413  -0.036883  0.006877  4.063963  0.008
C  C61  1  0.99999955  0.04933537  0.78186681  1  0.037942  0.009689  -0.038377  -0.03672  0.006878  4.063822  0.008
C  C62  1  0.00000001  0.45066536  0.28186938  1  0.037974  0.009688  -0.03836  -0.036893  0.006877  4.063655  0.008
C  C63  1  0.00000091  0.54933421  0.71813182  1  0.037962  0.009689  -0.038392  -0.036887  0.006878  4.063797  0.008
C  C64  1  0.00000009  0.04196964  0.24765460  1  -0.12854  1.3e-05  -0.113218  -0.24174  -0.000363  3.920112  0.0
C  C65  1  0.99999903  0.95803203  0.75234543  1  -0.128594  1.4e-05  -0.113239  -0.241941  -0.000363  3.920444  0.0
C  C66  1  0.99999995  0.54196843  0.25234515  1  -0.128513  1.3e-05  -0.113226  -0.241753  -0.000363  3.920121  0.0
C  C67  1  0.00000097  0.45803184  0.74765488  1  -0.128527  1.3e-05  -0.113258  -0.241924  -0.000363  3.920298  0.0
C  C68  1  0.00000011  0.05820366  0.32853747  1  0.486146  0.001442  0.09347  0.320729  0.000943  4.133082  0.001
C  C69  1  0.99999900  0.94179382  0.67146547  1  0.486084  0.001442  0.093471  0.320918  0.000943  4.133119  0.001
C  C70  1  0.99999990  0.55820333  0.17146226  1  0.486154  0.001442  0.093435  0.32074  0.000943  4.133004  0.001
C  C71  1  0.00000102  0.44179625  0.82853778  1  0.486158  0.001442  0.093505  0.320816  0.000944  4.132976  0.001
C  C72  1  0.00000052  0.97988947  0.37836639  1  -0.02505  -0.000215  -0.099386  -0.206939  -0.000536  3.892485  0.0
C  C73  1  0.00000026  0.02010835  0.62163637  1  -0.024922  -0.000215  -0.099415  -0.207146  -0.000536  3.892394  0.0
C  C74  1  0.99999993  0.47988889  0.12163267  1  -0.024989  -0.000215  -0.099438  -0.207043  -0.000536  3.892548  0.0
C  C75  1  0.99999933  0.52011104  0.87836754  1  -0.02505  -0.000215  -0.099429  -0.207035  -0.000535  3.892492  0.0
C  C76  1  0.00000056  0.88894172  0.34903657  1  -0.018153  0.008249  -0.030644  -0.018472  0.005783  4.039099  0.007
C  C77  1  0.99999946  0.11105785  0.65096347  1  -0.018136  0.008249  -0.030661  -0.018491  0.005783  4.039008  0.007
C  C78  1  0.99999999  0.38894108  0.15096206  1  -0.018627  0.00825  -0.030548  -0.018369  0.005783  4.039059  0.007
C  C79  1  0.99999927  0.61105885  0.84903816  1  -0.018207  0.008249  -0.030602  -0.01846  0.005783  4.039045  0.007
C  C80  1  0.00000053  0.87361124  0.26856549  1  -0.045025  -0.000563  -0.116387  -0.175474  -0.000631  4.01014  -0.001
C  C81  1  0.99999949  0.12639044  0.73143455  1  -0.045041  -0.000563  -0.116388  -0.175527  -0.000631  4.010182  -0.001
C  C82  1  0.00000003  0.37360901  0.23143432  1  -0.045002  -0.000564  -0.1164  -0.175491  -0.000632  4.010052  -0.001
C  C83  1  0.99999922  0.62639092  0.76856589  1  -0.045005  -0.000564  -0.116394  -0.175462  -0.000632  4.010069  -0.001
C  C84  1  0.00000063  0.80994882  0.40666055  1  1.515648  -0.001602  0.191795  0.560992  -0.002223  4.211254  -0.004
C  C85  1  0.00000015  0.19005319  0.59333755  1  1.515696  -0.001601  0.191723  0.560994  -0.002223  4.211239  -0.004
C  C86  1  0.00000001  0.30994622  0.09333877  1  1.516111  -0.001602  0.191652  0.560862  -0.002223  4.211452  -0.004
C  C87  1  0.00000001  0.69005266  0.90666184  1  1.515674  -0.0016  0.191685  0.560903  -0.002223  4.211346  -0.004
C  C88  1  0.75820832  0.18578384  0.95555503  1  0.456243  -0.001818  0.057018  0.107309  -0.002308  3.918958  -0.001
C  C89  1  0.75820937  0.81421626  0.04444568  1  0.456167  -0.001818  0.057052  0.107382  -0.002308  3.918838  -0.001
C  C90  1  0.24179199  0.68578502  0.54444746  1  0.456227  -0.001818  0.057026  0.107363  -0.002308  3.918828  -0.001
C  C91  1  0.24179126  0.31421543  0.45555306  1  0.456246  -0.001818  0.057025  0.107353  -0.002308  3.918793  -0.001
C  C92  1  0.24179170  0.81421643  0.04444558  1  0.456245  -0.001818  0.057046  0.10734  -0.002308  3.918875  -0.001
C  C93  1  0.24178974  0.18578332  0.95555494  1  0.456185  -0.001818  0.057045  0.107324  -0.002309  3.918992  -0.001
C  C94  1  0.75820893  0.31421596  0.45555316  1  0.456244  -0.001818  0.057042  0.107354  -0.002308  3.918827  -0.001
C  C95  1  0.75820876  0.68578554  0.54444697  1  0.456146  -0.001818  0.057034  0.107339  -0.002308  3.918844  -0.001
C  C96  1  0.75983660  0.10808926  0.07369819  1  0.428367  -0.00088  0.058463  0.113007  -0.001147  3.897638  0.0
C  C97  1  0.75983744  0.89191013  0.92630136  1  0.428211  -0.000881  0.058462  0.113014  -0.001147  3.897594  0.0
C  C98  1  0.24016336  0.60808887  0.42630204  1  0.428136  -0.000881  0.058457  0.112977  -0.001147  3.897606  0.0
C  C99  1  0.24016264  0.39191019  0.57369616  1  0.428255  -0.00088  0.058474  0.113071  -0.001147  3.897736  0.0
C  C100  1  0.24016251  0.89191031  0.92630184  1  0.427943  -0.000881  0.058473  0.113014  -0.001147  3.897567  0.0
C  C101  1  0.24016258  0.10808944  0.07369868  1  0.428137  -0.00088  0.058441  0.112959  -0.001147  3.897539  0.0
C  C102  1  0.75983757  0.39191001  0.57369625  1  0.428165  -0.000881  0.058464  0.11298  -0.001147  3.89778  0.0
C  C103  1  0.75983738  0.60808939  0.42630213  1  0.428251  -0.000881  0.058469  0.113004  -0.001148  3.897608  0.0
C  C104  1  0.63299558  0.18518876  0.95351120  1  -0.013543  0.00407  -0.079813  -0.171341  0.002792  3.94285  0.003
C  C105  1  0.63299664  0.81481212  0.04648946  1  -0.013467  0.00407  -0.079832  -0.171397  0.002792  3.942832  0.003
C  C106  1  0.36700382  0.68518775  0.54649071  1  -0.013494  0.00407  -0.079878  -0.17146  0.002792  3.942939  0.003
C  C107  1  0.36700399  0.31481122  0.45350986  1  -0.013591  0.00407  -0.079898  -0.17149  0.002792  3.942919  0.003
C  C108  1  0.36700443  0.81481151  0.04649000  1  -0.013547  0.00407  -0.079819  -0.171329  0.002792  3.942859  0.003
C  C109  1  0.36700338  0.18518885  0.95351115  1  -0.013524  0.00407  -0.079833  -0.171404  0.002792  3.942904  0.003
C  C110  1  0.63299619  0.31481113  0.45350991  1  -0.013578  0.00407  -0.079877  -0.171463  0.002792  3.942878  0.003
C  C111  1  0.63299693  0.68518766  0.54649017  1  -0.013468  0.00407  -0.079866  -0.171442  0.002792  3.942923  0.003
C  C112  1  0.56687428  0.14406612  0.01427234  1  0.044771  -0.003306  0.010805  0.097615  -0.003712  3.988276  -0.002
C  C113  1  0.56687521  0.85593341  0.98572713  1  0.044759  -0.003306  0.010812  0.097607  -0.003712  3.988229  -0.002
C  C114  1  0.43312564  0.64406615  0.48572841  1  0.044786  -0.003306  0.010793  0.097588  -0.003713  3.988282  -0.002
C  C115  1  0.43312400  0.35593347  0.51426986  1  0.045044  -0.003306  0.010845  0.097681  -0.003712  3.988153  -0.002
C  C116  1  0.43312664  0.85593346  0.98572769  1  -0.109175  -0.003371  0.010767  0.097555  -0.003712  3.988314  -0.002
C  C117  1  0.43312571  0.14406616  0.01427232  1  -0.109198  -0.003371  0.010781  0.097578  -0.003712  3.98826  -0.002
C  C118  1  0.56687529  0.35593342  0.51426988  1  -0.108902  -0.003371  0.010788  0.097643  -0.003712  3.988142  -0.002
C  C119  1  0.56687421  0.64406611  0.48572785  1  -0.109177  -0.003372  0.010811  0.097621  -0.003713  3.988305  -0.002
C  C120  1  0.63451102  0.10466611  0.07519758  1  0.038981  0.004694  -0.080812  -0.173817  0.003207  3.941194  0.004
C  C121  1  0.63451185  0.89533197  0.92480192  1  0.039159  0.004694  -0.080767  -0.173752  0.003207  3.94113  0.004
C  C122  1  0.36548894  0.60466773  0.42480149  1  0.039144  0.004694  -0.080759  -0.173752  0.003207  3.941126  0.004
C  C123  1  0.36548913  0.39533263  0.57519734  1  0.038783  0.004695  -0.080779  -0.173805  0.003208  3.941179  0.004
C  C124  1  0.36548900  0.89533206  0.92480129  1  0.039148  0.004694  -0.080752  -0.173748  0.003207  3.941115  0.004
C  C125  1  0.36548817  0.10466690  0.07519754  1  0.039008  0.004694  -0.080751  -0.173741  0.003207  3.941128  0.004
C  C126  1  0.63451108  0.39533254  0.57519738  1  0.038796  0.004695  -0.08078  -0.173794  0.003208  3.941164  0.004
C  C127  1  0.63451089  0.60466694  0.42480154  1  0.039142  0.004695  -0.080777  -0.173744  0.003207  3.941189  0.004
N  N128  1  0.82090638  0.14746475  0.01447886  1  -1.210919  0.075425  -0.337965  -0.201546  0.050606  3.583767  0.065
N  N129  1  0.82090731  0.85253461  0.98552071  1  -1.210706  0.075426  -0.33799  -0.201606  0.050607  3.583679  0.065
N  N130  1  0.17909263  0.64746495  0.48552130  1  -1.210604  0.075427  -0.33794  -0.20151  0.050608  3.583563  0.065
N  N131  1  0.17909371  0.35253554  0.51447861  1  -1.210833  0.075427  -0.337931  -0.201553  0.050608  3.583751  0.065
N  N132  1  0.17909364  0.85253413  0.98552117  1  -1.210558  0.075425  -0.337996  -0.201588  0.050606  3.583673  0.065
N  N133  1  0.17909270  0.14746496  0.01447933  1  -1.210728  0.075426  -0.337966  -0.201536  0.050607  3.583802  0.065
N  N134  1  0.82090649  0.35253532  0.51447815  1  -1.210694  0.075428  -0.337951  -0.201493  0.050608  3.583755  0.065
N  N135  1  0.82090721  0.64746473  0.48552142  1  -1.210659  0.075427  -0.337957  -0.20153  0.050608  3.58358  0.065
N  N136  1  0.00000008  0.14638208  0.35887931  1  -1.290428  0.000957  -0.607176  -0.642383  0.000595  3.37842  0.001
N  N137  1  0.00000070  0.85361994  0.64112054  1  -1.290342  0.000957  -0.607198  -0.642424  0.000595  3.378545  0.001
N  N138  1  0.99999984  0.64638042  0.14112027  1  -1.290294  0.000957  -0.607148  -0.642429  0.000595  3.378407  0.001
N  N139  1  0.99999942  0.35361952  0.85887936  1  -1.290315  0.000957  -0.607211  -0.642425  0.000595  3.378526  0.001
O  O140  1  0.00000047  0.85496675  0.10398529  1  -1.113634  0.119575  -0.323921  -0.559118  0.076168  2.356249  0.107
O  O141  1  0.99999955  0.14503283  0.89601591  1  -1.11363  0.11958  -0.323934  -0.559132  0.076172  2.356277  0.107
O  O142  1  0.00000012  0.35496904  0.39601514  1  -1.11374  0.119558  -0.324098  -0.559437  0.076158  2.356431  0.107
O  O143  1  0.00000004  0.64503089  0.60398566  1  -1.113622  0.119556  -0.324137  -0.559467  0.076156  2.356347  0.107
O  O144  1  0.00000003  0.01075970  0.08854105  1  -1.192591  0.002747  -0.326662  -0.606306  0.000858  2.370392  0.004
O  O145  1  0.99999999  0.98923988  0.91145782  1  -1.192198  0.002747  -0.326625  -0.606234  0.000857  2.370477  0.004
O  O146  1  0.00000003  0.51076511  0.41146224  1  -1.192722  0.002749  -0.326795  -0.606566  0.00086  2.370168  0.004
O  O147  1  0.00000012  0.48923482  0.58853914  1  -1.192262  0.002751  -0.326769  -0.606534  0.00086  2.37018  0.004
O  O148  1  0.99999990  0.72482820  0.38088402  1  -1.10668  0.119248  -0.32715  -0.548564  0.075958  2.238907  0.106
O  O149  1  0.00000012  0.27517347  0.61911485  1  -1.106671  0.119242  -0.327114  -0.54849  0.075955  2.238944  0.106
O  O150  1  0.00000007  0.22482728  0.11911504  1  -1.106709  0.119232  -0.327102  -0.548463  0.075949  2.239122  0.106
O  O151  1  0.99999995  0.77517230  0.88088499  1  -1.106671  0.119241  -0.327104  -0.548458  0.075955  2.239  0.106
O  O152  1  0.99999989  0.82830566  0.47843544  1  -1.19193  0.000688  -0.331491  -0.58519  -0.000665  2.227633  0.002
O  O153  1  0.00000013  0.17169602  0.52156285  1  -1.19204  0.000688  -0.331481  -0.585252  -0.000665  2.227494  0.002
O  O154  1  0.99999997  0.32830495  0.02156346  1  -1.192013  0.000689  -0.331453  -0.585194  -0.000664  2.227486  0.002
O  O155  1  0.00000005  0.67169462  0.97843658  1  -1.192036  0.000689  -0.331464  -0.585205  -0.000664  2.227494  0.002
