# generated using pymatgen
data_Zn5H40C36N2O19
_symmetry_space_group_name_H-M   'P 1'
_cell_length_a   13.64511322
_cell_length_b   14.24734688
_cell_length_c   14.63789035
_cell_angle_alpha   76.11682961
_cell_angle_beta   86.46068192
_cell_angle_gamma   68.05820213
_symmetry_Int_Tables_number   1
_chemical_formula_structural   Zn5H40C36N2O19
_chemical_formula_sum   'Zn10 H80 C72 N4 O38'
_cell_volume   2561.22949582
_cell_formula_units_Z   2
loop_
 _symmetry_equiv_pos_site_id
 _symmetry_equiv_pos_as_xyz
  1  'x, y, z'
loop_
 _atom_site_type_symbol
 _atom_site_label
 _atom_site_symmetry_multiplicity
 _atom_site_fract_x
 _atom_site_fract_y
 _atom_site_fract_z
 _atom_site_occupancy
 _atom_site_pbe_bader_charge
 _atom_site_pbe_bader_spin_density
 _atom_site_pbe_cm5_charge
 _atom_site_pbe_ddec_charge
 _atom_site_pbe_ddec_spin_density
 _atom_site_pbe_ddec_sum_bond_order
 _atom_site_pbe_magmom
Zn  Zn0  1  0.66687606  0.14266760  0.22900205  1  1.318675  0  0.684752  0.918936  0  2.340009  0
Zn  Zn1  1  0.01427148  0.37237380  0.13993548  1  1.298367  0  0.676727  0.854293  0  2.295042  0
Zn  Zn2  1  0.84754097  0.24302159  0.22521406  1  1.333486  0  0.693844  0.948608  0  2.30259  0
Zn  Zn3  1  0.26284283  0.23462041  0.10845741  1  1.368742  0  0.660936  0.960496  0  2.208601  0
Zn  Zn4  1  0.51260455  0.05176794  0.12518903  1  1.281162  0  0.673917  0.828326  0  2.304318  0
Zn  Zn5  1  0.33312406  0.85733258  0.77099797  1  1.318667  0  0.684766  0.918977  0  2.339968  0
Zn  Zn6  1  0.98572863  0.62762638  0.86006386  1  1.298361  0  0.676726  0.854284  0  2.295036  0
Zn  Zn7  1  0.15245915  0.75697859  0.77478665  1  1.333464  0  0.693833  0.948609  0  2.302585  0
Zn  Zn8  1  0.73715729  0.76537976  0.89154193  1  1.368747  0  0.66095  0.960521  0  2.208524  0
Zn  Zn9  1  0.48739483  0.94823223  0.87481103  1  1.281153  0  0.67392  0.828323  0  2.304304  0
H  H10  1  0.87325199  0.55721933  0.01352703  1  0.652802  0  0.289458  0.341142  0  1.00977  0
H  H11  1  0.63561211  0.92831962  0.00424148  1  0.636652  0  0.28929  0.339112  0  1.008222  0
H  H12  1  0.43352288  0.20743272  0.21625891  1  0.633263  0  0.28278  0.366198  0  0.982708  0
H  H13  1  0.32444907  0.23474559  0.26876203  1  0.639972  0  0.278313  0.363901  0  0.993285  0
H  H14  1  0.66588913  0.53560869  0.07216811  1  0.124497  0  0.112146  0.124749  0  1.010881  0
H  H15  1  0.74280382  0.95613077  0.50867593  1  0.116971  0  0.103599  0.110268  0  1.020072  0
H  H16  1  0.12712264  0.54390844  0.08378555  1  0.041264  0  0.091863  0.057854  0  1.010878  0
H  H17  1  0.25483528  0.45132704  0.12551188  1  0.053047  0  0.098737  0.076926  0  1.005933  0
H  H18  1  0.17927445  0.06396579  0.94100745  1  0.132003  0  0.109244  0.121992  0  1.021768  0
H  H19  1  0.35509416  0.93001289  0.10212407  1  0.033057  0  0.09266  0.060564  0  0.994331  0
H  H20  1  0.25036309  0.01237644  0.15899074  1  0.060254  0  0.098202  0.076918  0  0.994104  0
H  H21  1  0.93246456  0.91467318  0.74855129  1  0.130006  0  0.104814  0.10971  0  1.049487  0
H  H22  1  0.18778390  0.38236146  0.27305691  1  0.080202  0  0.110879  0.101639  0  1.006689  0
H  H23  1  0.14665352  0.51984505  0.25649513  1  0.020399  0  0.097159  0.078044  0  0.969993  0
H  H24  1  0.72276699  0.84073613  0.18896087  1  0.01804  0  0.09696  0.06138  0  0.980885  0
H  H25  1  0.70026141  0.77806208  0.10519121  1  0.096318  0  0.104586  0.079593  0  1.05689  0
H  H26  1  0.92125842  0.30398772  0.39180095  1  0.044745  0  0.093047  0.062039  0  0.988759  0
H  H27  1  0.84094460  0.42243572  0.31641577  1  0.007208  0  0.083809  0.036349  0  1.00386  0
H  H28  1  0.44897012  0.06476681  0.34642313  1  0.076031  0  0.092906  0.063048  0  1.017243  0
H  H29  1  0.58209665  0.02820841  0.38476606  1  0.058882  0  0.099136  0.077014  0  0.98891  0
H  H30  1  0.79184213  0.17545278  0.88352262  1  0.059178  0  0.09993  0.096992  0  1.018168  0
H  H31  1  0.53451848  0.87297206  0.38339757  1  0.035559  0  0.102961  0.084762  0  0.962411  0
H  H32  1  0.64453448  0.88063656  0.31441253  1  0.036366  0  0.109237  0.090103  0  0.982316  0
H  H33  1  0.86167955  0.27045668  0.97064302  1  0.112015  0  0.105527  0.106719  0  1.020097  0
H  H34  1  0.91912366  0.15362209  0.49854982  1  0.091704  0  0.103435  0.10377  0  1.013278  0
H  H35  1  0.34373897  0.75087308  0.03256955  1  0.110207  0  0.103467  0.105819  0  1.023861  0
H  H36  1  0.99020698  0.05841598  0.66256741  1  0.054866  0  0.100596  0.102724  0  0.999769  0
H  H37  1  0.91706885  0.01899669  0.83428086  1  0.082954  0  0.104328  0.10078  0  1.040911  0
H  H38  1  0.36337208  0.98817773  0.28967696  1  0.052324  0  0.107375  0.088716  0  1.022744  0
H  H39  1  0.38133875  0.86294641  0.27451636  1  0.025441  0  0.101781  0.084701  0  0.96238  0
H  H40  1  0.41525162  0.42826392  0.17669267  1  0.109911  0  0.106157  0.115208  0  1.016135  0
H  H41  1  0.51624236  0.81722373  0.14653160  1  0.058238  0  0.107942  0.091401  0  1.013421  0
H  H42  1  0.59597419  0.75235713  0.25128995  1  0.024809  0  0.101334  0.082598  0  0.964008  0
H  H43  1  0.80020627  0.54285335  0.19711712  1  0.018351  0  0.093552  0.055138  0  1.000768  0
H  H44  1  0.81028723  0.65375131  0.11586509  1  0.08784  0  0.102298  0.071218  0  1.046761  0
H  H45  1  0.91835369  0.60375164  0.26784725  1  0.025061  0  0.097956  0.073017  0  0.978687  0
H  H46  1  0.98768383  0.61472040  0.16136502  1  0.054628  0  0.106565  0.086574  0  1.010163  0
H  H47  1  0.98387912  0.45193726  0.38371930  1  0.009364  0  0.093614  0.067481  0  0.983197  0
H  H48  1  0.08026052  0.33755575  0.35666298  1  0.062547  0  0.108601  0.098033  0  0.997441  0
H  H49  1  0.28233441  0.60890480  0.11858933  1  0.051616  0  0.099402  0.093251  0  1.032496  0
H  H50  1  0.12674813  0.44278085  0.98647230  1  0.65274  0  0.28946  0.341147  0  1.009757  0
H  H51  1  0.36438800  0.07168055  0.99575785  1  0.636655  0  0.289283  0.33908  0  1.00822  0
H  H52  1  0.56647621  0.79256823  0.78374030  1  0.633235  0  0.282769  0.366172  0  0.982746  0
H  H53  1  0.67555031  0.76525459  0.73123803  1  0.63962  0  0.278331  0.363907  0  0.993285  0
H  H54  1  0.33411098  0.46439148  0.92783259  1  0.124486  0  0.112154  0.124763  0  1.01086  0
H  H55  1  0.25719629  0.04386940  0.49132477  1  0.116966  0  0.103593  0.110271  0  1.020079  0
H  H56  1  0.87287777  0.45609096  0.91621463  1  0.041261  0  0.09186  0.057867  0  1.010814  0
H  H57  1  0.74516483  0.54867313  0.87448814  1  0.053043  0  0.098725  0.076907  0  1.005959  0
H  H58  1  0.82072567  0.93603438  0.05899188  1  0.131996  0  0.109284  0.122055  0  1.021723  0
H  H59  1  0.64490625  0.06998650  0.89787680  1  0.033057  0  0.09265  0.060569  0  0.994307  0
H  H60  1  0.74963732  0.98762296  0.84100945  1  0.060243  0  0.098259  0.077029  0  0.994186  0
H  H61  1  0.06753511  0.08532622  0.25144962  1  0.130016  0  0.104816  0.109711  0  1.049498  0
H  H62  1  0.81221593  0.61763949  0.72694295  1  0.080198  0  0.110866  0.101605  0  1.00671  0
H  H63  1  0.85334587  0.48015512  0.74350562  1  0.020478  0  0.097153  0.078039  0  0.970027  0
H  H64  1  0.27723284  0.15926483  0.81103830  1  0.018038  0  0.096954  0.061373  0  0.980887  0
H  H65  1  0.29973871  0.22193809  0.89480812  1  0.096313  0  0.104591  0.079599  0  1.056884  0
H  H66  1  0.07874243  0.69601245  0.60819971  1  0.044711  0  0.093048  0.062037  0  0.988767  0
H  H67  1  0.15905552  0.57756446  0.68358425  1  0.007197  0  0.083811  0.036354  0  1.003848  0
H  H68  1  0.55103102  0.93523259  0.65357701  1  0.076023  0  0.09291  0.063049  0  1.017208  0
H  H69  1  0.41790449  0.97179099  0.61523477  1  0.058469  0  0.099141  0.077026  0  0.988921  0
H  H70  1  0.20815828  0.82454662  0.11647756  1  0.05918  0  0.099918  0.096976  0  1.018113  0
H  H71  1  0.46548192  0.12702733  0.61660261  1  0.035561  0  0.102974  0.084776  0  0.962415  0
H  H72  1  0.35546593  0.11936284  0.68558765  1  0.03637  0  0.109246  0.090109  0  0.982302  0
H  H73  1  0.13832057  0.72954349  0.02935631  1  0.112013  0  0.105521  0.10671  0  1.020089  0
H  H74  1  0.08087674  0.84637730  0.50145037  1  0.091696  0  0.103443  0.103776  0  1.013263  0
H  H75  1  0.65626070  0.24912632  0.96742931  1  0.110207  0  0.103493  0.105845  0  1.023841  0
H  H76  1  0.00979372  0.94158264  0.33743294  1  0.054891  0  0.100593  0.102708  0  0.99977  0
H  H77  1  0.08293053  0.98100349  0.16571921  1  0.082965  0  0.104327  0.100768  0  1.040926  0
H  H78  1  0.63662906  0.01182167  0.71032318  1  0.052324  0  0.10736  0.088711  0  1.02271  0
H  H79  1  0.61866166  0.13705299  0.72548382  1  0.025441  0  0.101787  0.084692  0  0.962396  0
H  H80  1  0.58474923  0.57173626  0.82330730  1  0.11009  0  0.106164  0.115214  0  1.016121  0
H  H81  1  0.48375702  0.18277644  0.85346846  1  0.058234  0  0.107946  0.091428  0  1.013445  0
H  H82  1  0.40402666  0.24764305  0.74871003  1  0.024805  0  0.101343  0.082616  0  0.964007  0
H  H83  1  0.19979311  0.45714682  0.80288294  1  0.018369  0  0.093563  0.055162  0  1.000779  0
H  H84  1  0.18971288  0.34624886  0.88413493  1  0.087844  0  0.102289  0.071201  0  1.046748  0
H  H85  1  0.08164569  0.39624853  0.73215281  1  0.025058  0  0.097947  0.073021  0  0.97871  0
H  H86  1  0.01231526  0.38528055  0.83863419  1  0.054659  0  0.106572  0.08657  0  1.010167  0
H  H87  1  0.01612173  0.54806291  0.61628068  1  0.009372  0  0.093606  0.067465  0  0.983198  0
H  H88  1  0.91973930  0.66244520  0.64333620  1  0.062551  0  0.10861  0.098067  0  0.99745  0
H  H89  1  0.71766600  0.39109459  0.88141018  1  0.051611  0  0.099405  0.093257  0  1.03248  0
C  C90  1  0.13035625  0.93895407  0.85273393  1  1.538518  0  0.225142  0.595696  0  4.169633  0
C  C91  1  0.06357364  0.22991750  0.01447266  1  1.587003  0  0.219635  0.589636  0  4.170111  0
C  C92  1  0.58197914  0.55179530  0.08279795  1  -0.054543  0  -0.070843  -0.092328  0  3.910794  0
C  C93  1  0.79613349  0.97942483  0.54235567  1  -0.052385  0  -0.077057  -0.103344  0  3.930669  0
C  C94  1  0.62733342  0.36405327  0.16139324  1  1.562732  0  0.225092  0.60194  0  4.171165  0
C  C95  1  0.17001969  0.46509757  0.12752966  1  0.428824  0  -0.091953  0.045512  0  3.946511  0
C  C96  1  0.09445536  0.08839764  0.92856100  1  -0.029848  0  -0.072259  -0.096433  0  3.90611  0
C  C97  1  0.33579251  0.98691308  0.14663303  1  0.436153  0  -0.089483  0.051656  0  3.935057  0
C  C98  1  0.90313947  0.95703350  0.67726555  1  -0.055511  0  -0.079385  -0.082351  0  3.948423  0
C  C99  1  0.83321871  0.92812487  0.63467611  1  -0.07912  0  -0.022233  -0.041048  0  3.98233  0
C  C100  1  0.13652367  0.45744703  0.22990811  1  0.27558  0  -0.077808  -0.116751  0  3.913624  0
C  C101  1  0.66316493  0.84088387  0.14129890  1  0.444987  0  -0.081307  0.040643  0  3.919023  0
C  C102  1  0.92022994  0.35965333  0.32446677  1  0.473404  0  -0.089835  0.069647  0  3.99533  0
C  C103  1  0.53225702  0.02984262  0.32762905  1  0.411843  0  -0.089272  0.049191  0  3.948203  0
C  C104  1  0.05569178  0.03212780  0.88383481  1  -0.068786  0  -0.020926  -0.048365  0  3.977168  0
C  C105  1  0.87655299  0.15111039  0.89648595  1  -0.015353  0  -0.094032  -0.090669  0  4.015977  0
C  C106  1  0.55851008  0.91802659  0.31951288  1  0.286075  0  -0.072524  -0.107108  0  3.92467  0
C  C107  1  0.91493506  0.20497901  0.94366268  1  -0.066476  0  -0.079614  -0.085201  0  3.963107  0
C  C108  1  0.82650040  0.06128093  0.49401314  1  0.053802  0  -0.024457  -0.053081  0  3.995273  0
C  C109  1  0.50804430  0.65225452  0.04922834  1  -0.017255  0  -0.022884  -0.053806  0  3.994816  0
C  C110  1  0.79409016  0.84676193  0.69079024  1  1.56386  0  0.205919  0.570505  0  4.2143  0
C  C111  1  0.02409139  0.17370372  0.95994536  1  -0.013975  0  -0.021816  -0.048305  0  3.984712  0
C  C112  1  0.54806758  0.47159319  0.12818977  1  -0.031061  0  -0.020418  -0.04487  0  3.977751  0
C  C113  1  0.89545460  0.09059615  0.53783373  1  -0.095261  0  -0.07672  -0.073819  0  3.960285  0
C  C114  1  0.39996640  0.67247645  0.06178613  1  -0.084753  0  -0.079681  -0.083865  0  3.956002  0
C  C115  1  0.93464769  0.03756676  0.62898005  1  0.002282  0  -0.094368  -0.091273  0  4.012665  0
C  C116  1  0.94651210  0.06375106  0.86820928  1  -0.024552  0  -0.076829  -0.07659  0  3.957311  0
C  C117  1  0.39491453  0.93551969  0.24217695  1  0.277821  0  -0.077506  -0.114718  0  3.915494  0
C  C118  1  0.43993758  0.49223003  0.14158202  1  -0.068026  0  -0.073595  -0.072887  0  3.929044  0
C  C119  1  0.56912334  0.82510802  0.19529466  1  0.260323  0  -0.074793  -0.115857  0  3.92323  0
C  C120  1  0.85430493  0.57252551  0.15103619  1  0.448503  0  -0.081359  0.052618  0  3.919792  0
C  C121  1  0.94760733  0.56797006  0.20732101  1  0.25928  0  -0.07328  -0.106932  0  3.895711  0
C  C122  1  0.78848649  0.11535747  0.39512209  1  1.541223  0  0.220072  0.601322  0  4.178001  0
C  C123  1  0.54446009  0.73700338  0.99785780  1  1.569127  0  0.220423  0.592088  0  4.168815  0
C  C124  1  0.00607880  0.40312457  0.33154753  1  0.271621  0  -0.076212  -0.11205  0  3.913174  0
C  C125  1  0.36640382  0.59285606  0.10880746  1  0.044122  0  -0.094518  -0.095279  0  4.01877  0
C  C126  1  0.86964284  0.06104688  0.14726597  1  1.538505  0  0.225137  0.59567  0  4.169691  0
C  C127  1  0.93642648  0.77008267  0.98552736  1  1.587003  0  0.219647  0.589658  0  4.170104  0
C  C128  1  0.41802098  0.44820487  0.91720275  1  -0.054466  0  -0.070884  -0.092388  0  3.910815  0
C  C129  1  0.20386589  0.02057534  0.45764439  1  -0.052361  0  -0.077071  -0.103363  0  3.930737  0
C  C130  1  0.37266772  0.63594613  0.83860759  1  1.562712  0  0.225073  0.601902  0  4.171212  0
C  C131  1  0.82997969  0.53490260  0.87247040  1  0.428937  0  -0.091945  0.045493  0  3.946493  0
C  C132  1  0.90554402  0.91160253  0.07143906  1  -0.029841  0  -0.072315  -0.096528  0  3.906121  0
C  C133  1  0.66420790  0.01308631  0.85336715  1  0.436097  0  -0.089547  0.051467  0  3.935256  0
C  C134  1  0.09686093  0.04296590  0.32273464  1  -0.055522  0  -0.07939  -0.082358  0  3.948472  0
C  C135  1  0.16677993  0.07187530  0.36532331  1  -0.079121  0  -0.022226  -0.041029  0  3.982328  0
C  C136  1  0.86347644  0.54255315  0.77009259  1  0.275401  0  -0.077791  -0.116711  0  3.913673  0
C  C137  1  0.33683460  0.15911786  0.85870010  1  0.444972  0  -0.081323  0.040621  0  3.919026  0
C  C138  1  0.07977018  0.64034684  0.67553325  1  0.473435  0  -0.089834  0.069651  0  3.995334  0
C  C139  1  0.46774310  0.97015755  0.67237097  1  0.412272  0  -0.08929  0.049157  0  3.948166  0
C  C140  1  0.94430907  0.96787238  0.11616585  1  -0.068773  0  -0.0209  -0.048303  0  3.977109  0
C  C141  1  0.12344639  0.84888979  0.10351411  1  -0.015152  0  -0.094021  -0.090662  0  4.015942  0
C  C142  1  0.44149004  0.08197359  0.68048714  1  0.286071  0  -0.072536  -0.107112  0  3.924655  0
C  C143  1  0.08506432  0.79502116  0.05633670  1  -0.066614  0  -0.079596  -0.085187  0  3.963102  0
C  C144  1  0.17349898  0.93871925  0.50598692  1  0.053814  0  -0.024451  -0.053176  0  3.995466  0
C  C145  1  0.49195552  0.34774643  0.95077084  1  -0.017261  0  -0.022859  -0.05376  0  3.994832  0
C  C146  1  0.20590996  0.15323825  0.30921047  1  1.564  0  0.205919  0.570516  0  4.214363  0
C  C147  1  0.97590872  0.82629645  0.04005466  1  -0.013981  0  -0.021812  -0.048305  0  3.984775  0
C  C148  1  0.45193254  0.52840698  0.87181025  1  -0.031146  0  -0.020409  -0.044834  0  3.977657  0
C  C149  1  0.10454581  0.90940325  0.46216646  1  -0.095276  0  -0.076713  -0.073761  0  3.960292  0
C  C150  1  0.60003298  0.32752372  0.93821325  1  -0.084749  0  -0.079694  -0.083906  0  3.956004  0
C  C151  1  0.06535199  0.96243264  0.37102086  1  0.00225  0  -0.094377  -0.091263  0  4.012611  0
C  C152  1  0.05348758  0.93624834  0.13179095  1  -0.02462  0  -0.076843  -0.076591  0  3.957389  0
C  C153  1  0.60508558  0.06448049  0.75782307  1  0.277826  0  -0.077491  -0.114657  0  3.915467  0
C  C154  1  0.56006327  0.50777014  0.85841795  1  -0.068219  0  -0.073581  -0.072873  0  3.928973  0
C  C155  1  0.43087751  0.17489216  0.80470532  1  0.260304  0  -0.074818  -0.115908  0  3.923319  0
C  C156  1  0.14569518  0.42747466  0.84896315  1  0.448495  0  -0.081356  0.052623  0  3.919749  0
C  C157  1  0.05239278  0.43203011  0.79267833  1  0.25925  0  -0.073277  -0.106926  0  3.895732  0
C  C158  1  0.21151465  0.88464193  0.60487874  1  1.541245  0  0.220101  0.6014  0  4.177918  0
C  C159  1  0.45553900  0.26299757  0.00214210  1  1.569133  0  0.220443  0.592104  0  4.168768  0
C  C160  1  0.99392131  0.59687560  0.66845249  1  0.271621  0  -0.076215  -0.112074  0  3.91323  0
C  C161  1  0.63359629  0.40714411  0.89119188  1  0.04412  0  -0.094527  -0.095285  0  4.018742  0
N  N162  1  0.50875405  0.91612539  0.23371092  1  -1.041185  0  -0.348082  -0.114376  0  3.541787  0
N  N163  1  0.02664048  0.46136115  0.23944875  1  -1.031937  0  -0.342738  -0.105526  0  3.513321  0
N  N164  1  0.49124577  0.08387556  0.76628894  1  -1.041185  0  -0.348088  -0.114392  0  3.541812  0
N  N165  1  0.97335963  0.53863903  0.76055127  1  -1.031942  0  -0.342729  -0.105517  0  3.513331  0
O  O166  1  0.81831733  0.81782548  0.77920396  1  -1.193164  0  -0.323322  -0.589883  0  2.387315  0
O  O167  1  0.36139830  0.07426049  0.09780771  1  -1.129931  0  -0.381434  -0.575839  0  2.438575  0
O  O168  1  0.64320643  0.71651049  0.99475894  1  -1.183439  0  -0.308073  -0.539781  0  2.346271  0
O  O169  1  0.15056228  0.39050991  0.08852120  1  -1.135633  0  -0.381972  -0.574531  0  2.440478  0
O  O170  1  0.73782582  0.81520239  0.64915366  1  -1.181316  0  -0.33095  -0.563233  0  2.157724  0
O  O171  1  0.89128656  0.51245170  0.08235038  1  -1.179921  0  -0.39967  -0.479819  0  2.44744  0
O  O172  1  0.94032428  0.30982161  0.24856666  1  -1.135121  0  -0.402565  -0.575053  0  2.439845  0
O  O173  1  0.99195847  0.29148173  0.05619449  1  -1.179675  0  -0.317698  -0.540814  0  2.369413  0
O  O174  1  0.47126424  0.82457780  0.96230004  1  -1.182914  0  -0.321211  -0.544441  0  2.347727  0
O  O175  1  0.08946496  0.88582255  0.82023374  1  -1.173205  0  -0.30341  -0.549122  0  2.426784  0
O  O176  1  0.59154690  0.29325942  0.19966480  1  -1.171763  0  -0.313825  -0.545984  0  2.376015  0
O  O177  1  0.16141164  0.21343495  0.01473434  1  -1.17881  0  -0.305288  -0.53685  0  2.315116  0
O  O178  1  0.62940244  0.93842689  0.07319759  1  -1.160268  0  -0.394942  -0.474113  0  2.45346  0
O  O179  1  0.54977139  0.09246899  0.24057905  1  -1.152279  0  -0.394049  -0.575307  0  2.437933  0
O  O180  1  0.80743373  0.19708460  0.35795123  1  -1.187852  0  -0.319459  -0.571472  0  2.363876  0
O  O181  1  0.72460334  0.35063490  0.14925417  1  -1.17766  0  -0.312614  -0.552579  0  2.362342  0
O  O182  1  0.22915617  0.91972221  0.85982163  1  -1.163738  0  -0.314019  -0.54728  0  2.366972  0
O  O183  1  0.73967133  0.07516449  0.35369869  1  -1.183244  0  -0.319174  -0.557147  0  2.352247  0
O  O184  1  0.35875826  0.25692991  0.20823382  1  -1.276129  0  -0.580635  -0.758478  0  2.134731  0
O  O185  1  0.18168235  0.18217392  0.22079695  1  -1.193256  0  -0.323314  -0.589876  0  2.387282  0
O  O186  1  0.63860210  0.92573890  0.90219248  1  -1.129873  0  -0.381407  -0.575797  0  2.438541  0
O  O187  1  0.35679368  0.28348969  0.00524108  1  -1.183454  0  -0.30807  -0.539767  0  2.346295  0
O  O188  1  0.84943783  0.60949026  0.91147882  1  -1.135645  0  -0.381962  -0.574512  0  2.440501  0
O  O189  1  0.26217459  0.18479701  0.35084584  1  -1.181336  0  -0.330948  -0.563243  0  2.157794  0
O  O190  1  0.10871282  0.48754848  0.91764968  1  -1.179857  0  -0.399675  -0.479831  0  2.447437  0
O  O191  1  0.05967584  0.69017856  0.75143336  1  -1.135123  0  -0.402567  -0.575058  0  2.439824  0
O  O192  1  0.00804120  0.70851766  0.94380506  1  -1.179675  0  -0.317746  -0.54085  0  2.369414  0
O  O193  1  0.52873514  0.17542237  0.03770003  1  -1.182905  0  -0.321234  -0.544467  0  2.347695  0
O  O194  1  0.91053472  0.11417685  0.17976718  1  -1.173217  0  -0.303411  -0.549136  0  2.426853  0
O  O195  1  0.40845424  0.70673998  0.80033603  1  -1.171767  0  -0.313859  -0.546028  0  2.376055  0
O  O196  1  0.83858848  0.78656522  0.98526499  1  -1.178804  0  -0.305278  -0.536856  0  2.3151  0
O  O197  1  0.37059665  0.06157406  0.92680094  1  -1.16023  0  -0.394897  -0.474032  0  2.453394  0
O  O198  1  0.45022873  0.90753119  0.75942166  1  -1.152266  0  -0.394054  -0.575309  0  2.437904  0
O  O199  1  0.19256594  0.80291480  0.64204900  1  -1.187858  0  -0.319461  -0.571488  0  2.363847  0
O  O200  1  0.27539722  0.64936606  0.85074633  1  -1.177619  0  -0.31261  -0.552575  0  2.362354  0
O  O201  1  0.77084350  0.08027719  0.14017928  1  -1.16373  0  -0.314046  -0.54728  0  2.367059  0
O  O202  1  0.26032981  0.92483491  0.64630145  1  -1.183258  0  -0.319197  -0.557172  0  2.35221  0
O  O203  1  0.64124083  0.74307104  0.79176607  1  -1.275761  0  -0.580642  -0.758452  0  2.134724  0
