# generated using pymatgen
data_GdH3CSO7
_symmetry_space_group_name_H-M   'P 1'
_cell_length_a   6.87504763
_cell_length_b   6.87547122
_cell_length_c   11.52409617
_cell_angle_alpha   90.00003046
_cell_angle_beta   90.00007150
_cell_angle_gamma   90.00168982
_symmetry_Int_Tables_number   1
_chemical_formula_structural   GdH3CSO7
_chemical_formula_sum   'Gd4 H12 C4 S4 O28'
_cell_volume   544.73471580
_cell_formula_units_Z   4
loop_
 _symmetry_equiv_pos_site_id
 _symmetry_equiv_pos_as_xyz
  1  'x, y, z'
loop_
 _atom_site_type_symbol
 _atom_site_label
 _atom_site_symmetry_multiplicity
 _atom_site_fract_x
 _atom_site_fract_y
 _atom_site_fract_z
 _atom_site_occupancy
 _atom_site_hle17_bader_spin_density
 _atom_site_hle17_ddec_charge
 _atom_site_hle17_ddec_spin_density
 _atom_site_hle17_ddec_sum_bond_order
 _atom_site_hle17_magmom
 _atom_site_hse06_10hf_bader_spin_density
 _atom_site_hse06_10hf_ddec_charge
 _atom_site_hse06_10hf_ddec_spin_density
 _atom_site_hse06_10hf_ddec_sum_bond_order
 _atom_site_hse06_10hf_magmom
 _atom_site_hse06_bader_spin_density
 _atom_site_hse06_ddec_charge
 _atom_site_hse06_ddec_spin_density
 _atom_site_hse06_ddec_sum_bond_order
 _atom_site_hse06_magmom
 _atom_site_pbe_bader_spin_density
 _atom_site_pbe_cm5_charge
 _atom_site_pbe_ddec_charge
 _atom_site_pbe_ddec_spin_density
 _atom_site_pbe_ddec_sum_bond_order
 _atom_site_pbe_magmom
Gd  Gd0  1  0.12335684  0.61765703  0.21013116  1  0  2.285179  0  1.654969  0  0  2.198356  0  1.986326  0  0  2.243413  0  1.945366  0  0  1.48168  2.160745  0  2.02282  0
Gd  Gd1  1  0.87664176  0.38234194  0.71013070  1  0  2.285193  0  1.65497  0  0  2.198347  0  1.986367  0  0  2.243414  0  1.945377  0  0  1.481667  2.160744  0  2.022833  0
Gd  Gd2  1  0.38244765  0.12349265  0.46009872  1  0  2.285548  0  1.654515  0  0  2.198915  0  1.985401  0  0  2.243869  0  1.944602  0  0  1.481964  2.161261  0  2.021944  0
Gd  Gd3  1  0.61755293  0.87650654  0.96009996  1  0  2.285552  0  1.654479  0  0  2.198894  0  1.985411  0  0  2.243875  0  1.944564  0  0  1.481961  2.161294  0  2.02187  0
H  H4  1  0.62791640  0.52637184  0.25225264  1  0  0.043541  0  0.930454  0  0  0.053639  0  0.992097  0  0  0.054354  0  0.987925  0  0  0.134473  0.052767  0  0.995338  0
H  H5  1  0.37208374  0.47363154  0.75225357  1  0  0.043557  0  0.930345  0  0  0.053612  0  0.992055  0  0  0.054327  0  0.987883  0  0  0.134473  0.05274  0  0.995294  0
H  H6  1  0.47373305  0.62822451  0.50218890  1  0  0.043457  0  0.930196  0  0  0.05349  0  0.991983  0  0  0.054198  0  0.987815  0  0  0.134528  0.052627  0  0.995224  0
H  H7  1  0.52626657  0.37177137  0.00219045  1  0  0.043468  0  0.930238  0  0  0.053501  0  0.992018  0  0  0.05421  0  0.98785  0  0  0.134534  0.052639  0  0.995261  0
H  H8  1  0.95766509  0.89051035  0.38988183  1  0  0.449991  0  0.844161  0  0  0.420893  0  0.903683  0  0  0.431143  0  0.888718  0  0  0.310028  0.413604  0  0.914294  0
H  H9  1  0.04233534  0.10949024  0.88988240  1  0  0.450004  0  0.844127  0  0  0.420903  0  0.903653  0  0  0.431154  0  0.888687  0  0  0.31003  0.413618  0  0.914259  0
H  H10  1  0.10957185  0.95759008  0.63976837  1  0  0.450454  0  0.843494  0  0  0.421346  0  0.903072  0  0  0.431591  0  0.888106  0  0  0.310353  0.414048  0  0.913705  0
H  H11  1  0.89042806  0.04240883  0.13976922  1  0  0.450454  0  0.843494  0  0  0.421346  0  0.90307  0  0  0.431591  0  0.888106  0  0  0.310353  0.414049  0  0.913703  0
H  H12  1  0.90057003  0.67769211  0.43189288  1  0  0.455039  0  0.81564  0  0  0.42881  0  0.878385  0  0  0.438022  0  0.864856  0  0  0.319541  0.422119  0  0.888217  0
H  H13  1  0.09943049  0.32230851  0.93189269  1  0  0.455095  0  0.815605  0  0  0.428871  0  0.878306  0  0  0.438083  0  0.864777  0  0  0.319564  0.422181  0  0.888137  0
H  H14  1  0.32241758  0.90033607  0.68170145  1  0  0.454949  0  0.815911  0  0  0.428749  0  0.878499  0  0  0.437956  0  0.864973  0  0  0.319547  0.422052  0  0.888344  0
H  H15  1  0.67758242  0.09966288  0.18170215  1  0  0.455012  0  0.815798  0  0  0.428814  0  0.878397  0  0  0.438019  0  0.864874  0  0  0.319586  0.422117  0  0.888243  0
C  C16  1  0.62534023  0.61755388  0.17379964  1  0  0.6255  0  3.830007  0  0  0.557777  0  4.142182  0  0  0.592542  0  4.128709  0  0  0.165957  0.534254  0  4.14996  0
C  C17  1  0.37465975  0.38244943  0.67379968  1  0  0.625514  0  3.829897  0  0  0.557822  0  4.142074  0  0  0.592587  0  4.128598  0  0  0.165946  0.534295  0  4.149848  0
C  C18  1  0.38252339  0.62581311  0.42373673  1  0  0.62605  0  3.828472  0  0  0.558413  0  4.140584  0  0  0.593185  0  4.127113  0  0  0.166095  0.534867  0  4.148379  0
C  C19  1  0.61747566  0.37418023  0.92373954  1  0  0.625926  0  3.828716  0  0  0.558295  0  4.140795  0  0  0.593068  0  4.127325  0  0  0.16604  0.534745  0  4.148597  0
S  S20  1  0.11234688  0.72628391  0.90295340  1  0  1.716706  0  5.732139  0  0  1.588736  0  6.278881  0  0  1.64649  0  6.236985  0  0  0.626426  1.548686  0  6.305779  0
S  S21  1  0.88765213  0.27371814  0.40295258  1  0  1.716701  0  5.732119  0  0  1.588756  0  6.278847  0  0  1.646515  0  6.236948  0  0  0.626469  1.548697  0  6.305752  0
S  S22  1  0.27358102  0.11255930  0.15279301  1  0  1.716623  0  5.732627  0  0  1.58871  0  6.279354  0  0  1.646443  0  6.237464  0  0  0.626629  1.548634  0  6.306257  0
S  S23  1  0.72642038  0.88744108  0.65279347  1  0  1.716622  0  5.73263  0  0  1.588695  0  6.279352  0  0  1.64643  0  6.237465  0  0  0.626635  1.548618  0  6.306249  0
O  O24  1  0.11529382  0.59605103  0.00515108  1  0  -0.808787  0  2.092957  0  0  -0.759763  0  2.371551  0  0  -0.780834  0  2.351168  0  0  -0.406577  -0.74406  0  2.384386  0
O  O25  1  0.88470581  0.40395067  0.50515064  1  0  -0.808764  0  2.092901  0  0  -0.759732  0  2.371485  0  0  -0.780803  0  2.351098  0  0  -0.406582  -0.744035  0  2.384326  0
O  O26  1  0.40378972  0.11584831  0.25504056  1  0  -0.809442  0  2.091324  0  0  -0.760698  0  2.370159  0  0  -0.781766  0  2.349803  0  0  -0.406823  -0.744967  0  2.382984  0
O  O27  1  0.59621043  0.88415070  0.75504092  1  0  -0.809427  0  2.09129  0  0  -0.760691  0  2.37016  0  0  -0.781762  0  2.349801  0  0  -0.406819  -0.744969  0  2.382979  0
O  O28  1  0.07082536  0.61106788  0.79834473  1  0  -0.817833  0  2.14312  0  0  -0.768292  0  2.42406  0  0  -0.791932  0  2.406555  0  0  -0.436911  -0.751244  0  2.435548  0
O  O29  1  0.92917343  0.38893117  0.29834398  1  0  -0.817829  0  2.143092  0  0  -0.768316  0  2.424047  0  0  -0.791971  0  2.406555  0  0  -0.436927  -0.751266  0  2.435544  0
O  O30  1  0.38895404  0.07095217  0.04826858  1  0  -0.818014  0  2.144158  0  0  -0.768351  0  2.425049  0  0  -0.791917  0  2.407524  0  0  -0.437013  -0.751299  0  2.436535  0
O  O31  1  0.61104568  0.92904666  0.54826897  1  0  -0.817998  0  2.144149  0  0  -0.76833  0  2.425058  0  0  -0.791881  0  2.407501  0  0  -0.437007  -0.751269  0  2.436541  0
O  O32  1  0.30215638  0.82012463  0.88595606  1  0  -0.788182  0  2.072948  0  0  -0.740028  0  2.351008  0  0  -0.761512  0  2.330941  0  0  -0.414155  -0.724196  0  2.364024  0
O  O33  1  0.69784259  0.17987449  0.38595594  1  0  -0.78818  0  2.072936  0  0  -0.740042  0  2.351001  0  0  -0.761519  0  2.330923  0  0  -0.414184  -0.724203  0  2.364025  0
O  O34  1  0.17954517  0.30219872  0.13564112  1  0  -0.787752  0  2.073148  0  0  -0.739451  0  2.350821  0  0  -0.760951  0  2.330813  0  0  -0.413429  -0.723673  0  2.363947  0
O  O35  1  0.82045618  0.69780164  0.63564072  1  0  -0.787766  0  2.073148  0  0  -0.73945  0  2.350819  0  0  -0.760952  0  2.330809  0  0  -0.413435  -0.723676  0  2.363941  0
O  O36  1  0.95799129  0.87907719  0.91854976  1  0  -0.823461  0  2.026024  0  0  -0.768211  0  2.292642  0  0  -0.789723  0  2.272335  0  0  -0.403627  -0.75234  0  2.305916  0
O  O37  1  0.04200775  0.12092633  0.41855000  1  0  -0.823474  0  2.026097  0  0  -0.768277  0  2.292741  0  0  -0.789786  0  2.272434  0  0  -0.403628  -0.752371  0  2.305999  0
O  O38  1  0.12091820  0.95806710  0.16840126  1  0  -0.823044  0  2.025852  0  0  -0.768108  0  2.292844  0  0  -0.789627  0  2.272537  0  0  -0.403662  -0.752173  0  2.306076  0
O  O39  1  0.87908177  0.04193184  0.66840156  1  0  -0.823056  0  2.025854  0  0  -0.768129  0  2.292894  0  0  -0.789654  0  2.272587  0  0  -0.403674  -0.752198  0  2.306123  0
O  O40  1  0.46193701  0.67048455  0.13094244  1  0  -0.743136  0  2.107507  0  0  -0.705006  0  2.378983  0  0  -0.730532  0  2.368362  0  0  -0.377493  -0.686104  0  2.385193  0
O  O41  1  0.53806143  0.32951726  0.63094258  1  0  -0.743172  0  2.107549  0  0  -0.705031  0  2.378992  0  0  -0.730557  0  2.368366  0  0  -0.377496  -0.686126  0  2.385198  0
O  O42  1  0.32954385  0.46249842  0.38076498  1  0  -0.743471  0  2.105357  0  0  -0.705402  0  2.376761  0  0  -0.730919  0  2.366111  0  0  -0.37716  -0.686498  0  2.383003  0
O  O43  1  0.67045802  0.53750071  0.88076702  1  0  -0.743476  0  2.105405  0  0  -0.705433  0  2.376874  0  0  -0.730959  0  2.366229  0  0  -0.377186  -0.686532  0  2.383109  0
O  O44  1  0.78453831  0.66410865  0.12574649  1  0  -0.702916  0  2.126254  0  0  -0.655969  0  2.382177  0  0  -0.682109  0  2.373744  0  0  -0.364419  -0.636858  0  2.386997  0
O  O45  1  0.21546157  0.33589316  0.62574726  1  0  -0.70293  0  2.126271  0  0  -0.655987  0  2.382183  0  0  -0.682127  0  2.37375  0  0  -0.36441  -0.636875  0  2.387005  0
O  O46  1  0.33603146  0.78512222  0.37580499  1  0  -0.703069  0  2.127168  0  0  -0.656028  0  2.382904  0  0  -0.682182  0  2.374493  0  0  -0.364954  -0.63692  0  2.387764  0
O  O47  1  0.66396749  0.21487545  0.87580693  1  0  -0.702933  0  2.127215  0  0  -0.655886  0  2.382956  0  0  -0.682042  0  2.374548  0  0  -0.364874  -0.636785  0  2.387811  0
O  O48  1  0.92667277  0.75727101  0.36291483  1  0  -0.891791  0  1.863075  0  0  -0.851106  0  2.057238  0  0  -0.869426  0  2.027824  0  0  -0.635389  -0.837534  0  2.077905  0
O  O49  1  0.07332761  0.24273101  0.86291459  1  0  -0.89186  0  1.863027  0  0  -0.851188  0  2.057193  0  0  -0.869502  0  2.027761  0  0  -0.635413  -0.837618  0  2.077852  0
O  O50  1  0.24279081  0.92658325  0.61277107  1  0  -0.892147  0  1.863425  0  0  -0.851347  0  2.057067  0  0  -0.869724  0  2.027818  0  0  -0.635599  -0.83776  0  2.077724  0
O  O51  1  0.75721050  0.07341709  0.11277096  1  0  -0.892226  0  1.863348  0  0  -0.851436  0  2.057023  0  0  -0.869811  0  2.027775  0  0  -0.635636  -0.837854  0  2.077675  0
