# generated using pymatgen
data_AgH4(C3N)2
_symmetry_space_group_name_H-M   'P 1'
_cell_length_a   7.52600676
_cell_length_b   7.52888570
_cell_length_c   11.14821668
_cell_angle_alpha   100.06347497
_cell_angle_beta   103.08946272
_cell_angle_gamma   113.88180111
_symmetry_Int_Tables_number   1
_chemical_formula_structural   AgH4(C3N)2
_chemical_formula_sum   'Ag4 H16 C24 N8'
_cell_volume   536.83184896
_cell_formula_units_Z   4
loop_
 _symmetry_equiv_pos_site_id
 _symmetry_equiv_pos_as_xyz
  1  'x, y, z'
loop_
 _atom_site_type_symbol
 _atom_site_label
 _atom_site_symmetry_multiplicity
 _atom_site_fract_x
 _atom_site_fract_y
 _atom_site_fract_z
 _atom_site_occupancy
 _atom_site_hle17_bader_spin_density
 _atom_site_hle17_ddec_charge
 _atom_site_hle17_ddec_spin_density
 _atom_site_hle17_ddec_sum_bond_order
 _atom_site_hle17_magmom
 _atom_site_hse06_10hf_bader_spin_density
 _atom_site_hse06_10hf_ddec_charge
 _atom_site_hse06_10hf_ddec_spin_density
 _atom_site_hse06_10hf_ddec_sum_bond_order
 _atom_site_hse06_10hf_magmom
 _atom_site_hse06_bader_spin_density
 _atom_site_hse06_ddec_charge
 _atom_site_hse06_ddec_spin_density
 _atom_site_hse06_ddec_sum_bond_order
 _atom_site_hse06_magmom
 _atom_site_pbe_bader_spin_density
 _atom_site_pbe_cm5_charge
 _atom_site_pbe_ddec_charge
 _atom_site_pbe_ddec_spin_density
 _atom_site_pbe_ddec_sum_bond_order
 _atom_site_pbe_magmom
Ag  Ag0  1  0.35558534  0.60534961  0.74986041  1  0  0.419811  0  1.622652  0  0  0.284919  0  2.079227  0  0  0.313444  0  2.036039  0  0  0.461118  0.2656  0  2.108586  0
Ag  Ag1  1  0.64441528  0.39464803  0.25014101  1  0  0.419835  0  1.622667  0  0  0.284977  0  2.079207  0  0  0.3135  0  2.036022  0  0  0.461115  0.265652  0  2.108573  0
Ag  Ag2  1  0.50000204  0.49999953  0.49999837  1  0  0.441339  0  1.531734  0  0  0.300087  0  1.966949  0  0  0.327761  0  1.929007  0  0  0.453688  0.281126  0  1.992606  0
Ag  Ag3  1  0.50000144  0.00000067  0.00000312  1  0  0.441999  0  1.528249  0  0  0.300444  0  1.96266  0  0  0.328159  0  1.925033  0  0  0.453225  0.28147  0  1.988975  0
H  H4  1  0.14827654  0.85537491  0.34481528  1  0  0.081683  0  0.970451  0  0  0.094791  0  1.032558  0  0  0.097435  0  1.031198  0  0  0.094954  0.092914  0  1.03371  0
H  H5  1  0.01058133  0.80324725  0.15511764  1  0  0.081814  0  0.971527  0  0  0.095148  0  1.033347  0  0  0.097803  0  1.031937  0  0  0.09508  0.093309  0  1.034419  0
H  H6  1  0.85172431  0.14463180  0.65518271  1  0  0.081726  0  0.970494  0  0  0.094827  0  1.0326  0  0  0.09747  0  1.03124  0  0  0.094976  0.092952  0  1.033754  0
H  H7  1  0.98941593  0.19675191  0.84488253  1  0  0.081849  0  0.971518  0  0  0.095199  0  1.033316  0  0  0.097855  0  1.031903  0  0  0.095099  0.093359  0  1.034392  0
H  H8  1  0.44763079  0.01967887  0.27567519  1  0  0.079947  0  1.008726  0  0  0.088209  0  1.081035  0  0  0.091291  0  1.0785  0  0  0.087531  0.085796  0  1.083272  0
H  H9  1  0.24350309  0.17167753  0.22431695  1  0  0.0784  0  1.010492  0  0  0.08675  0  1.082766  0  0  0.089899  0  1.080164  0  0  0.086723  0.084479  0  1.084792  0
H  H10  1  0.55236934  0.98032634  0.72432341  1  0  0.07986  0  1.008803  0  0  0.088157  0  1.081086  0  0  0.091239  0  1.078549  0  0  0.08752  0.08575  0  1.083317  0
H  H11  1  0.75649761  0.82832312  0.77568213  1  0  0.078378  0  1.010506  0  0  0.086728  0  1.082777  0  0  0.089878  0  1.080176  0  0  0.086717  0.084458  0  1.084807  0
H  H12  1  0.88736719  0.51275574  0.72391361  1  0  0.074218  0  0.952586  0  0  0.086228  0  1.017446  0  0  0.08728  0  1.016527  0  0  0.119892  0.08538  0  1.018127  0
H  H13  1  0.28938237  0.16391963  0.77609536  1  0  0.073401  0  0.952034  0  0  0.085375  0  1.01705  0  0  0.086506  0  1.016065  0  0  0.119791  0.084502  0  1.017922  0
H  H14  1  0.11263559  0.48724643  0.27608597  1  0  0.074226  0  0.952537  0  0  0.086243  0  1.017378  0  0  0.087295  0  1.01646  0  0  0.119929  0.085389  0  1.018064  0
H  H15  1  0.71062091  0.83607495  0.22390615  1  0  0.073446  0  0.951985  0  0  0.085364  0  1.017087  0  0  0.086504  0  1.01607  0  0  0.119782  0.084491  0  1.017957  0
H  H16  1  0.88651033  0.82694465  0.44719530  1  0  0.089867  0  0.992037  0  0  0.100263  0  1.059599  0  0  0.101825  0  1.059326  0  0  0.104336  0.09905  0  1.06003  0
H  H17  1  0.87977188  0.43974411  0.05319726  1  0  0.088909  0  0.991955  0  0  0.099491  0  1.059185  0  0  0.101065  0  1.058923  0  0  0.104142  0.098242  0  1.059701  0
H  H18  1  0.11349309  0.17305600  0.55280511  1  0  0.089827  0  0.992086  0  0  0.100243  0  1.05962  0  0  0.101805  0  1.059346  0  0  0.104317  0.099027  0  1.06005  0
H  H19  1  0.12022961  0.56026120  0.94680784  1  0  0.088942  0  0.991968  0  0  0.099534  0  1.059153  0  0  0.101103  0  1.058897  0  0  0.10414  0.098286  0  1.059669  0
C  C20  1  0.32620180  0.90244024  0.53894623  1  0  0.025853  0  3.840137  0  0  0.041323  0  4.068482  0  0  0.042153  0  4.091823  0  0  -0.018897  0.04108  0  4.052701  0
C  C21  1  0.86381531  0.78729662  0.96100156  1  0  0.026963  0  3.844229  0  0  0.042314  0  4.072702  0  0  0.043137  0  4.096018  0  0  -0.017816  0.041814  0  4.056824  0
C  C22  1  0.67379754  0.09756040  0.46105174  1  0  0.02595  0  3.840232  0  0  0.04144  0  4.068576  0  0  0.042271  0  4.091918  0  0  -0.018831  0.041199  0  4.05279  0
C  C23  1  0.13618331  0.21270252  0.03899792  1  0  0.026992  0  3.844261  0  0  0.042348  0  4.072751  0  0  0.043171  0  4.096071  0  0  -0.017809  0.041849  0  4.056874  0
C  C24  1  0.30310519  0.92135698  0.41369996  1  0  -0.100294  0  3.750759  0  0  -0.117073  0  3.991843  0  0  -0.119629  0  4.013048  0  0  -0.095057  -0.115455  0  3.977568  0
C  C25  1  0.00763622  0.88923407  0.08624321  1  0  -0.102533  0  3.752218  0  0  -0.119708  0  3.994117  0  0  -0.122203  0  4.015228  0  0  -0.095607  -0.117783  0  3.979561  0
C  C26  1  0.69689423  0.07864669  0.58629746  1  0  -0.100471  0  3.750982  0  0  -0.11725  0  3.992085  0  0  -0.119808  0  4.013289  0  0  -0.095113  -0.115631  0  3.977811  0
C  C27  1  0.99236248  0.11076813  0.91375663  1  0  -0.102672  0  3.752301  0  0  -0.119862  0  3.994219  0  0  -0.122356  0  4.015328  0  0  -0.09568  -0.117936  0  3.979664  0
C  C28  1  0.47209528  0.01597040  0.37520673  1  0  -0.12688  0  3.783986  0  0  -0.141002  0  4.026236  0  0  -0.143253  0  4.045892  0  0  -0.10477  -0.139552  0  4.013294  0
C  C29  1  0.14046929  0.09675792  0.12481169  1  0  -0.124313  0  3.784224  0  0  -0.138482  0  4.026208  0  0  -0.140737  0  4.045783  0  0  -0.104277  -0.136819  0  4.012781  0
C  C30  1  0.52790550  0.98403329  0.62479180  1  0  -0.126736  0  3.783916  0  0  -0.140899  0  4.026165  0  0  -0.143146  0  4.045818  0  0  -0.104764  -0.139454  0  4.013221  0
C  C31  1  0.85953069  0.90324122  0.87518801  1  0  -0.124212  0  3.784151  0  0  -0.138373  0  4.026117  0  0  -0.140629  0  4.045693  0  0  -0.10424  -0.136711  0  4.012696  0
C  C32  1  0.94258794  0.60678356  0.66377183  1  0  0.19613  0  3.740037  0  0  0.144728  0  3.995777  0  0  0.157499  0  4.015304  0  0  0.114079  0.136215  0  3.982545  0
C  C33  1  0.44350691  0.27912538  0.83626810  1  0  0.197469  0  3.737153  0  0  0.14625  0  3.993009  0  0  0.158987  0  4.012458  0  0  0.11463  0.137849  0  3.979736  0
C  C34  1  0.05741197  0.39321253  0.33622752  1  0  0.196131  0  3.740021  0  0  0.144743  0  3.995738  0  0  0.157513  0  4.015265  0  0  0.114057  0.136236  0  3.982501  0
C  C35  1  0.55649299  0.72087078  0.16373574  1  0  0.197438  0  3.737276  0  0  0.146229  0  3.993136  0  0  0.158969  0  4.012589  0  0  0.114699  0.137837  0  3.979849  0
C  C36  1  0.94532322  0.76793050  0.51991918  1  0  -0.085478  0  3.764495  0  0  -0.11856  0  4.016654  0  0  -0.117646  0  4.039072  0  0  -0.024426  -0.119239  0  4.001785  0
C  C37  1  0.74816205  0.42570223  0.98029872  1  0  -0.084003  0  3.765747  0  0  -0.117514  0  4.018144  0  0  -0.116605  0  4.040585  0  0  -0.024311  -0.117962  0  4.002786  0
C  C38  1  0.05467748  0.23207015  0.48007990  1  0  -0.085502  0  3.764484  0  0  -0.118566  0  4.016639  0  0  -0.117652  0  4.039057  0  0  -0.024417  -0.119241  0  4.001765  0
C  C39  1  0.25184072  0.57430002  0.01970625  1  0  -0.084032  0  3.765774  0  0  -0.117513  0  4.01818  0  0  -0.116605  0  4.040621  0  0  -0.024287  -0.117959  0  4.002825  0
C  C40  1  0.14446072  0.79788627  0.57414700  1  0  0.102952  0  3.824441  0  0  0.101966  0  4.06081  0  0  0.103318  0  4.087918  0  0  0.062794  0.101002  0  4.042561  0
C  C41  1  0.72416894  0.57043356  0.92578318  1  0  0.100332  0  3.826384  0  0  0.100146  0  4.062078  0  0  0.101536  0  4.089078  0  0  0.061367  0.099577  0  4.043318  0
C  C42  1  0.85553991  0.20211133  0.42585173  1  0  0.10312  0  3.824277  0  0  0.102066  0  4.060747  0  0  0.103415  0  4.087859  0  0  0.062845  0.101101  0  4.042498  0
C  C43  1  0.27582832  0.42956561  0.07421789  1  0  0.100322  0  3.826352  0  0  0.100074  0  4.062123  0  0  0.101462  0  4.089125  0  0  0.061347  0.099506  0  4.04336  0
N  N44  1  0.13974619  0.69518113  0.66671072  1  0  -0.406755  0  3.348076  0  0  -0.312118  0  3.628558  0  0  -0.335967  0  3.647557  0  0  -0.393195  -0.296007  0  3.615495  0
N  N45  1  0.52906330  0.47316973  0.83310965  1  0  -0.406009  0  3.346113  0  0  -0.312128  0  3.627378  0  0  -0.335943  0  3.646292  0  0  -0.393062  -0.295836  0  3.613406  0
N  N46  1  0.86025652  0.30481799  0.33328850  1  0  -0.406895  0  3.348126  0  0  -0.312266  0  3.628676  0  0  -0.336115  0  3.647676  0  0  -0.393299  -0.296156  0  3.61561  0
N  N47  1  0.47093388  0.52682641  0.16689196  1  0  -0.406023  0  3.346148  0  0  -0.312112  0  3.627411  0  0  -0.335928  0  3.646328  0  0  -0.39308  -0.295819  0  3.613435  0
N  N48  1  0.81952396  0.64694423  0.57644038  1  0  -0.361581  0  3.431492  0  0  -0.260813  0  3.711334  0  0  -0.284556  0  3.731906  0  0  -0.404655  -0.244633  0  3.697104  0
N  N49  1  0.57073752  0.24349933  0.92384972  1  0  -0.361615  0  3.43043  0  0  -0.260821  0  3.710621  0  0  -0.284658  0  3.731195  0  0  -0.40383  -0.244877  0  3.696506  0
N  N50  1  0.18047667  0.35305337  0.42355835  1  0  -0.36154  0  3.431481  0  0  -0.260763  0  3.711299  0  0  -0.284507  0  3.731869  0  0  -0.404596  -0.244583  0  3.697063  0
N  N51  1  0.42926453  0.75650141  0.07615586  1  0  -0.361585  0  3.430443  0  0  -0.260779  0  3.710595  0  0  -0.284605  0  3.731158  0  0  -0.403877  -0.244846  0  3.696486  0
