# generated using pymatgen
data_ZnH30(C22N3)2
_symmetry_space_group_name_H-M   'P 1'
_cell_length_a   9.29935857
_cell_length_b   19.28112221
_cell_length_c   19.27908305
_cell_angle_alpha   117.46598194
_cell_angle_beta   99.24574261
_cell_angle_gamma   99.25513448
_symmetry_Int_Tables_number   1
_chemical_formula_structural   ZnH30(C22N3)2
_chemical_formula_sum   'Zn3 H90 C132 N18'
_cell_volume   2916.33523065
_cell_formula_units_Z   3
loop_
 _symmetry_equiv_pos_site_id
 _symmetry_equiv_pos_as_xyz
  1  'x, y, z'
loop_
 _atom_site_type_symbol
 _atom_site_label
 _atom_site_symmetry_multiplicity
 _atom_site_fract_x
 _atom_site_fract_y
 _atom_site_fract_z
 _atom_site_occupancy
 _atom_site_pbe_bader_charge
 _atom_site_pbe_bader_spin_density
 _atom_site_pbe_cm5_charge
 _atom_site_pbe_ddec_charge
 _atom_site_pbe_ddec_spin_density
 _atom_site_pbe_ddec_sum_bond_order
 _atom_site_pbe_magmom
Zn  Zn0  1  0.50000048  0.49999996  0.99999965  1  1.245008  0  0.698826  0.592595  0  2.62383  0
Zn  Zn1  1  0.00000009  0.49999980  0.49999945  1  1.246332  0  0.698754  0.593771  0  2.622902  0
Zn  Zn2  1  0.50000044  0.99999992  0.50000020  1  1.248087  0  0.699022  0.593741  0  2.621332  0
H  H3  1  0.46641401  0.40132725  0.21321209  1  0.104752  0  0.098777  0.117549  0  1.045357  0
H  H4  1  0.06499838  0.81184722  0.59865783  1  0.071844  0  0.098614  0.117488  0  1.0455  0
H  H5  1  0.25316823  0.78681538  0.18812491  1  0.073186  0  0.099041  0.118221  0  1.044791  0
H  H6  1  0.53358665  0.59867289  0.78678797  1  0.104751  0  0.098776  0.117549  0  1.045356  0
H  H7  1  0.93500119  0.18815292  0.40134215  1  0.071844  0  0.098586  0.117414  0  1.045534  0
H  H8  1  0.74683024  0.21318476  0.81187499  1  0.073189  0  0.099034  0.118211  0  1.044793  0
H  H9  1  0.18307831  0.34649412  0.11897014  1  0.085341  0  0.099588  0.118228  0  1.026517  0
H  H10  1  0.83651456  0.77242520  0.65347756  1  0.077387  0  0.099856  0.118535  0  1.024141  0
H  H11  1  0.06410266  0.88105091  0.22752493  1  0.090378  0  0.099686  0.119249  0  1.025128  0
H  H12  1  0.81692234  0.65350602  0.88102992  1  0.085331  0  0.099591  0.118235  0  1.026517  0
H  H13  1  0.16348470  0.22757434  0.34652160  1  0.077383  0  0.099855  0.118529  0  1.024113  0
H  H14  1  0.93589691  0.11894924  0.77247557  1  0.090382  0  0.099697  0.119224  0  1.025122  0
H  H15  1  0.91795675  0.34977401  0.85056146  1  0.09771  0  0.097483  0.111158  0  1.055577  0
H  H16  1  0.56808167  0.50074296  0.65025292  1  0.076028  0  0.097532  0.111456  0  1.058259  0
H  H17  1  0.06739628  0.14950974  0.49928061  1  0.082571  0  0.09725  0.111291  0  1.056791  0
H  H18  1  0.08204360  0.65022552  0.14943830  1  0.097708  0  0.097486  0.111152  0  1.055577  0
H  H19  1  0.43191898  0.49925719  0.34974766  1  0.076034  0  0.097534  0.111469  0  1.058224  0
H  H20  1  0.93260359  0.85049101  0.50072019  1  0.082568  0  0.097242  0.111275  0  1.05675  0
H  H21  1  0.01201575  0.41820659  0.76600241  1  0.104958  0  0.10021  0.119014  0  1.018395  0
H  H22  1  0.59377472  0.34774906  0.58175216  1  0.06219  0  0.099804  0.118424  0  1.019505  0
H  H23  1  0.24614605  0.23404286  0.65224843  1  0.06564  0  0.099619  0.117786  0  1.019706  0
H  H24  1  0.98798490  0.58179355  0.23399765  1  0.104957  0  0.100211  0.119016  0  1.018377  0
H  H25  1  0.40622593  0.65225108  0.41824842  1  0.062223  0  0.099793  0.118411  0  1.019492  0
H  H26  1  0.75385352  0.76595728  0.34775207  1  0.065645  0  0.099619  0.117788  0  1.019705  0
H  H27  1  0.89730925  0.43338738  0.01207371  1  0.082614  0  0.097486  0.101848  0  1.03928  0
H  H28  1  0.46390810  0.57872278  0.56661431  1  0.075982  0  0.096778  0.101065  0  1.039346  0
H  H29  1  0.88525378  0.98790220  0.42131191  1  0.084303  0  0.096927  0.101722  0  1.038619  0
H  H30  1  0.10269140  0.56661276  0.98792636  1  0.082726  0  0.097479  0.101825  0  1.039303  0
H  H31  1  0.53609443  0.42127676  0.43338614  1  0.076215  0  0.096783  0.101118  0  1.039296  0
H  H32  1  0.11474657  0.01209733  0.57868733  1  0.084295  0  0.096912  0.101714  0  1.038623  0
H  H33  1  0.65744952  0.35386523  0.00772517  1  0.084365  0  0.097278  0.10129  0  1.041344  0
H  H34  1  0.30357478  0.65388594  0.64614521  1  0.077301  0  0.097801  0.103237  0  1.041957  0
H  H35  1  0.64975284  0.99228707  0.34616172  1  0.106281  0  0.097948  0.102772  0  1.04206  0
H  H36  1  0.34254974  0.64613430  0.99227398  1  0.084365  0  0.097279  0.101304  0  1.041327  0
H  H37  1  0.69642775  0.34611359  0.35385472  1  0.07727  0  0.097801  0.103244  0  1.041931  0
H  H38  1  0.35024672  0.00771307  0.65383826  1  0.106292  0  0.09796  0.102784  0  1.042044  0
H  H39  1  0.84194535  0.14898473  0.95043487  1  0.038581  0  0.095567  0.09513  0  1.003371  0
H  H40  1  0.69296459  0.80149314  0.85106175  1  0.043647  0  0.095794  0.095781  0  1.001941  0
H  H41  1  0.89151945  0.04955420  0.19850792  1  0.040321  0  0.095164  0.095239  0  1.002885  0
H  H42  1  0.15805561  0.85101602  0.04956602  1  0.038599  0  0.095569  0.095126  0  1.003378  0
H  H43  1  0.30703637  0.19850761  0.14893861  1  0.043652  0  0.09579  0.095788  0  1.001965  0
H  H44  1  0.10848090  0.95044533  0.80149184  1  0.040329  0  0.095158  0.095226  0  1.002885  0
H  H45  1  0.08485209  0.22990969  0.95734609  1  0.064837  0  0.097359  0.097069  0  1.000718  0
H  H46  1  0.85491048  0.72744943  0.77011612  1  0.04662  0  0.098281  0.099286  0  1.000239  0
H  H47  1  0.12756898  0.04271005  0.27258848  1  0.047612  0  0.097338  0.09803  0  0.999973  0
H  H48  1  0.91514857  0.77009045  0.04265397  1  0.064836  0  0.097358  0.097079  0  1.000729  0
H  H49  1  0.14509126  0.27255071  0.22988455  1  0.046464  0  0.098281  0.099288  0  1.000238  0
H  H50  1  0.87242950  0.95729010  0.72741090  1  0.047613  0  0.097298  0.09795  0  0.999938  0
H  H51  1  0.52441161  0.23509493  0.01525877  1  0.047387  0  0.091326  0.130599  0  0.998945  0
H  H52  1  0.28928091  0.78015572  0.76491098  1  0.037045  0  0.091678  0.130425  0  1.000014  0
H  H53  1  0.50919023  0.98474112  0.21984802  1  0.043416  0  0.091689  0.13157  0  0.999199  0
H  H54  1  0.47558796  0.76490522  0.98474120  1  0.047388  0  0.091327  0.1306  0  0.998947  0
H  H55  1  0.71072083  0.21984442  0.23508917  1  0.037019  0  0.091733  0.130489  0  1.000011  0
H  H56  1  0.49080934  0.01525903  0.78015196  1  0.04342  0  0.09169  0.131578  0  0.999197  0
H  H57  1  0.59597341  0.14814824  0.98685310  1  0.005311  0  0.086537  0.117116  0  1.009979  0
H  H58  1  0.44777380  0.83870744  0.85187068  1  0.03813  0  0.086728  0.116817  0  1.009898  0
H  H59  1  0.60915941  0.01314143  0.16129499  1  0.035034  0  0.086765  0.117779  0  1.009875  0
H  H60  1  0.40402694  0.85185130  0.01314718  1  0.00518  0  0.086549  0.117129  0  1.009983  0
H  H61  1  0.55222685  0.16129270  0.14812990  1  0.038362  0  0.086694  0.116807  0  1.009862  0
H  H62  1  0.39084124  0.98685871  0.83870559  1  0.035036  0  0.086778  0.117781  0  1.009876  0
H  H63  1  0.50586231  0.16729462  0.91161999  1  0.026044  0  0.090495  0.128621  0  1.005404  0
H  H64  1  0.33851736  0.74431772  0.83271215  1  0.051797  0  0.09074  0.12845  0  1.005845  0
H  H65  1  0.59425903  0.08836750  0.25567420  1  0.063794  0  0.090749  0.129413  0  1.005537  0
H  H66  1  0.49413695  0.83270491  0.08837969  1  0.026159  0  0.090496  0.128617  0  1.005401  0
H  H67  1  0.66148408  0.25568181  0.16728769  1  0.051834  0  0.09074  0.128469  0  1.005872  0
H  H68  1  0.40574162  0.91163264  0.74432586  1  0.063789  0  0.090751  0.129416  0  1.005518  0
H  H69  1  0.13257162  0.59740711  0.81667289  1  0.111245  0  0.107131  0.118696  0  1.001036  0
H  H70  1  0.53512951  0.21926846  0.40255051  1  0.092551  0  0.10796  0.119529  0  1.001778  0
H  H71  1  0.31592277  0.18328610  0.78071871  1  0.090588  0  0.10698  0.118688  0  1.001514  0
H  H72  1  0.86742843  0.40259181  0.18332553  1  0.111224  0  0.107156  0.118756  0  1.000935  0
H  H73  1  0.46487145  0.78073229  0.59744986  1  0.092577  0  0.107958  0.119545  0  1.001772  0
H  H74  1  0.68407571  0.81671405  0.21928170  1  0.090655  0  0.106972  0.118683  0  1.001547  0
H  H75  1  0.02857642  0.59526074  0.68692959  1  0.086393  0  0.110931  0.07444  0  1.032057  0
H  H76  1  0.43320810  0.09165332  0.40466770  1  0.100467  0  0.110798  0.074397  0  1.031964  0
H  H77  1  0.34165362  0.31301946  0.90831807  1  0.090778  0  0.110852  0.075181  0  1.032346  0
H  H78  1  0.97142424  0.40473940  0.31306944  1  0.086374  0  0.1109  0.074433  0  1.032022  0
H  H79  1  0.56679177  0.90834743  0.59533258  1  0.100427  0  0.110779  0.074373  0  1.03198  0
H  H80  1  0.65834595  0.68698068  0.09168191  1  0.090788  0  0.110856  0.075177  0  1.03235  0
H  H81  1  0.24852664  0.42690663  0.56093254  1  0.080877  0  0.11527  0.086617  0  1.004619  0
H  H82  1  0.82142751  0.13403206  0.57307637  1  0.09038  0  0.114882  0.085981  0  1.00565  0
H  H83  1  0.68748451  0.43902092  0.86589134  1  0.106038  0  0.115051  0.085863  0  1.00572  0
H  H84  1  0.75147262  0.57309290  0.43906713  1  0.080862  0  0.115286  0.086663  0  1.004576  0
H  H85  1  0.17857284  0.86596747  0.42692287  1  0.090179  0  0.11491  0.086046  0  1.005669  0
H  H86  1  0.31251584  0.56097862  0.13410894  1  0.106041  0  0.115049  0.085839  0  1.005728  0
H  H87  1  0.36347861  0.42243376  0.68537008  1  0.069142  0  0.108668  0.120801  0  0.990156  0
H  H88  1  0.94092234  0.26290150  0.57754584  1  0.095667  0  0.108162  0.119713  0  0.990514  0
H  H89  1  0.67809981  0.31460098  0.73700638  1  0.089123  0  0.1085  0.119951  0  0.991358  0
H  H90  1  0.63652095  0.57756638  0.31462990  1  0.069136  0  0.108672  0.12081  0  0.990145  0
H  H91  1  0.05907910  0.73709804  0.42245349  1  0.095648  0  0.108182  0.119751  0  0.990511  0
H  H92  1  0.32190054  0.68539855  0.26299390  1  0.089125  0  0.108501  0.119948  0  0.991355  0
C  C93  1  0.51750935  0.44785508  0.12866925  1  0.486296  0  0.087248  0.17731  0  4.054577  0
C  C94  1  0.06963246  0.68078933  0.55214197  1  0.468031  0  0.086736  0.176349  0  4.05386  0
C  C95  1  0.38879849  0.87137118  0.31920428  1  0.457889  0  0.085452  0.174569  0  4.057916  0
C  C96  1  0.48249052  0.55214567  0.87133103  1  0.486704  0  0.087187  0.177252  0  4.054642  0
C  C97  1  0.93036819  0.31921081  0.44785757  1  0.468038  0  0.086756  0.176358  0  4.053848  0
C  C98  1  0.61120107  0.12862897  0.68079570  1  0.457675  0  0.085445  0.174584  0  4.05788  0
C  C99  1  0.42644700  0.40757912  0.16085198  1  -0.10869  0  -0.110501  -0.189783  0  3.982174  0
C  C100  1  0.01879718  0.75322950  0.59238411  1  -0.078805  0  -0.107921  -0.187353  0  3.980579  0
C  C101  1  0.26559295  0.83918600  0.24673647  1  -0.063091  0  -0.110623  -0.190384  0  3.982995  0
C  C102  1  0.57355474  0.59242103  0.83914816  1  -0.108835  0  -0.110458  -0.189714  0  3.982123  0
C  C103  1  0.98120347  0.24677064  0.40761596  1  -0.07876  0  -0.107908  -0.187292  0  3.980521  0
C  C104  1  0.73440552  0.16081414  0.75326342  1  -0.063094  0  -0.110596  -0.190371  0  3.9829  0
C  C105  1  0.28185131  0.37867989  0.11216242  1  -0.078685  0  -0.109302  -0.189385  0  3.992533  0
C  C106  1  0.90309238  0.73343602  0.62127880  1  -0.064976  0  -0.110124  -0.18905  0  3.99003  0
C  C107  1  0.16970034  0.88788196  0.26651926  1  -0.072118  0  -0.10852  -0.188897  0  3.991349  0
C  C108  1  0.71814965  0.62132085  0.88783795  1  -0.078549  0  -0.109322  -0.189419  0  3.992548  0
C  C109  1  0.09690688  0.26656352  0.37872035  1  -0.065075  0  -0.110106  -0.189016  0  3.989936  0
C  C110  1  0.83029892  0.11211758  0.73348042  1  -0.072097  0  -0.108553  -0.188859  0  3.991242  0
C  C111  1  0.28352599  0.40094596  0.04990111  1  0.4177  0  0.087002  0.169401  0  4.05349  0
C  C112  1  0.88254594  0.64891780  0.59905350  1  0.405546  0  0.087088  0.168572  0  4.053903  0
C  C113  1  0.23362636  0.95015298  0.35105674  1  0.451606  0  0.08647  0.168947  0  4.055  0
C  C114  1  0.71647466  0.59905418  0.95009895  1  0.417711  0  0.08703  0.169425  0  4.053491  0
C  C115  1  0.11745253  0.35108234  0.40094587  1  0.405614  0  0.087094  0.168592  0  4.053924  0
C  C116  1  0.76637351  0.04984777  0.64894406  1  0.451583  0  0.086438  0.168887  0  4.054962  0
C  C117  1  0.15474355  0.38672760  0.98996323  1  -0.002934  0  -0.00132  -0.075681  0  3.925465  0
C  C118  1  0.76799026  0.60322981  0.61330561  1  0.019838  0  -0.000717  -0.075238  0  3.926454  0
C  C119  1  0.16479075  0.01008993  0.39677424  1  0.000654  0  -0.000573  -0.075287  0  3.925876  0
C  C120  1  0.84525710  0.61327254  0.01003735  1  -0.002953  0  -0.001294  -0.075663  0  3.92548  0
C  C121  1  0.23200930  0.39677033  0.38669437  1  0.020182  0  -0.000731  -0.075281  0  3.926492  0
C  C122  1  0.83520990  0.98991021  0.60322583  1  0.00067  0  -0.000561  -0.075229  0  3.925887  0
C  C123  1  0.15417126  0.41500375  0.93400690  1  0.45903  0  0.089209  0.175595  0  4.039773  0
C  C124  1  0.73913243  0.51900881  0.58504879  1  0.459957  0  0.08953  0.175001  0  4.041616  0
C  C125  1  0.22015173  0.06603786  0.48100098  1  0.41044  0  0.088977  0.175059  0  4.042516  0
C  C126  1  0.84582830  0.58499639  0.06599360  1  0.459022  0  0.0892  0.175542  0  4.039798  0
C  C127  1  0.26086683  0.48099073  0.41495089  1  0.459592  0  0.089589  0.175072  0  4.041604  0
C  C128  1  0.77984783  0.93396228  0.51899952  1  0.410433  0  0.088986  0.175053  0  4.042527  0
C  C129  1  0.02764660  0.39009979  0.86512456  1  -0.109169  0  -0.108051  -0.183713  0  3.979178  0
C  C130  1  0.63747292  0.47499930  0.60991781  1  -0.16501  0  -0.108728  -0.184571  0  3.984172  0
C  C131  1  0.16256326  0.13494065  0.52500673  1  -0.119594  0  -0.107033  -0.183494  0  3.981465  0
C  C132  1  0.97235375  0.60989975  0.13487520  1  -0.109217  0  -0.108046  -0.183676  0  3.97916  0
C  C133  1  0.36252773  0.52500084  0.39008277  1  -0.164997  0  -0.108743  -0.184611  0  3.98413  0
C  C134  1  0.83743630  0.86505949  0.47499325  1  -0.119556  0  -0.10702  -0.18347  0  3.981488  0
C  C135  1  0.07599119  0.42450450  0.82189934  1  -0.104373  0  -0.109824  -0.192015  0  3.980103  0
C  C136  1  0.65140054  0.39736892  0.57547693  1  0.009281  0  -0.10991  -0.191096  0  3.981902  0
C  C137  1  0.25418281  0.17815803  0.60262065  1  -0.014056  0  -0.109692  -0.190583  0  3.981325  0
C  C138  1  0.92400946  0.57549565  0.17810072  1  -0.104311  0  -0.109819  -0.192027  0  3.980088  0
C  C139  1  0.34859903  0.60263122  0.42452357  1  0.009234  0  -0.109962  -0.191134  0  3.981883  0
C  C140  1  0.74581645  0.82184151  0.39737954  1  -0.014093  0  -0.10969  -0.190585  0  3.981418  0
C  C141  1  0.23237891  0.47077163  0.86429184  1  0.481562  0  0.090351  0.185517  0  4.047968  0
C  C142  1  0.76154847  0.39352028  0.52922165  1  0.433841  0  0.090755  0.184759  0  4.051358  0
C  C143  1  0.36813454  0.13572425  0.60645735  1  0.448791  0  0.09159  0.186114  0  4.048443  0
C  C144  1  0.76762174  0.52922852  0.13570822  1  0.481546  0  0.090353  0.18548  0  4.047969  0
C  C145  1  0.23845219  0.60647987  0.47077789  1  0.433837  0  0.090737  0.184709  0  4.051345  0
C  C146  1  0.63186472  0.86427529  0.39354284  1  0.448794  0  0.091612  0.186135  0  4.048429  0
C  C147  1  0.32709729  0.51157798  0.83680912  1  -0.073647  0  -0.002648  -0.087569  0  3.925183  0
C  C148  1  0.81548532  0.32523825  0.48840438  1  -0.015648  0  -0.002291  -0.086423  0  3.926165  0
C  C149  1  0.49034377  0.16316629  0.67473946  1  -0.034171  0  -0.003174  -0.087433  0  3.927692  0
C  C150  1  0.67290227  0.48842216  0.16319034  1  -0.073643  0  -0.002618  -0.087507  0  3.925139  0
C  C151  1  0.18451424  0.67476189  0.51159560  1  -0.015665  0  -0.002289  -0.086401  0  3.92614  0
C  C152  1  0.50965549  0.83683325  0.32526074  1  -0.034357  0  -0.00317  -0.087411  0  3.927685  0
C  C153  1  0.00894881  0.33756315  0.98513953  1  -0.022918  0  -0.011802  0.073127  0  4.019566  0
C  C154  1  0.67135673  0.64760120  0.66245894  1  -0.039487  0  -0.013913  0.071582  0  4.023593  0
C  C155  1  0.02382601  0.01491589  0.35244126  1  -0.035309  0  -0.013432  0.069057  0  4.023793  0
C  C156  1  0.99105184  0.66243700  0.01486053  1  -0.022934  0  -0.011773  0.073224  0  4.019573  0
C  C157  1  0.32864393  0.35239895  0.33754164  1  -0.039398  0  -0.013871  0.071597  0  4.023526  0
C  C158  1  0.97617434  0.98508364  0.64755902  1  -0.035341  0  -0.013386  0.069107  0  4.023847  0
C  C159  1  0.88575639  0.37089396  0.99830794  1  -0.050441  0  -0.093534  -0.127082  0  3.977161  0
C  C160  1  0.51485004  0.62745596  0.62910758  1  -0.008694  0  -0.090833  -0.122531  0  3.977608  0
C  C161  1  0.88747575  0.00171534  0.37260694  1  -0.027677  0  -0.091223  -0.124074  0  3.97631  0
C  C162  1  0.11424288  0.62910557  0.00169174  1  -0.050545  0  -0.093531  -0.127059  0  3.977138  0
C  C163  1  0.48515140  0.37254358  0.37089279  1  -0.009069  0  -0.090807  -0.122509  0  3.977516  0
C  C164  1  0.11252351  0.99828419  0.62739274  1  -0.027669  0  -0.091224  -0.124134  0  3.976351  0
C  C165  1  0.75009222  0.32574390  0.99591649  1  -0.05579  0  -0.09752  -0.146503  0  3.973029  0
C  C166  1  0.42434227  0.67021694  0.67426059  1  -0.051054  0  -0.099424  -0.1501  0  3.978282  0
C  C167  1  0.75420462  0.00410518  0.32984503  1  -0.098239  0  -0.098744  -0.146581  0  3.9754  0
C  C168  1  0.24990735  0.67425624  0.00408400  1  -0.055773  0  -0.097529  -0.146543  0  3.97298  0
C  C169  1  0.57565838  0.32978320  0.32573947  1  -0.050911  0  -0.099446  -0.150163  0  3.978292  0
C  C170  1  0.24579464  0.99589435  0.67015516  1  -0.098235  0  -0.098749  -0.146563  0  3.975373  0
C  C171  1  0.73121969  0.24534811  0.97882214  1  -0.056425  0  -0.015365  0.160362  0  3.991971  0
C  C172  1  0.48584627  0.73351029  0.75466873  1  -0.074106  0  -0.015764  0.157723  0  3.997183  0
C  C173  1  0.75242325  0.02119433  0.26653123  1  -0.057628  0  -0.015976  0.156702  0  3.99466  0
C  C174  1  0.26877988  0.75465204  0.02117835  1  -0.05643  0  -0.015367  0.160356  0  3.991942  0
C  C175  1  0.51415329  0.26648985  0.24533073  1  -0.074086  0  -0.015718  0.157821  0  3.997082  0
C  C176  1  0.24757523  0.97880582  0.73346866  1  -0.057657  0  -0.015973  0.156728  0  3.994676  0
C  C177  1  0.85401281  0.21183774  0.96496747  1  -0.025131  0  -0.102458  -0.156401  0  4.013016  0
C  C178  1  0.64215648  0.75317558  0.78819015  1  -0.04159  0  -0.100749  -0.153807  0  4.014355  0
C  C179  1  0.88907228  0.03505389  0.24686142  1  -0.030202  0  -0.101703  -0.15455  0  4.01145  0
C  C180  1  0.14598784  0.78816240  0.03503311  1  -0.025138  0  -0.102455  -0.156369  0  4.013035  0
C  C181  1  0.35784387  0.24682396  0.21180962  1  -0.041606  0  -0.100779  -0.153859  0  4.014435  0
C  C182  1  0.11092838  0.96494625  0.75313813  1  -0.030209  0  -0.101757  -0.154657  0  4.011427  0
C  C183  1  0.99076997  0.25714983  0.96844635  1  -0.079244  0  -0.096136  -0.132516  0  4.00995  0
C  C184  1  0.73359624  0.71133263  0.74287564  1  -0.041183  0  -0.097709  -0.137282  0  4.014853  0
C  C185  1  0.02235694  0.03160760  0.28871213  1  -0.05153  0  -0.095273  -0.132481  0  4.009801  0
C  C186  1  0.00922960  0.74285032  0.03155415  1  -0.079246  0  -0.09616  -0.132609  0  4.010011  0
C  C187  1  0.26640551  0.28866751  0.25712502  1  -0.041079  0  -0.097736  -0.137308  0  4.014925  0
C  C188  1  0.97764372  0.96839254  0.71128742  1  -0.05152  0  -0.095223  -0.132325  0  4.009626  0
C  C189  1  0.58192682  0.19644758  0.97325087  1  -0.033645  0  -0.238315  -0.412317  0  3.979424  0
C  C190  1  0.38543904  0.77680830  0.80356499  1  -0.081074  0  -0.238792  -0.410189  0  3.98166  0
C  C191  1  0.60871461  0.02674295  0.22320215  1  -0.100336  0  -0.239724  -0.41484  0  3.981427  0
C  C192  1  0.41807384  0.80355257  0.02674919  1  -0.033627  0  -0.238323  -0.412315  0  3.979381  0
C  C193  1  0.61456379  0.22319184  0.19643524  1  -0.081338  0  -0.23886  -0.410332  0  3.981644  0
C  C194  1  0.39128465  0.97325659  0.77679752  1  -0.100322  0  -0.239725  -0.414849  0  3.981388  0
C  C195  1  0.25734619  0.51018727  0.76109443  1  0.047233  0  0.016548  0.135439  0  4.007118  0
C  C196  1  0.74707949  0.25090423  0.48978363  1  0.028647  0  0.013712  0.133423  0  4.009906  0
C  C197  1  0.49626543  0.23887143  0.74906364  1  -0.085701  0  0.015203  0.133559  0  4.012482  0
C  C198  1  0.74265338  0.48981287  0.23890503  1  0.047232  0  0.016544  0.135399  0  4.007162  0
C  C199  1  0.25292007  0.74909591  0.51021635  1  0.028653  0  0.013704  0.133397  0  4.009924  0
C  C200  1  0.50373383  0.76112811  0.25093655  1  -0.085699  0  0.015191  0.133536  0  4.012571  0
C  C201  1  0.16050230  0.55871000  0.76098610  1  -0.123161  0  -0.085316  -0.183482  0  3.936224  0
C  C202  1  0.60172905  0.20226337  0.44123950  1  -0.069281  0  -0.084671  -0.183898  0  3.939693  0
C  C203  1  0.39954019  0.23896486  0.79770460  1  -0.015034  0  -0.083379  -0.180711  0  3.939808  0
C  C204  1  0.83949726  0.44129015  0.23901336  1  -0.123168  0  -0.085348  -0.183523  0  3.936209  0
C  C205  1  0.39827160  0.79773678  0.55876057  1  -0.069305  0  -0.084668  -0.183933  0  3.939723  0
C  C206  1  0.60045938  0.76103528  0.20229537  1  -0.015052  0  -0.083369  -0.180706  0  3.939858  0
C  C207  1  0.10292196  0.55755782  0.68917023  1  0.538893  0  0.048213  0.104031  0  3.957651  0
C  C208  1  0.54524969  0.13160149  0.44238703  1  0.472493  0  0.045782  0.10063  0  3.959171  0
C  C209  1  0.41374190  0.31077939  0.86835859  1  0.476889  0  0.046121  0.098906  0  3.962569  0
C  C210  1  0.89707900  0.44244293  0.31082910  1  0.538923  0  0.048212  0.103977  0  3.957645  0
C  C211  1  0.45474987  0.86839865  0.55761295  1  0.472541  0  0.045807  0.100705  0  3.959163  0
C  C212  1  0.58625767  0.68922075  0.13164191  1  0.476849  0  0.046101  0.098889  0  3.962605  0
C  C213  1  0.22597112  0.46402196  0.61891871  1  0.492217  0  0.047059  0.098682  0  3.960699  0
C  C214  1  0.76178873  0.15490227  0.53596036  1  0.485279  0  0.047761  0.098669  0  3.960388  0
C  C215  1  0.60697059  0.38104125  0.84503438  1  0.472978  0  0.04716  0.097909  0  3.96349  0
C  C216  1  0.77403032  0.53597758  0.38108062  1  0.492298  0  0.047034  0.098588  0  3.960697  0
C  C217  1  0.23821083  0.84509788  0.46403910  1  0.48535  0  0.047737  0.098615  0  3.960463  0
C  C218  1  0.39303007  0.61895889  0.15496569  1  0.472982  0  0.047166  0.097959  0  3.963451  0
C  C219  1  0.28948854  0.46160087  0.68797103  1  -0.037088  0  -0.087424  -0.192147  0  3.953161  0
C  C220  1  0.82776689  0.22636149  0.53837784  1  -0.055845  0  -0.085756  -0.189591  0  3.950994  0
C  C221  1  0.60149199  0.31199417  0.77357327  1  0.013069  0  -0.086286  -0.189094  0  3.953562  0
C  C222  1  0.71051072  0.53839866  0.31202813  1  -0.037097  0  -0.087423  -0.192122  0  3.953128  0
C  C223  1  0.17223347  0.77363804  0.46162140  1  -0.055701  0  -0.08578  -0.189627  0  3.950984  0
C  C224  1  0.39850836  0.68800537  0.22642701  1  0.013044  0  -0.086304  -0.189124  0  3.953623  0
N  N225  1  0.42849077  0.44141195  0.06084181  1  -1.214527  0  -0.363472  -0.359037  0  3.462181  0
N  N226  1  0.98708729  0.61941650  0.55860651  1  -1.219879  0  -0.363924  -0.35948  0  3.463009  0
N  N227  1  0.36760899  0.93918999  0.38057730  1  -1.210418  0  -0.362606  -0.358331  0  3.464129  0
N  N228  1  0.57150880  0.55858819  0.93915765  1  -1.214915  0  -0.363483  -0.359074  0  3.462241  0
N  N229  1  0.01291197  0.38058303  0.44139264  1  -1.219902  0  -0.363963  -0.359522  0  3.463091  0
N  N230  1  0.63238948  0.06081016  0.61942207  1  -1.210409  0  -0.362583  -0.35833  0  3.464144  0
N  N231  1  0.27530628  0.46488103  0.93238340  1  -1.22746  0  -0.360831  -0.356443  0  3.439881  0
N  N232  1  0.81039754  0.46752369  0.53515884  1  -1.205193  0  -0.361455  -0.356945  0  3.441648  0
N  N233  1  0.34288667  0.06763033  0.53247237  1  -1.215743  0  -0.362071  -0.356997  0  3.442168  0
N  N234  1  0.72469407  0.53511851  0.06761636  1  -1.227435  0  -0.360865  -0.356405  0  3.439901  0
N  N235  1  0.18960203  0.53247645  0.46484062  1  -1.205179  0  -0.36144  -0.356898  0  3.441631  0
N  N236  1  0.65711259  0.93236921  0.46752783  1  -1.21574  0  -0.362092  -0.357034  0  3.44213  0
N  N237  1  0.13470974  0.51134634  0.61931297  1  -1.231518  0  -0.315444  -0.230265  0  3.48827  0
N  N238  1  0.62319326  0.10796765  0.48861963  1  -1.232199  0  -0.313508  -0.226417  0  3.487342  0
N  N239  1  0.51532951  0.38063834  0.89198059  1  -1.233634  0  -0.31383  -0.226515  0  3.491265  0
N  N240  1  0.86529091  0.48865380  0.38068658  1  -1.231519  0  -0.315424  -0.230198  0  3.488304  0
N  N241  1  0.37680631  0.89203250  0.51138035  1  -1.232201  0  -0.313507  -0.226446  0  3.48737  0
N  N242  1  0.48467005  0.61936180  0.10801939  1  -1.23364  0  -0.3138  -0.226475  0  3.491188  0
