# generated using pymatgen
data_Na2Zn3P8H60C28N4(ClO3)8
_symmetry_space_group_name_H-M   'P 1'
_cell_length_a   9.71372836
_cell_length_b   11.17021567
_cell_length_c   15.12094999
_cell_angle_alpha   100.51647305
_cell_angle_beta   105.39755942
_cell_angle_gamma   105.02657451
_symmetry_Int_Tables_number   1
_chemical_formula_structural   Na2Zn3P8H60C28N4(ClO3)8
_chemical_formula_sum   'Na2 Zn3 P8 H60 C28 N4 Cl8 O24'
_cell_volume   1470.99624383
_cell_formula_units_Z   1
loop_
 _symmetry_equiv_pos_site_id
 _symmetry_equiv_pos_as_xyz
  1  'x, y, z'
loop_
 _atom_site_type_symbol
 _atom_site_label
 _atom_site_symmetry_multiplicity
 _atom_site_fract_x
 _atom_site_fract_y
 _atom_site_fract_z
 _atom_site_occupancy
 _atom_site_hle17_bader_spin_density
 _atom_site_hle17_ddec_charge
 _atom_site_hle17_ddec_spin_density
 _atom_site_hle17_ddec_sum_bond_order
 _atom_site_hle17_magmom
 _atom_site_hse06_10hf_bader_spin_density
 _atom_site_hse06_10hf_ddec_charge
 _atom_site_hse06_10hf_ddec_spin_density
 _atom_site_hse06_10hf_ddec_sum_bond_order
 _atom_site_hse06_10hf_magmom
 _atom_site_hse06_bader_spin_density
 _atom_site_hse06_ddec_charge
 _atom_site_hse06_ddec_spin_density
 _atom_site_hse06_ddec_sum_bond_order
 _atom_site_hse06_magmom
 _atom_site_pbe_bader_spin_density
 _atom_site_pbe_cm5_charge
 _atom_site_pbe_ddec_charge
 _atom_site_pbe_ddec_spin_density
 _atom_site_pbe_ddec_sum_bond_order
 _atom_site_pbe_magmom
Na  Na0  1  0.33075262  0.02197932  0.97233896  1  0  0.922251  0  0.349961  0  0  0.895223  0  0.475978  0  0  0.902549  0  0.457047  0  0  0.685462  0.889383  0  0.49004  0
Na  Na1  1  0.66924762  0.97802398  0.02766169  1  0  0.922251  0  0.349934  0  0  0.895213  0  0.475947  0  0  0.902535  0  0.457034  0  0  0.685422  0.889373  0  0.490009  0
Zn  Zn2  1  0.49999816  0.49999764  0.00000350  1  0  1.310582  0  1.666459  0  0  1.167012  0  2.112121  0  0  1.206895  0  2.054551  0  0  0.700435  1.1385  0  2.152237  0
Zn  Zn3  1  0.19160858  0.19420335  0.10838006  1  0  1.289377  0  1.703738  0  0  1.131673  0  2.172512  0  0  1.174233  0  2.111047  0  0  0.725499  1.101024  0  2.215773  0
Zn  Zn4  1  0.80839921  0.80580571  0.89162001  1  0  1.289314  0  1.703952  0  0  1.131617  0  2.172777  0  0  1.174183  0  2.111306  0  0  0.725452  1.100964  0  2.216028  0
P  P5  1  0.54707710  0.31536198  0.14982818  1  0  1.372738  0  4.898733  0  0  1.206921  0  5.398925  0  0  1.256504  0  5.363218  0  0  0.351836  1.172748  0  5.422844  0
P  P6  1  0.45291967  0.68462399  0.85016489  1  0  1.372745  0  4.898277  0  0  1.206843  0  5.398402  0  0  1.256433  0  5.36268  0  0  0.351914  1.172669  0  5.422307  0
P  P7  1  0.37527979  0.50624331  0.18113294  1  0  1.282183  0  4.947191  0  0  1.113268  0  5.444694  0  0  1.159858  0  5.41885  0  0  0.364378  1.081178  0  5.461256  0
P  P8  1  0.62470585  0.49375810  0.81886431  1  0  1.282237  0  4.946538  0  0  1.113298  0  5.443919  0  0  1.159892  0  5.418078  0  0  0.364358  1.081214  0  5.460482  0
P  P9  1  0.07442859  0.88157889  0.08876860  1  0  1.408815  0  4.814073  0  0  1.241922  0  5.310104  0  0  1.292346  0  5.273613  0  0  0.368347  1.206761  0  5.334826  0
P  P10  1  0.92557026  0.11842635  0.91122943  1  0  1.408689  0  4.814149  0  0  1.241746  0  5.310269  0  0  1.292189  0  5.273771  0  0  0.36825  1.206572  0  5.334997  0
P  P11  1  0.98078264  0.06340142  0.22318969  1  0  1.289565  0  4.972146  0  0  1.124604  0  5.477139  0  0  1.170892  0  5.450077  0  0  0.353213  1.092612  0  5.495041  0
P  P12  1  0.01922498  0.93659607  0.77681407  1  0  1.289674  0  4.972025  0  0  1.12482  0  5.476833  0  0  1.17113  0  5.44973  0  0  0.353262  1.092834  0  5.494721  0
H  H13  1  0.21767653  0.30089633  0.94278566  1  0  0.444465  0  0.852154  0  0  0.413599  0  0.914474  0  0  0.423637  0  0.899954  0  0  0.297837  0.406407  0  0.924912  0
H  H14  1  0.78232265  0.69910698  0.05721349  1  0  0.444472  0  0.852142  0  0  0.413612  0  0.914449  0  0  0.42365  0  0.89993  0  0  0.297857  0.40642  0  0.924887  0
H  H15  1  0.28887879  0.31441939  0.86174270  1  0  0.419693  0  0.844368  0  0  0.391904  0  0.920747  0  0  0.400362  0  0.910529  0  0  0.303526  0.385506  0  0.928892  0
H  H16  1  0.71111816  0.68557814  0.13825793  1  0  0.419667  0  0.844408  0  0  0.39188  0  0.920792  0  0  0.400337  0  0.910574  0  0  0.303518  0.385477  0  0.928938  0
H  H17  1  0.57823082  0.22303777  0.99188759  1  0  0.43284  0  0.864307  0  0  0.406913  0  0.91966  0  0  0.416646  0  0.905229  0  0  0.298323  0.400019  0  0.929903  0
H  H18  1  0.42176836  0.77696553  0.00811420  1  0  0.432928  0  0.864189  0  0  0.407005  0  0.919545  0  0  0.416742  0  0.905106  0  0  0.298358  0.400112  0  0.929784  0
H  H19  1  0.62604998  0.14196736  0.91802491  1  0  0.436463  0  0.847277  0  0  0.411337  0  0.900074  0  0  0.420241  0  0.886915  0  0  0.311611  0.405052  0  0.909332  0
H  H20  1  0.37394915  0.85803306  0.08197384  1  0  0.436532  0  0.847193  0  0  0.411437  0  0.899943  0  0  0.420342  0  0.886781  0  0  0.311635  0.405152  0  0.9092  0
H  H21  1  0.83554075  0.41177074  0.16212602  1  0  0.090525  0  0.950588  0  0  0.105291  0  1.018281  0  0  0.106609  0  1.017219  0  0  0.10028  0.104378  0  1.018673  0
H  H22  1  0.16445978  0.58822774  0.83787403  1  0  0.090508  0  0.950524  0  0  0.105247  0  1.018267  0  0  0.106567  0  1.017202  0  0  0.100281  0.104333  0  1.018665  0
H  H23  1  0.88411309  0.27036922  0.17735491  1  0  0.109367  0  0.958228  0  0  0.127288  0  1.016725  0  0  0.129337  0  1.015014  0  0  0.107398  0.125722  0  1.017902  0
H  H24  1  0.11588493  0.72962831  0.82264524  1  0  0.109307  0  0.958259  0  0  0.127231  0  1.016759  0  0  0.12928  0  1.015047  0  0  0.107391  0.125668  0  1.01793  0
H  H25  1  0.90670844  0.39289657  0.27940965  1  0  0.079599  0  0.950663  0  0  0.093442  0  1.022145  0  0  0.094337  0  1.021226  0  0  0.094038  0.092887  0  1.022454  0
H  H26  1  0.09329209  0.60710191  0.72058973  1  0  0.079559  0  0.950681  0  0  0.093408  0  1.022162  0  0  0.094303  0  1.021242  0  0  0.094044  0.092853  0  1.022474  0
H  H27  1  0.21596078  0.48362935  0.30446709  1  0  0.071204  0  0.936756  0  0  0.091112  0  0.994395  0  0  0.091404  0  0.995018  0  0  0.106753  0.090787  0  0.99405  0
H  H28  1  0.78404016  0.51637298  0.69553421  1  0  0.071215  0  0.936733  0  0  0.091122  0  0.994359  0  0  0.091414  0  0.994979  0  0  0.106744  0.090799  0  0.994013  0
H  H29  1  0.17106339  0.62732714  0.30003255  1  0  0.040236  0  0.940986  0  0  0.054886  0  1.013689  0  0  0.055333  0  1.01318  0  0  0.08692  0.054848  0  1.013313  0
H  H30  1  0.82893398  0.37267423  0.69996933  1  0  0.040274  0  0.94098  0  0  0.054934  0  1.013644  0  0  0.055375  0  1.013137  0  0  0.086957  0.054899  0  1.013268  0
H  H31  1  0.43816044  0.60142669  0.44893128  1  0  0.060887  0  0.949135  0  0  0.074962  0  1.018082  0  0  0.075851  0  1.018151  0  0  0.077337  0.074257  0  1.018073  0
H  H32  1  0.56184087  0.39857661  0.55106889  1  0  0.060878  0  0.949099  0  0  0.074963  0  1.018048  0  0  0.075856  0  1.018111  0  0  0.077333  0.074253  0  1.018041  0
H  H33  1  0.27651631  0.63116787  0.46816993  1  0  0.065826  0  0.948058  0  0  0.084232  0  1.009166  0  0  0.084622  0  1.010091  0  0  0.086235  0.083773  0  1.008846  0
H  H34  1  0.72348357  0.36883447  0.53183052  1  0  0.065798  0  0.948129  0  0  0.084203  0  1.009237  0  0  0.084594  0  1.010164  0  0  0.086214  0.083747  0  1.008913  0
H  H35  1  0.34631008  0.84180755  0.43082093  1  0  0.054216  0  0.950962  0  0  0.069926  0  1.019756  0  0  0.070533  0  1.02041  0  0  0.080172  0.069494  0  1.019275  0
H  H36  1  0.65369012  0.15819286  0.56917734  1  0  0.054233  0  0.950954  0  0  0.069927  0  1.019766  0  0  0.070534  0  1.020419  0  0  0.080174  0.069498  0  1.019281  0
H  H37  1  0.49943925  0.83610841  0.52267618  1  0  0.058385  0  0.949688  0  0  0.074964  0  1.013709  0  0  0.075779  0  1.013846  0  0  0.07817  0.074278  0  1.013765  0
H  H38  1  0.50055886  0.16389490  0.47732345  1  0  0.058378  0  0.949766  0  0  0.074974  0  1.01376  0  0  0.075789  0  1.013902  0  0  0.078181  0.074296  0  1.013814  0
H  H39  1  0.58021842  0.92338531  0.39430286  1  0  0.068483  0  0.943402  0  0  0.090844  0  0.997808  0  0  0.091135  0  0.99897  0  0  0.089718  0.090479  0  0.997165  0
H  H40  1  0.41978502  0.07661798  0.60569767  1  0  0.068448  0  0.943438  0  0  0.090794  0  0.99787  0  0  0.091082  0  0.999035  0  0  0.089707  0.090451  0  0.997199  0
H  H41  1  0.62657614  0.78183008  0.40472670  1  0  0.057503  0  0.956066  0  0  0.071755  0  1.028005  0  0  0.072878  0  1.027748  0  0  0.079165  0.070948  0  1.028049  0
H  H42  1  0.37341979  0.21817035  0.59527216  1  0  0.05746  0  0.95604  0  0  0.071741  0  1.027962  0  0  0.072856  0  1.027706  0  0  0.07915  0.07093  0  1.028015  0
H  H43  1  0.35531894  0.80230314  0.25635841  1  0  0.046815  0  0.9692  0  0  0.056087  0  1.04893  0  0  0.056847  0  1.048454  0  0  0.085077  0.055491  0  1.049218  0
H  H44  1  0.64468130  0.19770016  0.74364224  1  0  0.04682  0  0.969231  0  0  0.056114  0  1.048929  0  0  0.056857  0  1.048467  0  0  0.085075  0.055517  0  1.049217  0
H  H45  1  0.51201218  0.76602421  0.23419716  1  0  0.07236  0  0.931401  0  0  0.091794  0  0.98738  0  0  0.09301  0  0.986278  0  0  0.107399  0.090705  0  0.988508  0
H  H46  1  0.48798691  0.23397331  0.76580250  1  0  0.072394  0  0.931369  0  0  0.091818  0  0.987362  0  0  0.093034  0  0.986257  0  0  0.107411  0.090735  0  0.988484  0
H  H47  1  0.06010528  0.60841425  0.11478793  1  0  0.08913  0  0.933572  0  0  0.103104  0  1.002974  0  0  0.104195  0  1.002089  0  0  0.098723  0.102227  0  1.003757  0
H  H48  1  0.93989594  0.39158327  0.88520747  1  0  0.089158  0  0.933551  0  0  0.103143  0  1.002934  0  0  0.104239  0  1.00204  0  0  0.098737  0.102264  0  1.003725  0
H  H49  1  0.18120244  0.60448306  0.04354314  1  0  0.112855  0  0.933463  0  0  0.130057  0  0.992616  0  0  0.131482  0  0.99186  0  0  0.10979  0.128845  0  0.993523  0
H  H50  1  0.81879632  0.39551640  0.95645541  1  0  0.112809  0  0.933441  0  0  0.130016  0  0.992606  0  0  0.131441  0  0.991848  0  0  0.109758  0.128803  0  0.993509  0
H  H51  1  0.99801993  0.62088663  0.99463039  1  0  0.099631  0  0.952971  0  0  0.117014  0  1.014976  0  0  0.118115  0  1.01481  0  0  0.105693  0.116172  0  1.01517  0
H  H52  1  0.00198097  0.37911281  0.00536786  1  0  0.099667  0  0.952988  0  0  0.117036  0  1.015007  0  0  0.118136  0  1.014844  0  0  0.1057  0.116192  0  1.015204  0
H  H53  1  0.97414990  0.01053983  0.43045076  1  0  0.0371  0  0.950184  0  0  0.052959  0  1.0215  0  0  0.053341  0  1.02121  0  0  0.087215  0.052617  0  1.021771  0
H  H54  1  0.02585063  0.98945865  0.56954995  1  0  0.037108  0  0.950227  0  0  0.052932  0  1.02157  0  0  0.053313  0  1.021284  0  0  0.087188  0.052592  0  1.02184  0
H  H55  1  0.81316167  0.98387968  0.33002803  1  0  0.074969  0  0.934913  0  0  0.094174  0  0.992219  0  0  0.094926  0  0.992123  0  0  0.109077  0.093589  0  0.992319  0
H  H56  1  0.18683709  0.01611977  0.66997250  1  0  0.074974  0  0.934925  0  0  0.094185  0  0.992209  0  0  0.094935  0  0.99212  0  0  0.109086  0.093604  0  0.992311  0
H  H57  1  0.79831013  0.10156453  0.48500760  1  0  0.063354  0  0.95175  0  0  0.079561  0  1.018244  0  0  0.08034  0  1.018266  0  0  0.086618  0.078861  0  1.018461  0
H  H58  1  0.20169114  0.89843587  0.51499349  1  0  0.063309  0  0.951744  0  0  0.079537  0  1.018229  0  0  0.080314  0  1.018252  0  0  0.086614  0.078837  0  1.018449  0
H  H59  1  0.78486459  0.18982576  0.39832031  1  0  0.079398  0  0.914715  0  0  0.100175  0  0.968077  0  0  0.101205  0  0.968269  0  0  0.093215  0.099324  0  0.96812  0
H  H60  1  0.21513742  0.81017657  0.60167984  1  0  0.07938  0  0.914712  0  0  0.100165  0  0.968081  0  0  0.101194  0  0.968273  0  0  0.093212  0.099315  0  0.968124  0
H  H61  1  0.06767514  0.22638644  0.56526470  1  0  0.047759  0  0.961877  0  0  0.062713  0  1.034893  0  0  0.063107  0  1.035295  0  0  0.07337  0.062421  0  1.034599  0
H  H62  1  0.93232473  0.77361590  0.43473509  1  0  0.047791  0  0.961852  0  0  0.062749  0  1.034861  0  0  0.063145  0  1.035262  0  0  0.07339  0.062462  0  1.034565  0
H  H63  1  0.96359187  0.33461725  0.55665424  1  0  0.05786  0  0.944725  0  0  0.076885  0  1.005586  0  0  0.077551  0  1.005953  0  0  0.081718  0.076371  0  1.005311  0
H  H64  1  0.03641009  0.66538220  0.44334485  1  0  0.057934  0  0.944655  0  0  0.076952  0  1.005522  0  0  0.077617  0  1.00589  0  0  0.081762  0.076441  0  1.005242  0
H  H65  1  0.03152556  0.37703346  0.41465035  1  0  0.061854  0  0.942871  0  0  0.084887  0  0.997057  0  0  0.085582  0  0.997426  0  0  0.087309  0.084235  0  0.99704  0
H  H66  1  0.96847710  0.62296501  0.58535006  1  0  0.061888  0  0.942756  0  0  0.084913  0  0.99697  0  0  0.085599  0  0.997355  0  0  0.087334  0.084264  0  0.996953  0
H  H67  1  0.19818268  0.40583804  0.51078242  1  0  0.062666  0  0.959981  0  0  0.07507  0  1.031634  0  0  0.075984  0  1.031816  0  0  0.080202  0.074311  0  1.031677  0
H  H68  1  0.80181785  0.59416045  0.48921564  1  0  0.062657  0  0.959958  0  0  0.075083  0  1.03161  0  0  0.075998  0  1.031789  0  0  0.080206  0.074325  0  1.03165  0
H  H69  1  0.20034712  0.27661618  0.35560641  1  0  0.064336  0  0.960601  0  0  0.078307  0  1.030013  0  0  0.078843  0  1.030133  0  0  0.098775  0.077747  0  1.03025  0
H  H70  1  0.79965410  0.72338134  0.64439296  1  0  0.064333  0  0.960593  0  0  0.078297  0  1.03002  0  0  0.078815  0  1.030157  0  0  0.098767  0.077738  0  1.030253  0
H  H71  1  0.21789885  0.19549397  0.44678658  1  0  0.042525  0  0.935113  0  0  0.059805  0  1.001966  0  0  0.059894  0  1.002185  0  0  0.088701  0.059652  0  1.001858  0
H  H72  1  0.78210060  0.80450452  0.55321328  1  0  0.042526  0  0.935117  0  0  0.059818  0  1.001945  0  0  0.059908  0  1.002162  0  0  0.088712  0.059665  0  1.001835  0
C  C73  1  0.53113280  0.44583590  0.23820476  1  0  -0.320619  0  3.574232  0  0  -0.274441  0  3.846964  0  0  -0.280472  0  3.850943  0  0  0.028074  -0.270644  0  3.844481  0
C  C74  1  0.46887566  0.55416930  0.76180085  1  0  -0.320978  0  3.574951  0  0  -0.27434  0  3.846849  0  0  -0.280365  0  3.850804  0  0  0.028047  -0.270577  0  3.844458  0
C  C75  1  0.08870327  0.94602632  0.21437306  1  0  -0.313386  0  3.54634  0  0  -0.267072  0  3.819329  0  0  -0.273283  0  3.82316  0  0  0.03025  -0.263277  0  3.817204  0
C  C76  1  0.91129479  0.05397410  0.78562484  1  0  -0.313561  0  3.546571  0  0  -0.267356  0  3.819772  0  0  -0.273571  0  3.823601  0  0  0.030208  -0.263554  0  3.817641  0
C  C77  1  0.83799184  0.34275513  0.20511820  1  0  -0.035385  0  3.573321  0  0  -0.136535  0  3.840863  0  0  -0.129733  0  3.842732  0  0  -0.136135  -0.140678  0  3.83896  0
C  C78  1  0.16200512  0.65724240  0.79488111  1  0  -0.035186  0  3.573328  0  0  -0.136342  0  3.840901  0  0  -0.129535  0  3.84277  0  0  -0.136088  -0.140484  0  3.838997  0
C  C79  1  0.26515254  0.58850016  0.32081608  1  0  0.049075  0  3.655925  0  0  -0.011732  0  3.915469  0  0  -0.006817  0  3.928093  0  0  -0.062658  -0.014937  0  3.906616  0
C  C80  1  0.73484553  0.41150025  0.67918513  1  0  0.048937  0  3.65615  0  0  -0.011837  0  3.915642  0  0  -0.00691  0  3.928264  0  0  -0.062734  -0.015051  0  3.906793  0
C  C81  1  0.35372689  0.64913864  0.42683395  1  0  -0.139371  0  3.696359  0  0  -0.178161  0  3.956287  0  0  -0.179995  0  3.971255  0  0  -0.1731  -0.176741  0  3.946113  0
C  C82  1  0.64627368  0.35086274  0.57316584  1  0  -0.139289  0  3.696365  0  0  -0.178087  0  3.956251  0  0  -0.179924  0  3.971222  0  0  -0.173062  -0.176667  0  3.946086  0
C  C83  1  0.43235394  0.79379481  0.44675861  1  0  -0.099483  0  3.68591  0  0  -0.136128  0  3.943821  0  0  -0.137281  0  3.959209  0  0  -0.17048  -0.135198  0  3.93315  0
C  C84  1  0.56764520  0.20620561  0.55324146  1  0  -0.099536  0  3.686033  0  0  -0.136177  0  3.943938  0  0  -0.13733  0  3.959324  0  0  -0.170507  -0.135256  0  3.933273  0
C  C85  1  0.53178431  0.81932598  0.38440479  1  0  -0.13522  0  3.696299  0  0  -0.176846  0  3.958606  0  0  -0.178608  0  3.973025  0  0  -0.171484  -0.175296  0  3.948434  0
C  C86  1  0.46821556  0.18067636  0.61559567  1  0  -0.135144  0  3.696287  0  0  -0.176794  0  3.958593  0  0  -0.17854  0  3.973005  0  0  -0.171468  -0.175256  0  3.948432  0
C  C87  1  0.44042193  0.75553555  0.27931615  1  0  0.043572  0  3.651711  0  0  -0.016497  0  3.911995  0  0  -0.011725  0  3.924062  0  0  -0.067186  -0.019414  0  3.903403  0
C  C88  1  0.55958008  0.24446678  0.72068467  1  0  0.043558  0  3.651884  0  0  -0.016513  0  3.912141  0  0  -0.011718  0  3.924202  0  0  -0.067199  -0.019438  0  3.903554  0
C  C89  1  0.09570971  0.64433341  0.05886938  1  0  -0.033392  0  3.546529  0  0  -0.129334  0  3.805606  0  0  -0.122749  0  3.808242  0  0  -0.134079  -0.1338  0  3.804405  0
C  C90  1  0.90429192  0.35566797  0.94112860  1  0  -0.033438  0  3.546572  0  0  -0.129405  0  3.805639  0  0  -0.12281  0  3.808277  0  0  -0.134062  -0.133868  0  3.804434  0
C  C91  1  0.91107798  0.05853701  0.38457456  1  0  0.041358  0  3.668346  0  0  -0.021558  0  3.932426  0  0  -0.016869  0  3.944818  0  0  -0.065053  -0.024556  0  3.923725  0
C  C92  1  0.08892148  0.94146147  0.61542531  1  0  0.041254  0  3.668406  0  0  -0.021617  0  3.932457  0  0  -0.016928  0  3.944852  0  0  -0.065039  -0.024618  0  3.923761  0
C  C93  1  0.86182541  0.15320323  0.44537745  1  0  -0.130958  0  3.678577  0  0  -0.170324  0  3.941592  0  0  -0.171821  0  3.955311  0  0  -0.167244  -0.16918  0  3.932186  0
C  C94  1  0.13817368  0.84679429  0.55462089  1  0  -0.130831  0  3.6785  0  0  -0.170241  0  3.94157  0  0  -0.171736  0  3.955291  0  0  -0.167236  -0.169098  0  3.932166  0
C  C95  1  0.99883898  0.26467320  0.51427885  1  0  -0.109653  0  3.713725  0  0  -0.149117  0  3.976667  0  0  -0.149991  0  3.991918  0  0  -0.175465  -0.14837  0  3.966032  0
C  C96  1  0.00116085  0.73532625  0.48571988  1  0  -0.109796  0  3.713655  0  0  -0.14925  0  3.976656  0  0  -0.150121  0  3.991902  0  0  -0.175522  -0.148509  0  3.966029  0
C  C97  1  0.09544474  0.33029361  0.46070709  1  0  -0.128449  0  3.685601  0  0  -0.166596  0  3.942399  0  0  -0.168397  0  3.95689  0  0  -0.169794  -0.165236  0  3.932576  0
C  C98  1  0.90455723  0.66970583  0.53929333  1  0  -0.128439  0  3.685444  0  0  -0.166627  0  3.942322  0  0  -0.168419  0  3.956807  0  0  -0.169811  -0.16527  0  3.9325  0
C  C99  1  0.14060331  0.23234605  0.39962901  1  0  0.045855  0  3.662559  0  0  -0.015063  0  3.922899  0  0  -0.010276  0  3.935982  0  0  -0.067003  -0.018165  0  3.913891  0
C  C100  1  0.85939685  0.76765146  0.60037084  1  0  0.045816  0  3.662551  0  0  -0.015077  0  3.922882  0  0  -0.010277  0  3.935969  0  0  -0.067002  -0.01818  0  3.913872  0
N  N101  1  0.36185420  0.61770219  0.26245131  1  0  -0.447615  0  3.348836  0  0  -0.344867  0  3.606323  0  0  -0.366882  0  3.621632  0  0  -0.330083  -0.329939  0  3.595469  0
N  N102  1  0.63814340  0.38229149  0.73754163  1  0  -0.447545  0  3.348901  0  0  -0.344908  0  3.606581  0  0  -0.366947  0  3.621904  0  0  -0.329985  -0.329968  0  3.595717  0
N  N103  1  0.00726887  0.12485805  0.33647423  1  0  -0.446494  0  3.341272  0  0  -0.343186  0  3.59734  0  0  -0.365399  0  3.613337  0  0  -0.328466  -0.327603  0  3.585473  0
N  N104  1  0.99273416  0.87514138  0.66352902  1  0  -0.446428  0  3.341018  0  0  -0.343172  0  3.597131  0  0  -0.365378  0  3.6131  0  0  -0.328522  -0.327596  0  3.585272  0
Cl  Cl105  1  0.70564411  0.57648651  0.28451442  1  0  -0.046235  0  1.434211  0  0  -0.026642  0  1.683976  0  0  -0.029032  0  1.675793  0  0  0.031071  -0.025205  0  1.690185  0
Cl  Cl106  1  0.29435970  0.42351774  0.71548895  1  0  -0.046154  0  1.434211  0  0  -0.026672  0  1.683801  0  0  -0.029058  0  1.67561  0  0  0.031117  -0.025224  0  1.690029  0
Cl  Cl107  1  0.49458520  0.38358583  0.33367240  1  0  -0.041339  0  1.37965  0  0  -0.029736  0  1.616373  0  0  -0.030543  0  1.607821  0  0  0.020822  -0.028884  0  1.622994  0
Cl  Cl108  1  0.50540995  0.61640977  0.66632700  1  0  -0.041186  0  1.379705  0  0  -0.029694  0  1.616242  0  0  -0.0305  0  1.607683  0  0  0.020898  -0.028835  0  1.62288  0
Cl  Cl109  1  0.28462664  0.02741708  0.28163253  1  0  -0.042453  0  1.381019  0  0  -0.028086  0  1.61494  0  0  -0.028811  0  1.606146  0  0  0.024171  -0.027737  0  1.621262  0
Cl  Cl110  1  0.71536847  0.97257563  0.71837044  1  0  -0.042416  0  1.381082  0  0  -0.028026  0  1.615044  0  0  -0.028753  0  1.606246  0  0  0.024162  -0.02768  0  1.621355  0
Cl  Cl111  1  0.01696886  0.81649567  0.26153571  1  0  -0.049746  0  1.39844  0  0  -0.03446  0  1.645202  0  0  -0.036128  0  1.636664  0  0  0.021281  -0.033598  0  1.651609  0
Cl  Cl112  1  0.98303713  0.18351146  0.73847041  1  0  -0.049715  0  1.398505  0  0  -0.034406  0  1.645315  0  0  -0.036076  0  1.636776  0  0  0.021296  -0.033546  0  1.65172  0
O  O113  1  0.28533917  0.36319955  0.92090601  1  0  -0.844806  0  1.921024  0  0  -0.794997  0  2.141007  0  0  -0.814089  0  2.111229  0  0  -0.576503  -0.781482  0  2.162399  0
O  O114  1  0.71466390  0.63680278  0.07909432  1  0  -0.844804  0  1.92104  0  0  -0.794983  0  2.140985  0  0  -0.814076  0  2.111207  0  0  -0.576535  -0.781468  0  2.162375  0
O  O115  1  0.56908545  0.13310181  0.96231918  1  0  -0.905599  0  1.724962  0  0  -0.867316  0  1.879979  0  0  -0.881077  0  1.84779  0  0  -0.683741  -0.85728  0  1.902539  0
O  O116  1  0.43091516  0.86690245  0.03768100  1  0  -0.905746  0  1.724831  0  0  -0.867499  0  1.879753  0  0  -0.881262  0  1.847562  0  0  -0.683795  -0.857464  0  1.902313  0
O  O117  1  0.57580064  0.36585724  0.06779674  1  0  -0.840765  0  2.072658  0  0  -0.752486  0  2.335137  0  0  -0.779596  0  2.314992  0  0  -0.348901  -0.733189  0  2.348274  0
O  O118  1  0.42420059  0.63414027  0.93220594  1  0  -0.840747  0  2.072461  0  0  -0.752524  0  2.334945  0  0  -0.779666  0  2.314871  0  0  -0.348963  -0.733242  0  2.34813  0
O  O119  1  0.40707085  0.19929449  0.12450250  1  0  -0.863013  0  2.066924  0  0  -0.786367  0  2.365613  0  0  -0.812068  0  2.341063  0  0  -0.391834  -0.768331  0  2.38228  0
O  O120  1  0.59293495  0.80070110  0.87549011  1  0  -0.863013  0  2.066731  0  0  -0.786338  0  2.365362  0  0  -0.812033  0  2.340808  0  0  -0.391859  -0.768291  0  2.382028  0
O  O121  1  0.68653808  0.27655205  0.20326659  1  0  -0.443846  0  2.252447  0  0  -0.355393  0  2.505534  0  0  -0.374845  0  2.496796  0  0  -0.212203  -0.342074  0  2.511009  0
O  O122  1  0.31344928  0.72344552  0.79672844  1  0  -0.44396  0  2.252294  0  0  -0.355466  0  2.505348  0  0  -0.374928  0  2.496622  0  0  -0.212294  -0.342142  0  2.510827  0
O  O123  1  0.42816067  0.56829884  0.10972691  1  0  -0.814548  0  2.051073  0  0  -0.731602  0  2.332146  0  0  -0.758325  0  2.313023  0  0  -0.361893  -0.712524  0  2.344728  0
O  O124  1  0.57183202  0.43169870  0.89027432  1  0  -0.814503  0  2.050825  0  0  -0.731555  0  2.331881  0  0  -0.758274  0  2.312741  0  0  -0.361876  -0.71248  0  2.344457  0
O  O125  1  0.23430206  0.38952146  0.14681108  1  0  -0.809708  0  2.040604  0  0  -0.725118  0  2.326715  0  0  -0.752057  0  2.306733  0  0  -0.362552  -0.705891  0  2.339386  0
O  O126  1  0.76569970  0.61048860  0.85318480  1  0  -0.809727  0  2.040177  0  0  -0.725225  0  2.326338  0  0  -0.752169  0  2.306351  0  0  -0.362611  -0.705999  0  2.339007  0
O  O127  1  0.15703588  0.99109915  0.05769673  1  0  -0.867461  0  2.069175  0  0  -0.795425  0  2.362213  0  0  -0.820952  0  2.339421  0  0  -0.406298  -0.777052  0  2.377508  0
O  O128  1  0.84296140  0.00889645  0.94230237  1  0  -0.86737  0  2.068917  0  0  -0.795342  0  2.362011  0  0  -0.820878  0  2.339225  0  0  -0.40627  -0.776959  0  2.377306  0
O  O129  1  0.90956392  0.80963332  0.03030788  1  0  -0.8384  0  2.097739  0  0  -0.741698  0  2.370336  0  0  -0.769396  0  2.347871  0  0  -0.342977  -0.722108  0  2.385736  0
O  O130  1  0.09043053  0.19036325  0.96969087  1  0  -0.838352  0  2.09782  0  0  -0.741627  0  2.370412  0  0  -0.769326  0  2.347945  0  0  -0.342881  -0.722032  0  2.385819  0
O  O131  1  0.16876087  0.78309791  0.09311583  1  0  -0.480908  0  2.320358  0  0  -0.385121  0  2.569773  0  0  -0.406626  0  2.563082  0  0  -0.214948  -0.370107  0  2.574285  0
O  O132  1  0.83123543  0.21690347  0.90688257  1  0  -0.480855  0  2.320458  0  0  -0.385002  0  2.569826  0  0  -0.40654  0  2.56316  0  0  -0.214955  -0.369981  0  2.574338  0
O  O133  1  0.06161370  0.17077146  0.18732524  1  0  -0.834794  0  2.105004  0  0  -0.747652  0  2.407408  0  0  -0.774729  0  2.383874  0  0  -0.364071  -0.728589  0  2.423174  0
O  O134  1  0.93839507  0.82923182  0.81267619  1  0  -0.83473  0  2.105098  0  0  -0.74759  0  2.407459  0  0  -0.774672  0  2.38392  0  0  -0.364019  -0.728527  0  2.423216  0
O  O135  1  0.81831062  0.98672152  0.17103118  1  0  -0.838728  0  1.893376  0  0  -0.782589  0  2.143799  0  0  -0.804358  0  2.125122  0  0  -0.460805  -0.767251  0  2.156279  0
O  O136  1  0.18168982  0.01327118  0.82897070  1  0  -0.838735  0  1.893389  0  0  -0.782606  0  2.143787  0  0  -0.804379  0  2.125095  0  0  -0.460833  -0.767275  0  2.156271  0
