# generated using pymatgen
data_GaH8C17O5F6
_symmetry_space_group_name_H-M   'P 1'
_cell_length_a   12.31217261
_cell_length_b   12.87122008
_cell_length_c   14.12056496
_cell_angle_alpha   117.07822525
_cell_angle_beta   105.67799069
_cell_angle_gamma   90.05715977
_symmetry_Int_Tables_number   1
_chemical_formula_structural   GaH8C17O5F6
_chemical_formula_sum   'Ga4 H32 C68 O20 F24'
_cell_volume   1898.13327664
_cell_formula_units_Z   4
loop_
 _symmetry_equiv_pos_site_id
 _symmetry_equiv_pos_as_xyz
  1  'x, y, z'
loop_
 _atom_site_type_symbol
 _atom_site_label
 _atom_site_symmetry_multiplicity
 _atom_site_fract_x
 _atom_site_fract_y
 _atom_site_fract_z
 _atom_site_occupancy
 _atom_site_hle17_bader_spin_density
 _atom_site_hle17_ddec_charge
 _atom_site_hle17_ddec_spin_density
 _atom_site_hle17_ddec_sum_bond_order
 _atom_site_hle17_magmom
 _atom_site_hse06_10hf_bader_spin_density
 _atom_site_hse06_10hf_ddec_charge
 _atom_site_hse06_10hf_ddec_spin_density
 _atom_site_hse06_10hf_ddec_sum_bond_order
 _atom_site_hse06_10hf_magmom
 _atom_site_hse06_bader_spin_density
 _atom_site_hse06_ddec_charge
 _atom_site_hse06_ddec_spin_density
 _atom_site_hse06_ddec_sum_bond_order
 _atom_site_hse06_magmom
 _atom_site_pbe_bader_spin_density
 _atom_site_pbe_cm5_charge
 _atom_site_pbe_ddec_charge
 _atom_site_pbe_ddec_spin_density
 _atom_site_pbe_ddec_sum_bond_order
 _atom_site_pbe_magmom
Ga  Ga0  1  0.74995042  0.90000404  0.00011420  1  0  1.54687  0  2.439771  0  0  1.395882  0  2.887329  0  0  1.438399  0  2.844036  0  0  0.546897  1.359366  0  2.918952  0
Ga  Ga1  1  0.25003637  0.10000098  0.99987833  1  0  1.546859  0  2.439883  0  0  1.395758  0  2.887537  0  0  1.438299  0  2.844218  0  0  0.546832  1.359232  0  2.919121  0
Ga  Ga2  1  0.99997562  0.99999698  0.00000078  1  0  1.567345  0  2.476096  0  0  1.418885  0  2.937423  0  0  1.469147  0  2.873411  0  0  0.557783  1.38028  0  2.975878  0
Ga  Ga3  1  0.49997250  0.00000672  0.00000700  1  0  1.566508  0  2.474727  0  0  1.417898  0  2.935909  0  0  1.468302  0  2.871825  0  0  0.557517  1.379125  0  2.974079  0
H  H4  1  0.67130331  0.35472824  0.23268512  1  0  0.114189  0  0.932031  0  0  0.122199  0  0.99104  0  0  0.12551  0  0.98935  0  0  0.112427  0.119557  0  0.992541  0
H  H5  1  0.82883732  0.12174110  0.76700948  1  0  0.11477  0  0.931713  0  0  0.122459  0  0.991038  0  0  0.125767  0  0.989362  0  0  0.112169  0.119805  0  0.992541  0
H  H6  1  0.32869108  0.64526623  0.76732543  1  0  0.114135  0  0.932237  0  0  0.122259  0  0.991125  0  0  0.125574  0  0.989422  0  0  0.112403  0.119609  0  0.992617  0
H  H7  1  0.17115218  0.87823572  0.23298338  1  0  0.114679  0  0.931807  0  0  0.122452  0  0.991045  0  0  0.125764  0  0.989361  0  0  0.112172  0.1198  0  0.992538  0
H  H8  1  0.38030719  0.43493162  0.04187629  1  0  0.114416  0  0.928473  0  0  0.122521  0  0.989326  0  0  0.126345  0  0.986686  0  0  0.109896  0.119712  0  0.991342  0
H  H9  1  0.11971689  0.39321587  0.95813341  1  0  0.114156  0  0.929072  0  0  0.122268  0  0.989809  0  0  0.126012  0  0.98727  0  0  0.109787  0.119514  0  0.991762  0
H  H10  1  0.61971259  0.56507251  0.95810335  1  0  0.114557  0  0.928466  0  0  0.122646  0  0.989311  0  0  0.126453  0  0.986688  0  0  0.109972  0.119837  0  0.991327  0
H  H11  1  0.88026878  0.60676538  0.04188232  1  0  0.114085  0  0.92908  0  0  0.122244  0  0.989773  0  0  0.125982  0  0.987239  0  0  0.109776  0.119494  0  0.991723  0
H  H12  1  0.74715992  0.56749267  0.34689586  1  0  0.106627  0  0.9451  0  0  0.117004  0  1.002145  0  0  0.120843  0  1.000036  0  0  0.102484  0.114684  0  1.003316  0
H  H13  1  0.75293556  0.22050496  0.65303343  1  0  0.107113  0  0.944301  0  0  0.117306  0  1.001436  0  0  0.121238  0  0.999212  0  0  0.102866  0.114937  0  1.002679  0
H  H14  1  0.25284632  0.43250797  0.65311730  1  0  0.106699  0  0.945147  0  0  0.117029  0  1.002259  0  0  0.120873  0  1.000143  0  0  0.102487  0.114712  0  1.003425  0
H  H15  1  0.24703520  0.77949477  0.34696436  1  0  0.107203  0  0.944378  0  0  0.117329  0  1.001578  0  0  0.121262  0  0.999353  0  0  0.102878  0.114965  0  1.002816  0
H  H16  1  0.45934660  0.64631720  0.14798348  1  0  0.105229  0  0.949583  0  0  0.114627  0  1.008384  0  0  0.117943  0  1.006495  0  0  0.101828  0.111985  0  1.010117  0
H  H17  1  0.04067392  0.49861061  0.85218139  1  0  0.104507  0  0.949381  0  0  0.114017  0  1.00816  0  0  0.117383  0  1.006213  0  0  0.101728  0.111374  0  1.009882  0
H  H18  1  0.54069143  0.35369047  0.85199709  1  0  0.105241  0  0.949684  0  0  0.114661  0  1.008441  0  0  0.117989  0  1.006538  0  0  0.101871  0.112022  0  1.010164  0
H  H19  1  0.95930847  0.50139532  0.14784020  1  0  0.104624  0  0.949519  0  0  0.114131  0  1.008287  0  0  0.117505  0  1.006331  0  0  0.101818  0.111496  0  1.010001  0
H  H20  1  0.54507720  0.69224527  0.44080431  1  0  0.100209  0  0.964769  0  0  0.107738  0  1.029889  0  0  0.110309  0  1.029222  0  0  0.097255  0.105471  0  1.031006  0
H  H21  1  0.95497365  0.25196171  0.55934976  1  0  0.100628  0  0.965213  0  0  0.108511  0  1.029827  0  0  0.111099  0  1.029202  0  0  0.097572  0.106237  0  1.030914  0
H  H22  1  0.45492088  0.30778003  0.55919722  1  0  0.100142  0  0.964983  0  0  0.107689  0  1.030072  0  0  0.110258  0  1.0294  0  0  0.097213  0.105438  0  1.031169  0
H  H23  1  0.04502979  0.74803100  0.44066085  1  0  0.100631  0  0.965366  0  0  0.108545  0  1.029936  0  0  0.111139  0  1.029301  0  0  0.097588  0.106283  0  1.031015  0
H  H24  1  0.87137728  0.87338128  0.49995080  1  0  0.099844  0  0.961814  0  0  0.109362  0  1.021793  0  0  0.112547  0  1.019934  0  0  0.097927  0.106646  0  1.023578  0
H  H25  1  0.62867312  0.37336904  0.50019343  1  0  0.099267  0  0.963345  0  0  0.109079  0  1.022921  0  0  0.112279  0  1.021036  0  0  0.097671  0.10636  0  1.024703  0
H  H26  1  0.12863323  0.12661846  0.50004602  1  0  0.099817  0  0.961831  0  0  0.109338  0  1.02179  0  0  0.112525  0  1.019927  0  0  0.097929  0.10663  0  1.023565  0
H  H27  1  0.37134121  0.62663424  0.49981003  1  0  0.099291  0  0.963241  0  0  0.109054  0  1.022873  0  0  0.112257  0  1.020987  0  0  0.097622  0.106348  0  1.024647  0
H  H28  1  0.93276792  0.89797933  0.69190697  1  0  0.115887  0  0.93447  0  0  0.122674  0  0.996484  0  0  0.125562  0  0.995033  0  0  0.114206  0.119568  0  0.998767  0
H  H29  1  0.56716620  0.20601693  0.30831473  1  0  0.11633  0  0.934649  0  0  0.123232  0  0.996491  0  0  0.126155  0  0.99503  0  0  0.11444  0.120093  0  0.998809  0
H  H30  1  0.06724207  0.10201071  0.30808713  1  0  0.11584  0  0.934469  0  0  0.12257  0  0.996548  0  0  0.125465  0  0.995089  0  0  0.114142  0.119482  0  0.998823  0
H  H31  1  0.43283772  0.79399693  0.69169837  1  0  0.116277  0  0.934739  0  0  0.123175  0  0.996603  0  0  0.126102  0  0.995135  0  0  0.114432  0.120068  0  0.998886  0
H  H32  1  0.60583757  0.72676012  0.63671103  1  0  0.109256  0  0.937857  0  0  0.118286  0  0.996977  0  0  0.121182  0  0.995106  0  0  0.108642  0.115438  0  0.999069  0
H  H33  1  0.89409327  0.09049143  0.36354669  1  0  0.108612  0  0.938204  0  0  0.117758  0  0.997363  0  0  0.120694  0  0.995408  0  0  0.108278  0.114902  0  0.999468  0
H  H34  1  0.39415643  0.27324844  0.36328755  1  0  0.109351  0  0.938126  0  0  0.11837  0  0.997214  0  0  0.121259  0  0.995349  0  0  0.108683  0.115532  0  0.999293  0
H  H35  1  0.10590903  0.90950480  0.63645944  1  0  0.108648  0  0.938078  0  0  0.117765  0  0.997291  0  0  0.120703  0  0.995334  0  0  0.108289  0.11492  0  0.999383  0
C  C36  1  0.46690915  0.25620669  0.07471575  1  0  0.678156  0  3.833899  0  0  0.622697  0  4.128559  0  0  0.660152  0  4.119604  0  0  0.256161  0.598289  0  4.134092  0
C  C37  1  0.03322771  0.18142049  0.92511209  1  0  0.676826  0  3.8346  0  0  0.621513  0  4.129114  0  0  0.658967  0  4.120207  0  0  0.255565  0.597112  0  4.134607  0
C  C38  1  0.53307169  0.74379922  0.92529200  1  0  0.678151  0  3.833995  0  0  0.622577  0  4.128882  0  0  0.66003  0  4.119898  0  0  0.256177  0.598174  0  4.134377  0
C  C39  1  0.96675826  0.81855366  0.07485757  1  0  0.676921  0  3.83379  0  0  0.621336  0  4.12875  0  0  0.658768  0  4.119846  0  0  0.255618  0.596967  0  4.134173  0
C  C40  1  0.52027047  0.38234570  0.13160467  1  0  -0.045633  0  3.728746  0  0  -0.029632  0  3.972117  0  0  -0.037536  0  3.994305  0  0  -0.007697  -0.025965  0  3.9585  0
C  C41  1  0.97986887  0.25063872  0.86821079  1  0  -0.044902  0  3.727009  0  0  -0.02935  0  3.970429  0  0  -0.037185  0  3.992498  0  0  -0.008586  -0.025742  0  3.956875  0
C  C42  1  0.47972195  0.61765846  0.86840375  1  0  -0.045773  0  3.728477  0  0  -0.029738  0  3.971912  0  0  -0.037658  0  3.994118  0  0  -0.007732  -0.026087  0  3.958309  0
C  C43  1  0.02012256  0.74932840  0.13178775  1  0  -0.044873  0  3.726663  0  0  -0.029267  0  3.970209  0  0  -0.037107  0  3.992305  0  0  -0.008747  -0.025685  0  3.956668  0
C  C44  1  0.62522891  0.41960309  0.21568142  1  0  -0.050279  0  3.70815  0  0  -0.076478  0  3.962039  0  0  -0.075048  0  3.980509  0  0  -0.07633  -0.076446  0  3.949224  0
C  C45  1  0.87493030  0.20372764  0.78410645  1  0  -0.051299  0  3.706576  0  0  -0.077215  0  3.960462  0  0  -0.075775  0  3.978898  0  0  -0.075793  -0.077165  0  3.947642  0
C  C46  1  0.37476000  0.58040636  0.78433046  1  0  -0.050148  0  3.708016  0  0  -0.076443  0  3.96186  0  0  -0.075008  0  3.980324  0  0  -0.076263  -0.076386  0  3.949018  0
C  C47  1  0.12506250  0.79626064  0.21588913  1  0  -0.051208  0  3.706856  0  0  -0.077154  0  3.960676  0  0  -0.075712  0  3.979104  0  0  -0.075759  -0.077088  0  3.947836  0
C  C48  1  0.46186693  0.46479733  0.10747805  1  0  -0.042377  0  3.696667  0  0  -0.07508  0  3.963884  0  0  -0.073872  0  3.982074  0  0  -0.077592  -0.076065  0  3.952263  0
C  C49  1  0.03822252  0.35735501  0.89245611  1  0  -0.042127  0  3.696421  0  0  -0.074563  0  3.963373  0  0  -0.0733  0  3.981558  0  0  -0.07708  -0.075591  0  3.951747  0
C  C50  1  0.53815169  0.53521212  0.89252404  1  0  -0.042446  0  3.696777  0  0  -0.075178  0  3.963998  0  0  -0.073959  0  3.982201  0  0  -0.077748  -0.076163  0  3.952379  0
C  C51  1  0.96175843  0.64262181  0.10754531  1  0  -0.041777  0  3.696738  0  0  -0.07426  0  3.963669  0  0  -0.072997  0  3.981865  0  0  -0.076889  -0.075277  0  3.952029  0
C  C52  1  0.66745993  0.53911573  0.27906771  1  0  -0.098293  0  3.71626  0  0  -0.127123  0  3.975461  0  0  -0.129099  0  3.993283  0  0  -0.089424  -0.125929  0  3.962435  0
C  C53  1  0.83266670  0.25995015  0.72082534  1  0  -0.09929  0  3.71409  0  0  -0.127473  0  3.973371  0  0  -0.129492  0  3.991104  0  0  -0.090316  -0.126269  0  3.960395  0
C  C54  1  0.33253594  0.46088932  0.72094617  1  0  -0.098313  0  3.715773  0  0  -0.127194  0  3.975061  0  0  -0.129156  0  3.992862  0  0  -0.089438  -0.126  0  3.962027  0
C  C55  1  0.16732445  0.74005047  0.27917423  1  0  -0.099402  0  3.714412  0  0  -0.127575  0  3.973753  0  0  -0.129583  0  3.991475  0  0  -0.090371  -0.126362  0  3.960757  0
C  C56  1  0.50640926  0.58418428  0.16867537  1  0  -0.104696  0  3.7243  0  0  -0.135438  0  3.991394  0  0  -0.137004  0  4.009791  0  0  -0.093244  -0.133745  0  3.978491  0
C  C57  1  0.99366322  0.41561599  0.83133934  1  0  -0.104553  0  3.723083  0  0  -0.135193  0  3.990566  0  0  -0.136802  0  4.008921  0  0  -0.093254  -0.133499  0  3.977675  0
C  C58  1  0.49361683  0.41583046  0.83133215  1  0  -0.104637  0  3.724347  0  0  -0.135405  0  3.991433  0  0  -0.136973  0  4.009825  0  0  -0.093168  -0.133699  0  3.978517  0
C  C59  1  0.00631985  0.58437582  0.16866525  1  0  -0.104959  0  3.723567  0  0  -0.135604  0  3.991105  0  0  -0.137209  0  4.009452  0  0  -0.093495  -0.133897  0  3.978193  0
C  C60  1  0.60783694  0.62295156  0.25745209  1  0  0.070251  0  3.716034  0  0  0.085903  0  3.957416  0  0  0.087555  0  3.98029  0  0  -0.013636  0.085421  0  3.940935  0
C  C61  1  0.89223619  0.36556890  0.74255031  1  0  0.07202  0  3.712907  0  0  0.086655  0  3.955609  0  0  0.088328  0  3.978458  0  0  -0.013138  0.08614  0  3.939168  0
C  C62  1  0.39217444  0.37704290  0.74255055  1  0  0.070153  0  3.7153  0  0  0.085828  0  3.956791  0  0  0.087476  0  3.979665  0  0  -0.01368  0.085339  0  3.940311  0
C  C63  1  0.10774873  0.63442996  0.25745551  1  0  0.072037  0  3.712978  0  0  0.08665  0  3.955638  0  0  0.088302  0  3.97851  0  0  -0.013065  0.086125  0  3.939207  0
C  C64  1  0.66016787  0.75363330  0.33282773  1  0  -0.274302  0  3.630464  0  0  -0.281777  0  3.856078  0  0  -0.28911  0  3.868393  0  0  -0.011179  -0.276224  0  3.847819  0
C  C65  1  0.83983714  0.42098899  0.66728950  1  0  -0.273945  0  3.62988  0  0  -0.281685  0  3.857622  0  0  -0.289194  0  3.869799  0  0  -0.010671  -0.276039  0  3.849387  0
C  C66  1  0.33983755  0.24635499  0.66717446  1  0  -0.274305  0  3.629791  0  0  -0.281889  0  3.855536  0  0  -0.289236  0  3.867858  0  0  -0.011219  -0.276332  0  3.847272  0
C  C67  1  0.16015819  0.57899311  0.33270343  1  0  -0.274099  0  3.630059  0  0  -0.281818  0  3.857429  0  0  -0.289318  0  3.869592  0  0  -0.010752  -0.276171  0  3.84919  0
C  C68  1  0.75682103  0.77410387  0.28843917  1  0  0.771655  0  3.611491  0  0  0.698195  0  3.954041  0  0  0.729123  0  3.92934  0  0  0.304712  0.676468  0  3.971322  0
C  C69  1  0.74313489  0.48543698  0.71179194  1  0  0.771788  0  3.60968  0  0  0.697913  0  3.952542  0  0  0.72916  0  3.92721  0  0  0.305041  0.675964  0  3.970267  0
C  C70  1  0.24318183  0.22590205  0.71156614  1  0  0.771765  0  3.611106  0  0  0.698178  0  3.953931  0  0  0.729119  0  3.929223  0  0  0.304647  0.676446  0  3.971215  0
C  C71  1  0.25686907  0.51457598  0.28820450  1  0  0.771812  0  3.610127  0  0  0.698041  0  3.952764  0  0  0.729288  0  3.927421  0  0  0.304978  0.676083  0  3.970503  0
C  C72  1  0.57301708  0.84089405  0.32816164  1  0  0.768785  0  3.614327  0  0  0.698761  0  3.954379  0  0  0.729231  0  3.93007  0  0  0.302919  0.676959  0  3.972133  0
C  C73  1  0.92686499  0.51329122  0.67213124  1  0  0.770339  0  3.613853  0  0  0.698994  0  3.956125  0  0  0.729799  0  3.931073  0  0  0.303142  0.677173  0  3.973874  0
C  C74  1  0.42697811  0.15909245  0.67182387  1  0  0.768749  0  3.614647  0  0  0.698797  0  3.954604  0  0  0.729293  0  3.930265  0  0  0.302773  0.676995  0  3.972356  0
C  C75  1  0.07315575  0.48669796  0.32787362  1  0  0.770059  0  3.614755  0  0  0.699012  0  3.956486  0  0  0.729796  0  3.931433  0  0  0.30315  0.677196  0  3.974234  0
C  C76  1  0.70417398  0.77857040  0.45523035  1  0  0.085951  0  3.704831  0  0  0.100721  0  3.942211  0  0  0.09997  0  3.969282  0  0  -0.008567  0.098387  0  3.927161  0
C  C77  1  0.79591575  0.32368512  0.54490471  1  0  0.084769  0  3.706116  0  0  0.100375  0  3.942502  0  0  0.099654  0  3.96956  0  0  -0.008656  0.098025  0  3.927431  0
C  C78  1  0.29581875  0.22143462  0.54476009  1  0  0.085942  0  3.70451  0  0  0.100833  0  3.941728  0  0  0.100088  0  3.96879  0  0  -0.008445  0.098522  0  3.926654  0
C  C79  1  0.20408534  0.67632080  0.45510796  1  0  0.084716  0  3.705813  0  0  0.100476  0  3.941893  0  0  0.099768  0  3.968934  0  0  -0.008571  0.098148  0  3.926801  0
C  C80  1  0.62984950  0.73836642  0.49565631  1  0  -0.105126  0  3.716887  0  0  -0.1294  0  3.971105  0  0  -0.134512  0  3.995609  0  0  -0.089372  -0.127609  0  3.957448  0
C  C81  1  0.87020766  0.24317900  0.50448044  1  0  -0.105547  0  3.716436  0  0  -0.130253  0  3.970243  0  0  -0.135371  0  3.994724  0  0  -0.089685  -0.128442  0  3.956571  0
C  C82  1  0.37015652  0.26163684  0.50433308  1  0  -0.104915  0  3.716904  0  0  -0.129302  0  3.971098  0  0  -0.134404  0  3.995581  0  0  -0.08927  -0.127519  0  3.957424  0
C  C83  1  0.12979002  0.75682076  0.49553098  1  0  -0.105576  0  3.716874  0  0  -0.130383  0  3.970635  0  0  -0.135499  0  3.995099  0  0  -0.089737  -0.128569  0  3.956934  0
C  C84  1  0.81280452  0.83836190  0.52735413  1  0  -0.123092  0  3.731347  0  0  -0.146737  0  3.987178  0  0  -0.150971  0  4.010353  0  0  -0.095912  -0.14334  0  3.973295  0
C  C85  1  0.68725796  0.31111402  0.47279085  1  0  -0.120876  0  3.732037  0  0  -0.144985  0  3.987324  0  0  -0.149218  0  4.010488  0  0  -0.094876  -0.141584  0  3.973418  0
C  C86  1  0.18720614  0.16162638  0.47263232  1  0  -0.123109  0  3.73196  0  0  -0.146798  0  3.987746  0  0  -0.151026  0  4.010913  0  0  -0.096024  -0.143395  0  3.973838  0
C  C87  1  0.31275675  0.68889280  0.52722620  1  0  -0.120991  0  3.731596  0  0  -0.145134  0  3.986872  0  0  -0.149367  0  4.010017  0  0  -0.094862  -0.14173  0  3.97294  0
C  C88  1  0.84779466  0.85354902  0.63583377  1  0  -0.038765  0  3.688523  0  0  -0.067436  0  3.9461  0  0  -0.067521  0  3.967967  0  0  -0.071339  -0.069176  0  3.93591  0
C  C89  1  0.65219548  0.21781265  0.36434645  1  0  -0.040509  0  3.688041  0  0  -0.069186  0  3.946197  0  0  -0.069272  0  3.967973  0  0  -0.07237  -0.070891  0  3.93596  0
C  C90  1  0.15221871  0.14644103  0.36416044  1  0  -0.038596  0  3.689045  0  0  -0.067299  0  3.946647  0  0  -0.067384  0  3.968496  0  0  -0.07123  -0.06905  0  3.936454  0
C  C91  1  0.34780706  0.78220386  0.63567236  1  0  -0.040246  0  3.687839  0  0  -0.068939  0  3.946013  0  0  -0.069018  0  3.967789  0  0  -0.072322  -0.070655  0  3.935745  0
C  C92  1  0.66352521  0.75643038  0.60468051  1  0  -0.046264  0  3.7044  0  0  -0.070396  0  3.955094  0  0  -0.070848  0  3.977381  0  0  -0.075473  -0.069723  0  3.942842  0
C  C93  1  0.83646232  0.15215857  0.39549108  1  0  -0.045993  0  3.703722  0  0  -0.070105  0  3.954863  0  0  -0.070573  0  3.977125  0  0  -0.075474  -0.069437  0  3.942576  0
C  C94  1  0.33648165  0.24357288  0.39530909  1  0  -0.046531  0  3.704848  0  0  -0.070669  0  3.955533  0  0  -0.0711  0  3.977793  0  0  -0.075607  -0.069981  0  3.943258  0
C  C95  1  0.16354250  0.84783766  0.60451637  1  0  -0.04594  0  3.703969  0  0  -0.070059  0  3.955178  0  0  -0.07052  0  3.977437  0  0  -0.075505  -0.069388  0  3.942861  0
C  C96  1  0.77344536  0.81277892  0.67519258  1  0  -0.033308  0  3.711839  0  0  -0.019666  0  3.953756  0  0  -0.027212  0  3.975099  0  0  -0.005692  -0.019268  0  3.944557  0
C  C97  1  0.72649861  0.13780035  0.32497174  1  0  -0.032074  0  3.708823  0  0  -0.019193  0  3.95198  0  0  -0.026637  0  3.973219  0  0  -0.005356  -0.018788  0  3.94272  0
C  C98  1  0.22656195  0.18720408  0.32479867  1  0  -0.033083  0  3.712032  0  0  -0.019421  0  3.95389  0  0  -0.026954  0  3.975217  0  0  -0.005526  -0.019016  0  3.944709  0
C  C99  1  0.27350034  0.86220822  0.67503867  1  0  -0.032245  0  3.709059  0  0  -0.019378  0  3.952278  0  0  -0.026828  0  3.973534  0  0  -0.005335  -0.018948  0  3.942979  0
C  C100  1  0.81024155  0.83354421  0.79275153  1  0  0.671049  0  3.846952  0  0  0.614791  0  4.148311  0  0  0.656506  0  4.141705  0  0  0.248589  0.589928  0  4.152011  0
C  C101  1  0.68967458  0.04095238  0.20744141  1  0  0.670428  0  3.845229  0  0  0.614096  0  4.147167  0  0  0.655845  0  4.140541  0  0  0.247966  0.589193  0  4.150739  0
C  C102  1  0.18974526  0.16646698  0.20724356  1  0  0.670985  0  3.846482  0  0  0.61461  0  4.147988  0  0  0.656332  0  4.141371  0  0  0.248498  0.589723  0  4.151709  0
C  C103  1  0.31034226  0.95905090  0.79256549  1  0  0.670263  0  3.845777  0  0  0.613848  0  4.147789  0  0  0.655585  0  4.141175  0  0  0.247771  0.588949  0  4.151336  0
O  O104  1  0.35918790  0.23709220  0.03318832  1  0  -0.585728  0  2.116444  0  0  -0.523636  0  2.370747  0  0  -0.550588  0  2.360196  0  0  -0.235776  -0.505058  0  2.377705  0
O  O105  1  0.14095473  0.20385680  0.96656744  1  0  -0.586033  0  2.115263  0  0  -0.523354  0  2.368564  0  0  -0.550481  0  2.358233  0  0  -0.235431  -0.504743  0  2.375466  0
O  O106  1  0.64079640  0.76292337  0.96678248  1  0  -0.585801  0  2.116769  0  0  -0.523783  0  2.371193  0  0  -0.550616  0  2.360525  0  0  -0.235875  -0.505123  0  2.37813  0
O  O107  1  0.85902485  0.79613941  0.03342749  1  0  -0.585995  0  2.115236  0  0  -0.523445  0  2.368817  0  0  -0.550428  0  2.358358  0  0  -0.235425  -0.504757  0  2.375653  0
O  O108  1  0.53344815  0.18082697  0.07594144  1  0  -0.572515  0  2.041728  0  0  -0.505015  0  2.282101  0  0  -0.533751  0  2.269494  0  0  -0.220656  -0.487483  0  2.29002  0
O  O109  1  0.96662832  0.10482553  0.92401124  1  0  -0.571558  0  2.04232  0  0  -0.504337  0  2.282747  0  0  -0.532976  0  2.270073  0  0  -0.220412  -0.486822  0  2.290669  0
O  O110  1  0.46653570  0.81918426  0.92409474  1  0  -0.572511  0  2.04166  0  0  -0.505148  0  2.282243  0  0  -0.533841  0  2.269608  0  0  -0.220826  -0.487553  0  2.290115  0
O  O111  1  0.03336671  0.89513361  0.07593601  1  0  -0.571754  0  2.042224  0  0  -0.504411  0  2.282776  0  0  -0.53307  0  2.270136  0  0  -0.220426  -0.486873  0  2.29066  0
O  O112  1  0.73400003  0.81863507  0.83259027  1  0  -0.593158  0  2.070691  0  0  -0.540539  0  2.323094  0  0  -0.572175  0  2.314322  0  0  -0.247436  -0.52046  0  2.327923  0
O  O113  1  0.76591514  0.98630861  0.16766703  1  0  -0.592359  0  2.069499  0  0  -0.53946  0  2.321809  0  0  -0.571164  0  2.313091  0  0  -0.246573  -0.519368  0  2.326615  0
O  O114  1  0.26597460  0.18140872  0.16739975  1  0  -0.593164  0  2.070531  0  0  -0.540553  0  2.323025  0  0  -0.572176  0  2.314224  0  0  -0.247459  -0.520421  0  2.327818  0
O  O115  1  0.23410509  0.01369467  0.83233928  1  0  -0.592343  0  2.069668  0  0  -0.539338  0  2.321994  0  0  -0.571034  0  2.313266  0  0  -0.246475  -0.51922  0  2.326769  0
O  O116  1  0.91671545  0.86379623  0.84502178  1  0  -0.609237  0  2.075293  0  0  -0.540302  0  2.319783  0  0  -0.601405  0  2.324154  0  0  -0.2348  -0.510021  0  2.319576  0
O  O117  1  0.58319432  0.01880366  0.15514423  1  0  -0.609129  0  2.07378  0  0  -0.540341  0  2.318301  0  0  -0.601421  0  2.322682  0  0  -0.234834  -0.509912  0  2.317908  0
O  O118  1  0.08326302  0.13619204  0.15496961  1  0  -0.609374  0  2.075083  0  0  -0.540431  0  2.319582  0  0  -0.601509  0  2.323938  0  0  -0.234849  -0.510085  0  2.319353  0
O  O119  1  0.41682035  0.98119609  0.84485998  1  0  -0.609075  0  2.074111  0  0  -0.540323  0  2.318699  0  0  -0.601328  0  2.323037  0  0  -0.234788  -0.509862  0  2.31829  0
O  O120  1  0.86616084  0.02200663  0.03827697  1  0  -0.710709  0  1.376063  0  0  -0.664076  0  1.638815  0  0  -0.635177  0  1.598775  0  0  -0.308365  -0.654945  0  1.653674  0
O  O121  1  0.63403354  0.98398648  0.96199285  1  0  -0.710873  0  1.374443  0  0  -0.664392  0  1.63699  0  0  -0.63514  0  1.596882  0  0  -0.308495  -0.654755  0  1.651542  0
O  O122  1  0.13386520  0.97799398  0.96170203  1  0  -0.710635  0  1.375319  0  0  -0.664095  0  1.638055  0  0  -0.634922  0  1.59796  0  0  -0.308218  -0.65478  0  1.652861  0
O  O123  1  0.36600466  0.01606269  0.03805803  1  0  -0.711194  0  1.375055  0  0  -0.664468  0  1.637641  0  0  -0.635289  0  1.597539  0  0  -0.308671  -0.654854  0  1.652168  0
F  F124  1  0.71894283  0.73560888  0.17699919  1  0  -0.234536  0  1.200636  0  0  -0.191367  0  1.36374  0  0  -0.202122  0  1.349275  0  0  -0.082776  -0.184289  0  1.373681  0
F  F125  1  0.78106670  0.55826324  0.82326602  1  0  -0.234813  0  1.199228  0  0  -0.191663  0  1.362565  0  0  -0.202486  0  1.34794  0  0  -0.083373  -0.184546  0  1.372618  0
F  F126  1  0.28105874  0.26438733  0.82299542  1  0  -0.234446  0  1.200864  0  0  -0.191271  0  1.364052  0  0  -0.202021  0  1.349581  0  0  -0.082649  -0.184185  0  1.373989  0
F  F127  1  0.21893250  0.44177000  0.17673624  1  0  -0.234775  0  1.19957  0  0  -0.191658  0  1.362867  0  0  -0.202472  0  1.348239  0  0  -0.083274  -0.184527  0  1.37292  0
F  F128  1  0.84410597  0.71364942  0.30716475  1  0  -0.245703  0  1.189262  0  0  -0.211976  0  1.369244  0  0  -0.223504  0  1.355708  0  0  -0.089272  -0.203678  0  1.378482  0
F  F129  1  0.65599974  0.40600449  0.69306037  1  0  -0.244973  0  1.189388  0  0  -0.211006  0  1.36959  0  0  -0.222618  0  1.355933  0  0  -0.08867  -0.202656  0  1.378912  0
F  F130  1  0.15589054  0.28635914  0.69283657  1  0  -0.245832  0  1.188961  0  0  -0.212068  0  1.36898  0  0  -0.223596  0  1.355439  0  0  -0.089347  -0.203767  0  1.378214  0
F  F131  1  0.34400147  0.59400760  0.30694496  1  0  -0.244907  0  1.189716  0  0  -0.210985  0  1.369889  0  0  -0.222594  0  1.356227  0  0  -0.088617  -0.202629  0  1.379211  0
F  F132  1  0.80314287  0.88959480  0.33801037  1  0  -0.24453  0  1.174328  0  0  -0.212765  0  1.350344  0  0  -0.222555  0  1.334333  0  0  -0.092325  -0.205593  0  1.361228  0
F  F133  1  0.69666046  0.55137922  0.66232490  1  0  -0.245118  0  1.174606  0  0  -0.21318  0  1.350814  0  0  -0.223031  0  1.334636  0  0  -0.092623  -0.205965  0  1.361814  0
F  F134  1  0.19685121  0.11040229  0.66198491  1  0  -0.244602  0  1.173968  0  0  -0.212786  0  1.350015  0  0  -0.22258  0  1.334  0  0  -0.092341  -0.205622  0  1.360897  0
F  F135  1  0.30335127  0.44860993  0.33765226  1  0  -0.245179  0  1.174311  0  0  -0.21328  0  1.350478  0  0  -0.22313  0  1.334292  0  0  -0.092719  -0.206067  0  1.361478  0
F  F136  1  0.54030336  0.84175587  0.22864219  1  0  -0.224019  0  1.162217  0  0  -0.192959  0  1.329494  0  0  -0.202683  0  1.313601  0  0  -0.086342  -0.186789  0  1.340906  0
F  F137  1  0.95950861  0.61351580  0.77172808  1  0  -0.224626  0  1.163613  0  0  -0.193242  0  1.331516  0  0  -0.203049  0  1.315459  0  0  -0.08655  -0.187076  0  1.342942  0
F  F138  1  0.45969838  0.15822269  0.77133525  1  0  -0.22389  0  1.162379  0  0  -0.19285  0  1.329629  0  0  -0.202579  0  1.31373  0  0  -0.086243  -0.186677  0  1.341039  0
F  F139  1  0.04050617  0.38649190  0.22829361  1  0  -0.224418  0  1.164209  0  0  -0.193129  0  1.332029  0  0  -0.202928  0  1.315969  0  0  -0.086443  -0.186958  0  1.343449  0
F  F140  1  0.47631862  0.81318047  0.34653630  1  0  -0.24148  0  1.151081  0  0  -0.207731  0  1.318397  0  0  -0.217632  0  1.302519  0  0  -0.09363  -0.200626  0  1.329554  0
F  F141  1  0.02362419  0.46754396  0.65372669  1  0  -0.241861  0  1.148031  0  0  -0.20768  0  1.315659  0  0  -0.217656  0  1.29964  0  0  -0.093988  -0.200583  0  1.326812  0
F  F142  1  0.52368054  0.18680955  0.65344171  1  0  -0.241612  0  1.150858  0  0  -0.207883  0  1.318126  0  0  -0.217786  0  1.302237  0  0  -0.09375  -0.200775  0  1.32928  0
F  F143  1  0.97638943  0.53244346  0.34628846  1  0  -0.241793  0  1.148091  0  0  -0.207711  0  1.31561  0  0  -0.217675  0  1.299587  0  0  -0.093994  -0.20061  0  1.326761  0
F  F144  1  0.61774735  0.95344021  0.40844738  1  0  -0.24493  0  1.141639  0  0  -0.212818  0  1.302124  0  0  -0.222246  0  1.287117  0  0  -0.102307  -0.205816  0  1.312632  0
F  F145  1  0.88215107  0.54573625  0.59198691  1  0  -0.245477  0  1.143331  0  0  -0.212972  0  1.304425  0  0  -0.222488  0  1.289271  0  0  -0.102194  -0.205967  0  1.31493  0
F  F146  1  0.38224085  0.04656215  0.59153519  1  0  -0.244851  0  1.141985  0  0  -0.212757  0  1.302462  0  0  -0.222192  0  1.287451  0  0  -0.102158  -0.205758  0  1.31297  0
F  F147  1  0.11786762  0.45425646  0.40802033  1  0  -0.245476  0  1.143192  0  0  -0.213064  0  1.304181  0  0  -0.222575  0  1.289025  0  0  -0.102341  -0.206061  0  1.314685  0
