# generated using pymatgen
data_AgH5C5N3O2
_symmetry_space_group_name_H-M   'P 1'
_cell_length_a   7.62876464
_cell_length_b   7.62882668
_cell_length_c   13.61072142
_cell_angle_alpha   98.05229496
_cell_angle_beta   98.05181074
_cell_angle_gamma   120.07790251
_symmetry_Int_Tables_number   1
_chemical_formula_structural   AgH5C5N3O2
_chemical_formula_sum   'Ag4 H20 C20 N12 O8'
_cell_volume   657.94666066
_cell_formula_units_Z   4
loop_
 _symmetry_equiv_pos_site_id
 _symmetry_equiv_pos_as_xyz
  1  'x, y, z'
loop_
 _atom_site_type_symbol
 _atom_site_label
 _atom_site_symmetry_multiplicity
 _atom_site_fract_x
 _atom_site_fract_y
 _atom_site_fract_z
 _atom_site_occupancy
 _atom_site_hle17_bader_spin_density
 _atom_site_hle17_ddec_charge
 _atom_site_hle17_ddec_spin_density
 _atom_site_hle17_ddec_sum_bond_order
 _atom_site_hle17_magmom
 _atom_site_hse06_10hf_bader_spin_density
 _atom_site_hse06_10hf_ddec_charge
 _atom_site_hse06_10hf_ddec_spin_density
 _atom_site_hse06_10hf_ddec_sum_bond_order
 _atom_site_hse06_10hf_magmom
 _atom_site_hse06_bader_spin_density
 _atom_site_hse06_ddec_charge
 _atom_site_hse06_ddec_spin_density
 _atom_site_hse06_ddec_sum_bond_order
 _atom_site_hse06_magmom
 _atom_site_pbe_bader_spin_density
 _atom_site_pbe_cm5_charge
 _atom_site_pbe_ddec_charge
 _atom_site_pbe_ddec_spin_density
 _atom_site_pbe_ddec_sum_bond_order
 _atom_site_pbe_magmom
Ag  Ag0  1  0.20975690  0.28005212  0.50862879  1  0  0.543105  0  1.303796  0  0  0.391188  0  1.727825  0  0  0.426615  0  1.678517  0  0  0.457112  0.366752  0  1.762152  0
Ag  Ag1  1  0.77183336  0.70081225  0.49140057  1  0  0.542949  0  1.303429  0  0  0.390693  0  1.727124  0  0  0.426303  0  1.677763  0  0  0.456875  0.36608  0  1.761498  0
Ag  Ag2  1  0.95079746  0.52181609  0.99139713  1  0  0.542902  0  1.303402  0  0  0.390614  0  1.727123  0  0  0.426223  0  1.677768  0  0  0.456866  0.366004  0  1.761499  0
Ag  Ag3  1  0.53006025  0.95976767  0.00862803  1  0  0.543115  0  1.303795  0  0  0.391187  0  1.72782  0  0  0.426624  0  1.678513  0  0  0.45712  0.366748  0  1.762149  0
H  H4  1  0.19602439  0.13800035  0.27504631  1  0  0.094232  0  0.970141  0  0  0.105329  0  1.032555  0  0  0.107925  0  1.032128  0  0  0.115834  0.103449  0  1.033082  0
H  H5  1  0.86247358  0.92070893  0.72491996  1  0  0.094298  0  0.96971  0  0  0.10581  0  1.031481  0  0  0.108437  0  1.03099  0  0  0.11592  0.103919  0  1.032017  0
H  H6  1  0.17069799  0.61246699  0.22491381  1  0  0.094365  0  0.969676  0  0  0.10585  0  1.031461  0  0  0.108472  0  1.03097  0  0  0.115972  0.103958  0  1.031999  0
H  H7  1  0.38800320  0.94601922  0.77504926  1  0  0.09419  0  0.970275  0  0  0.105285  0  1.032691  0  0  0.107879  0  1.032269  0  0  0.11584  0.103406  0  1.033215  0
H  H8  1  0.95234438  0.02326640  0.10475600  1  0  0.089138  0  0.986515  0  0  0.097906  0  1.05087  0  0  0.100087  0  1.04895  0  0  0.114154  0.096271  0  1.052301  0
H  H9  1  0.91880994  0.84793687  0.89521120  1  0  0.089285  0  0.986365  0  0  0.098035  0  1.050838  0  0  0.100223  0  1.048903  0  0  0.11414  0.09639  0  1.052301  0
H  H10  1  0.09793843  0.66881003  0.39520765  1  0  0.089298  0  0.986442  0  0  0.098081  0  1.050866  0  0  0.100271  0  1.048933  0  0  0.114151  0.096433  0  1.052333  0
H  H11  1  0.27327161  0.70234551  0.60476011  1  0  0.089175  0  0.986481  0  0  0.097944  0  1.050851  0  0  0.100123  0  1.048934  0  0  0.114197  0.096309  0  1.052281  0
H  H12  1  0.77308118  0.19747903  0.41672715  1  0  0.096815  0  0.969713  0  0  0.105111  0  1.035181  0  0  0.107951  0  1.03298  0  0  0.117316  0.102948  0  1.037034  0
H  H13  1  0.78032253  0.35597034  0.58326831  1  0  0.097541  0  0.970181  0  0  0.105526  0  1.035965  0  0  0.108405  0  1.033747  0  0  0.117638  0.103375  0  1.03779  0
H  H14  1  0.60596232  0.53033421  0.08326946  1  0  0.097585  0  0.970223  0  0  0.105587  0  1.035982  0  0  0.108472  0  1.033765  0  0  0.117663  0.103435  0  1.037808  0
H  H15  1  0.44746257  0.52307598  0.91672882  1  0  0.096823  0  0.969681  0  0  0.105077  0  1.035217  0  0  0.107926  0  1.033006  0  0  0.117334  0.10289  0  1.037096  0
H  H16  1  0.39215894  0.04990455  0.17767003  1  0  0.339949  0  0.934714  0  0  0.320759  0  1.001831  0  0  0.329015  0  0.994605  0  0  0.293142  0.314898  0  1.006924  0
H  H17  1  0.87219681  0.21465939  0.82240069  1  0  0.33949  0  0.935501  0  0  0.320268  0  1.002461  0  0  0.328523  0  0.995256  0  0  0.293103  0.314421  0  1.007536  0
H  H18  1  0.46465057  0.62219092  0.32240466  1  0  0.339576  0  0.935535  0  0  0.320398  0  1.002414  0  0  0.328651  0  0.99521  0  0  0.293148  0.314552  0  1.007492  0
H  H19  1  0.29990853  0.14216543  0.67766850  1  0  0.339968  0  0.934711  0  0  0.320786  0  1.001805  0  0  0.329045  0  0.994572  0  0  0.293166  0.314926  0  1.006898  0
H  H20  1  0.45524482  0.10763851  0.31546585  1  0  0.337341  0  0.934355  0  0  0.319114  0  0.998257  0  0  0.326785  0  0.992473  0  0  0.294666  0.313694  0  1.002272  0
H  H21  1  0.79210311  0.13965520  0.68459417  1  0  0.338065  0  0.93316  0  0  0.318779  0  0.998562  0  0  0.326507  0  0.992722  0  0  0.294609  0.31332  0  1.002624  0
H  H22  1  0.38964322  0.54209645  0.18459782  1  0  0.337961  0  0.933207  0  0  0.318685  0  0.998602  0  0  0.326415  0  0.992758  0  0  0.29456  0.313226  0  1.002667  0
H  H23  1  0.35764258  0.20524704  0.81546621  1  0  0.337347  0  0.934267  0  0  0.319109  0  0.998182  0  0  0.326782  0  0.992406  0  0  0.294652  0.313683  0  1.002207  0
C  C24  1  0.40087013  0.01750316  0.50250595  1  0  0.538694  0  3.956004  0  0  0.492429  0  4.252296  0  0  0.522311  0  4.244912  0  0  0.189217  0.471918  0  4.256634  0
C  C25  1  0.51484995  0.89802704  0.49745293  1  0  0.539592  0  3.953696  0  0  0.49335  0  4.250184  0  0  0.52318  0  4.242833  0  0  0.189747  0.472855  0  4.254544  0
C  C26  1  0.14802240  0.26484092  0.99745351  1  0  0.539601  0  3.953848  0  0  0.493288  0  4.250386  0  0  0.523137  0  4.243003  0  0  0.189709  0.472795  0  4.254747  0
C  C27  1  0.26750700  0.15086935  0.00250474  1  0  0.538555  0  3.956455  0  0  0.492424  0  4.252509  0  0  0.5223  0  4.24513  0  0  0.189232  0.471909  0  4.256861  0
C  C28  1  0.04690720  0.12569280  0.26808007  1  0  0.007937  0  3.713399  0  0  -0.028159  0  3.976276  0  0  -0.031196  0  3.999041  0  0  0.009682  -0.026483  0  3.961307  0
C  C29  1  0.85739311  0.77867726  0.73189663  1  0  0.007066  0  3.713875  0  0  -0.029148  0  3.976421  0  0  -0.03221  0  3.999292  0  0  0.009415  -0.027427  0  3.961325  0
C  C30  1  0.02867142  0.60739336  0.23189253  1  0  0.006997  0  3.713798  0  0  -0.029201  0  3.976385  0  0  -0.032247  0  3.999235  0  0  0.009331  -0.027484  0  3.961294  0
C  C31  1  0.37569674  0.79691022  0.76808414  1  0  0.007882  0  3.713323  0  0  -0.028214  0  3.976205  0  0  -0.03126  0  3.998979  0  0  0.00961  -0.026534  0  3.961234  0
C  C32  1  0.91089322  0.06420227  0.17387173  1  0  0.091045  0  3.738528  0  0  0.060551  0  3.990006  0  0  0.067303  0  4.009267  0  0  0.036207  0.055706  0  3.977706  0
C  C33  1  0.89056952  0.73724771  0.82611659  1  0  0.091675  0  3.738065  0  0  0.06111  0  3.988992  0  0  0.067719  0  4.008512  0  0  0.036426  0.056305  0  3.976646  0
C  C34  1  0.98725205  0.64056817  0.32611404  1  0  0.091784  0  3.737914  0  0  0.061237  0  3.988737  0  0  0.067817  0  4.008302  0  0  0.036522  0.056435  0  3.976387  0
C  C35  1  0.31420205  0.66089199  0.67387279  1  0  0.091032  0  3.738438  0  0  0.060518  0  3.989933  0  0  0.067275  0  4.009174  0  0  0.036176  0.055679  0  3.977631  0
C  C36  1  0.67289351  0.09556914  0.25049199  1  0  0.446326  0  3.838384  0  0  0.420314  0  4.089794  0  0  0.438651  0  4.105079  0  0  0.23136  0.407974  0  4.079229  0
C  C37  1  0.84523229  0.42248838  0.74949959  1  0  0.446811  0  3.837334  0  0  0.420372  0  4.089056  0  0  0.438711  0  4.104422  0  0  0.231948  0.408057  0  4.078393  0
C  C38  1  0.67249204  0.59523833  0.24950343  1  0  0.446736  0  3.837335  0  0  0.420262  0  4.089102  0  0  0.438603  0  4.104467  0  0  0.231921  0.40795  0  4.078438  0
C  C39  1  0.34556564  0.42288287  0.75049279  1  0  0.446423  0  3.838141  0  0  0.420421  0  4.08954  0  0  0.438704  0  4.104896  0  0  0.231501  0.408092  0  4.078963  0
C  C40  1  0.81495851  0.15925280  0.34721428  1  0  -0.028949  0  3.635683  0  0  -0.056558  0  3.879244  0  0  -0.057379  0  3.895826  0  0  0.043827  -0.05643  0  3.868505  0
C  C41  1  0.81183315  0.46754006  0.65274863  1  0  -0.029238  0  3.635932  0  0  -0.056963  0  3.880447  0  0  -0.057875  0  3.897055  0  0  0.043664  -0.056799  0  3.869619  0
C  C42  1  0.71752764  0.56184121  0.15274819  1  0  -0.029283  0  3.635744  0  0  -0.056968  0  3.88018  0  0  -0.057886  0  3.896791  0  0  0.043656  -0.056811  0  3.869361  0
C  C43  1  0.40924335  0.56496162  0.84721591  1  0  -0.028936  0  3.635961  0  0  -0.056477  0  3.879401  0  0  -0.057292  0  3.896  0  0  0.043829  -0.056326  0  3.868669  0
N  N44  1  0.72489744  0.04926013  0.16322704  1  0  -0.392978  0  3.257275  0  0  -0.308088  0  3.539286  0  0  -0.330443  0  3.552326  0  0  -0.348836  -0.292971  0  3.530347  0
N  N45  1  0.88639316  0.56197247  0.83677018  1  0  -0.394188  0  3.257352  0  0  -0.308399  0  3.538895  0  0  -0.330801  0  3.551966  0  0  -0.349116  -0.293237  0  3.529895  0
N  N46  1  0.81196066  0.63639237  0.33676904  1  0  -0.394261  0  3.257493  0  0  -0.308474  0  3.539054  0  0  -0.330869  0  3.552113  0  0  -0.349151  -0.293314  0  3.530051  0
N  N47  1  0.29925646  0.47489613  0.66322737  1  0  -0.393094  0  3.256984  0  0  -0.308213  0  3.539008  0  0  -0.330536  0  3.552044  0  0  -0.348913  -0.29311  0  3.53008  0
N  N48  1  0.99671701  0.17298604  0.35549312  1  0  -0.23053  0  3.383848  0  0  -0.149965  0  3.665584  0  0  -0.160943  0  3.680997  0  0  -0.33059  -0.142098  0  3.655016  0
N  N49  1  0.81706479  0.64088354  0.64448330  1  0  -0.229998  0  3.382615  0  0  -0.149043  0  3.664372  0  0  -0.160096  0  3.679886  0  0  -0.330231  -0.141105  0  3.653711  0
N  N50  1  0.89088048  0.56706939  0.14447996  1  0  -0.229929  0  3.382315  0  0  -0.149007  0  3.664086  0  0  -0.160057  0  3.679593  0  0  -0.330219  -0.141068  0  3.65343  0
N  N51  1  0.42298165  0.74670437  0.85549582  1  0  -0.230525  0  3.384193  0  0  -0.149966  0  3.665917  0  0  -0.160943  0  3.681337  0  0  -0.330644  -0.142101  0  3.655343  0
N  N52  1  0.49057520  0.08218819  0.24667397  1  0  -0.673858  0  3.134339  0  0  -0.634719  0  3.362276  0  0  -0.659212  0  3.363218  0  0  -0.576012  -0.617733  0  3.361429  0
N  N53  1  0.83564085  0.24397998  0.75336232  1  0  -0.67418  0  3.133722  0  0  -0.633706  0  3.362997  0  0  -0.658221  0  3.36383  0  0  -0.575943  -0.61672  0  3.362211  0
N  N54  1  0.49396616  0.58563585  0.25336800  1  0  -0.674215  0  3.1335  0  0  -0.633818  0  3.362797  0  0  -0.658336  0  3.363629  0  0  -0.576014  -0.616814  0  3.361971  0
N  N55  1  0.33219124  0.24058371  0.74667197  1  0  -0.673834  0  3.134404  0  0  -0.634694  0  3.362352  0  0  -0.659176  0  3.363312  0  0  -0.576007  -0.617706  0  3.361511  0
O  O56  1  0.43576395  0.14752742  0.44714375  1  0  -0.630671  0  2.025273  0  0  -0.567944  0  2.276874  0  0  -0.59466  0  2.265069  0  0  -0.325771  -0.54891  0  2.284408  0
O  O57  1  0.70026585  0.98828636  0.55291911  1  0  -0.630837  0  2.023779  0  0  -0.567939  0  2.275399  0  0  -0.59466  0  2.263607  0  0  -0.325891  -0.5489  0  2.282932  0
O  O58  1  0.23827888  0.45025455  0.05292106  1  0  -0.630799  0  2.02391  0  0  -0.567888  0  2.27557  0  0  -0.594614  0  2.26377  0  0  -0.325864  -0.54885  0  2.283098  0
O  O59  1  0.39753421  0.18577311  0.94714252  1  0  -0.630642  0  2.025412  0  0  -0.567957  0  2.276943  0  0  -0.594677  0  2.265143  0  0  -0.325789  -0.548917  0  2.28448  0
O  O60  1  0.27816033  0.97668002  0.56149597  1  0  -0.627699  0  2.018129  0  0  -0.567587  0  2.262283  0  0  -0.59307  0  2.250778  0  0  -0.321566  -0.549364  0  2.269606  0
O  O61  1  0.41482698  0.71623390  0.43846007  1  0  -0.628197  0  2.016689  0  0  -0.568411  0  2.260966  0  0  -0.593867  0  2.249497  0  0  -0.322024  -0.550151  0  2.268158  0
O  O62  1  0.96622801  0.16481916  0.93845785  1  0  -0.628213  0  2.016581  0  0  -0.568389  0  2.260866  0  0  -0.593859  0  2.2494  0  0  -0.322055  -0.550126  0  2.268057  0
O  O63  1  0.22669194  0.02816588  0.06149460  1  0  -0.627615  0  2.018403  0  0  -0.567502  0  2.262395  0  0  -0.592985  0  2.250898  0  0  -0.321523  -0.549275  0  2.269722  0
