# generated using pymatgen
data_ZnH9C16NO8
_symmetry_space_group_name_H-M   'P 1'
_cell_length_a   9.51977521
_cell_length_b   10.87165272
_cell_length_c   13.07993450
_cell_angle_alpha   86.27427269
_cell_angle_beta   102.45307789
_cell_angle_gamma   107.43070479
_symmetry_Int_Tables_number   1
_chemical_formula_structural   ZnH9C16NO8
_chemical_formula_sum   'Zn2 H18 C32 N2 O16'
_cell_volume   1261.16749327
_cell_formula_units_Z   2
loop_
 _symmetry_equiv_pos_site_id
 _symmetry_equiv_pos_as_xyz
  1  'x, y, z'
loop_
 _atom_site_type_symbol
 _atom_site_label
 _atom_site_symmetry_multiplicity
 _atom_site_fract_x
 _atom_site_fract_y
 _atom_site_fract_z
 _atom_site_occupancy
 _atom_site_pbe_bader_charge
 _atom_site_pbe_bader_spin_density
 _atom_site_pbe_cm5_charge
 _atom_site_pbe_ddec_charge
 _atom_site_pbe_ddec_spin_density
 _atom_site_pbe_ddec_sum_bond_order
 _atom_site_pbe_magmom
Zn  Zn0  1  0.34172937  0.45866731  0.48547174  1  1.291918  0  0.677508  0.829328  0  2.396637  0
Zn  Zn1  1  0.65835352  0.54133114  0.51454816  1  1.293312  0  0.677574  0.82991  0  2.396225  0
H  H2  1  0.66027779  0.48159790  0.20141998  1  0.092744  0  0.108712  0.113217  0  1.026494  0
H  H3  1  0.33960574  0.51841173  0.79858337  1  0.092483  0  0.108762  0.113267  0  1.026308  0
H  H4  1  0.76879642  0.43704536  0.05792559  1  0.119853  0  0.110026  0.118427  0  1.024995  0
H  H5  1  0.23105566  0.56291174  0.94210227  1  0.11933  0  0.109917  0.118183  0  1.024728  0
H  H6  1  0.78453193  0.47042166  0.35527540  1  0.18393  0  0.135343  0.116393  0  1.021484  0
H  H7  1  0.21559476  0.52974195  0.64471618  1  0.185886  0  0.135432  0.11626  0  1.021432  0
H  H8  1  0.11251249  0.59237806  0.06747544  1  0.061283  0  0.098436  0.028333  0  0.974932  0
H  H9  1  0.88731752  0.40746476  0.93258790  1  0.06126  0  0.098253  0.028139  0  0.974944  0
H  H10  1  0.48623621  0.75708161  0.68724315  1  0.052014  0  0.099534  0.035904  0  0.98078  0
H  H11  1  0.51406401  0.24306939  0.31272334  1  0.050928  0  0.0996  0.03588  0  0.981207  0
H  H12  1  0.39048224  0.17201078  0.77844781  1  0.061221  0  0.104516  0.116629  0  0.978659  0
H  H13  1  0.55912958  0.14178517  0.76216082  1  0.084995  0  0.096427  0.106536  0  1.026348  0
H  H14  1  0.40170789  0.00978233  0.78845519  1  0.098409  0  0.094325  0.102508  0  1.032572  0
H  H15  1  0.44088689  0.85767748  0.23807362  1  0.084747  0  0.096078  0.106238  0  1.026948  0
H  H16  1  0.60977492  0.82810013  0.22154523  1  0.061748  0  0.104479  0.116552  0  0.978892  0
H  H17  1  0.59774031  0.99006967  0.21147499  1  0.100138  0  0.094263  0.102342  0  1.032573  0
H  H18  1  0.09325356  0.33613620  0.31579122  1  0.130489  0  0.125703  0.08332  0  0.952117  0
H  H19  1  0.90668941  0.66385190  0.68425715  1  0.130919  0  0.125639  0.08335  0  0.951918  0
C  C20  1  0.54064285  0.74626247  0.51706952  1  1.615686  0  0.215901  0.607153  0  4.195917  0
C  C21  1  0.45944817  0.25376482  0.48288885  1  1.61546  0  0.215755  0.606577  0  4.195319  0
C  C22  1  0.47016303  0.11810360  0.48638550  1  0.021572  0  -0.007398  -0.127649  0  3.920447  0
C  C23  1  0.52993303  0.88193142  0.51358102  1  0.019295  0  -0.007252  -0.127454  0  3.920714  0
C  C24  1  0.88143910  0.48424713  0.41972807  1  0.541031  0  0.093128  0.074001  0  3.799243  0
C  C25  1  0.11871458  0.51597179  0.58024830  1  0.539901  0  0.092832  0.073497  0  3.798667  0
C  C26  1  0.00807620  0.44949115  0.41036720  1  0.480794  0  0.147967  0.148619  0  3.871965  0
C  C27  1  0.99208599  0.55074474  0.58960764  1  0.496415  0  0.147686  0.149386  0  3.871494  0
C  C28  1  0.53512760  0.47254729  0.70335760  1  1.580226  0  0.22192  0.599286  0  4.164338  0
C  C29  1  0.46478837  0.52743260  0.29665142  1  1.579398  0  0.222439  0.600468  0  4.163859  0
C  C30  1  0.45564939  0.53325455  0.18031499  1  -0.035686  0  -0.002153  -0.044157  0  3.916485  0
C  C31  1  0.54423639  0.46672523  0.81969541  1  -0.079934  0  -0.002326  -0.044087  0  3.916854  0
C  C32  1  0.67540434  0.45592438  0.00064715  1  -0.058459  0  -0.062768  -0.137479  0  3.890779  0
C  C33  1  0.32445549  0.54402484  0.99936966  1  -0.063593  0  -0.062826  -0.137338  0  3.889848  0
C  C34  1  0.66746743  0.44260177  0.89453171  1  0.009497  0  -0.010366  0.002592  0  3.965606  0
C  C35  1  0.33241777  0.55737291  0.10548714  1  -0.030756  0  -0.010103  0.0031  0  3.965196  0
C  C36  1  0.43293151  0.49899456  0.85485106  1  0.006212  0  -0.068593  -0.123776  0  3.909014  0
C  C37  1  0.56693797  0.50098073  0.14515116  1  0.007575  0  -0.068592  -0.123888  0  3.909134  0
C  C38  1  0.43773368  0.51057158  0.96276380  1  0.052018  0  0.002589  0.089423  0  3.998881  0
C  C39  1  0.56213139  0.48939089  0.03724193  1  -0.010723  0  0.002503  0.089491  0  3.999307  0
C  C40  1  0.46302269  0.92161476  0.58682271  1  -0.033286  0  -0.018998  -0.092399  0  3.971823  0
C  C41  1  0.53704108  0.07841650  0.41313734  1  -0.034104  0  -0.019187  -0.092615  0  3.972092  0
C  C42  1  0.43345898  0.04252462  0.57345248  1  0.572918  0  0.10548  0.219025  0  3.998128  0
C  C43  1  0.56666242  0.95752576  0.42653389  1  0.575729  0  0.105599  0.218946  0  3.99868  0
C  C44  1  0.21629717  0.60946785  0.13068669  1  0.95231  0  0.099431  0.27394  0  3.979175  0
C  C45  1  0.78357360  0.39047502  0.86933628  1  0.95518  0  0.099505  0.274285  0  3.9797  0
C  C46  1  0.41842116  0.82644708  0.66883549  1  0.963655  0  0.09863  0.290646  0  3.97537  0
C  C47  1  0.58168189  0.17354965  0.33110980  1  0.963856  0  0.098855  0.291304  0  3.974354  0
C  C48  1  0.43602812  0.10295975  0.74923736  1  0.33578  0  -0.141687  -0.179775  0  3.874557  0
C  C49  1  0.56393116  0.89690501  0.25080045  1  0.334019  0  -0.141523  -0.179321  0  3.874719  0
C  C50  1  0.01335306  0.39367774  0.30984913  1  1.012395  0  0.129132  0.269459  0  3.877443  0
C  C51  1  0.98668312  0.60640199  0.69016061  1  0.993395  0  0.129366  0.26934  0  3.877245  0
N  N52  1  0.12611676  0.46540885  0.49163741  1  -1.191188  0  -0.276647  -0.167353  0  3.434626  0
N  N53  1  0.87402353  0.53478288  0.50834695  1  -1.189021  0  -0.276968  -0.168464  0  3.435148  0
O  O54  1  0.41402643  0.65911664  0.50191578  1  -1.176054  0  -0.314411  -0.564239  0  2.337381  0
O  O55  1  0.58607168  0.34090836  0.49811629  1  -1.175747  0  -0.314202  -0.563916  0  2.337185  0
O  O56  1  0.66922798  0.72877885  0.53251306  1  -1.140865  0  -0.309423  -0.519362  0  2.296873  0
O  O57  1  0.33085937  0.27124102  0.46736844  1  -1.14043  0  -0.309224  -0.518709  0  2.296254  0
O  O58  1  0.40328441  0.44057857  0.64597127  1  -1.16955  0  -0.312276  -0.549377  0  2.342982  0
O  O59  1  0.59664405  0.55931700  0.35401897  1  -1.169406  0  -0.312464  -0.550096  0  2.342959  0
O  O60  1  0.65725069  0.51629647  0.67104627  1  -1.151395  0  -0.305669  -0.539714  0  2.380541  0
O  O61  1  0.34266614  0.48379382  0.32897737  1  -1.150767  0  -0.306144  -0.540323  0  2.380742  0
O  O62  1  0.22970492  0.67177411  0.20861834  1  -1.076846  0  -0.259489  -0.34664  0  2.163925  0
O  O63  1  0.77019060  0.32824391  0.79137647  1  -1.078098  0  -0.259445  -0.346773  0  2.164406  0
O  O64  1  0.31523233  0.81722440  0.71392810  1  -1.084264  0  -0.262043  -0.360949  0  2.162294  0
O  O65  1  0.68477412  0.18257524  0.28596193  1  -1.083966  0  -0.262017  -0.361136  0  2.161432  0
O  O66  1  0.37248725  0.09407703  0.63852365  1  -1.071543  0  -0.187992  -0.154368  0  2.567799  0
O  O67  1  0.62774956  0.90606734  0.36147748  1  -1.072767  0  -0.18787  -0.154373  0  2.567305  0
O  O68  1  0.93370291  0.41219230  0.22742331  1  -1.056941  0  -0.224619  -0.317794  0  2.16977  0
O  O69  1  0.06630671  0.58783300  0.77258255  1  -1.056536  0  -0.224568  -0.317727  0  2.169835  0
