# generated using pymatgen
data_HgH14C18N4(ClO)2
_symmetry_space_group_name_H-M   'P 1'
_cell_length_a   5.00684875
_cell_length_b   13.03572164
_cell_length_c   13.77820704
_cell_angle_alpha   96.21246346
_cell_angle_beta   90.00015756
_cell_angle_gamma   89.99990629
_symmetry_Int_Tables_number   1
_chemical_formula_structural   HgH14C18N4(ClO)2
_chemical_formula_sum   'Hg2 H28 C36 N8 Cl4 O4'
_cell_volume   893.99341766
_cell_formula_units_Z   2
loop_
 _symmetry_equiv_pos_site_id
 _symmetry_equiv_pos_as_xyz
  1  'x, y, z'
loop_
 _atom_site_type_symbol
 _atom_site_label
 _atom_site_symmetry_multiplicity
 _atom_site_fract_x
 _atom_site_fract_y
 _atom_site_fract_z
 _atom_site_occupancy
 _atom_site_pbe_bader_charge
 _atom_site_pbe_bader_spin_density
 _atom_site_pbe_cm5_charge
 _atom_site_pbe_ddec_charge
 _atom_site_pbe_ddec_spin_density
 _atom_site_pbe_ddec_sum_bond_order
 _atom_site_pbe_magmom
Hg  Hg0  1  0.01231291  0.49999996  0.75000070  1  0.816629  0  0.521847  0.555398  0  2.607043  0
Hg  Hg1  1  0.98768700  0.49999918  0.25000057  1  0.816608  0  0.521853  0.555393  0  2.607017  0
H  H2  1  0.60757215  0.56394344  0.94299752  1  0.131808  0  0.103124  0.088119  0  1.029144  0
H  H3  1  0.60757296  0.43605695  0.55700235  1  0.131798  0  0.103142  0.088148  0  1.029159  0
H  H4  1  0.39243974  0.43605107  0.05700764  1  0.131345  0  0.103165  0.088202  0  1.029171  0
H  H5  1  0.39242495  0.56394451  0.44299770  1  0.131813  0  0.103126  0.088148  0  1.029138  0
H  H6  1  0.73176279  0.70326314  0.69160857  1  0.124698  0  0.103071  0.076237  0  1.059682  0
H  H7  1  0.73175810  0.29673718  0.80839214  1  0.124706  0  0.103063  0.076257  0  1.059671  0
H  H8  1  0.26823312  0.29674834  0.30838887  1  0.124665  0  0.103059  0.07624  0  1.059697  0
H  H9  1  0.26823182  0.70326119  0.19160760  1  0.124872  0  0.103064  0.076228  0  1.059684  0
H  H10  1  0.09939347  0.81911780  0.88600948  1  0.098709  0  0.110094  0.111118  0  1.005864  0
H  H11  1  0.09938780  0.18088285  0.61399063  1  0.098705  0  0.110093  0.11114  0  1.005792  0
H  H12  1  0.90061443  0.18088673  0.11398436  1  0.098667  0  0.110081  0.111109  0  1.005835  0
H  H13  1  0.90061211  0.81911861  0.38601087  1  0.09868  0  0.110114  0.11112  0  1.00582  0
H  H14  1  0.22791413  0.68237255  0.99517930  1  0.101982  0  0.098843  0.119341  0  1.018475  0
H  H15  1  0.22791105  0.31762803  0.50482166  1  0.101997  0  0.098837  0.119356  0  1.018485  0
H  H16  1  0.77208578  0.31762504  0.00481963  1  0.101814  0  0.098849  0.119358  0  1.018425  0
H  H17  1  0.77208486  0.68237188  0.49517969  1  0.101985  0  0.09884  0.11933  0  1.018474  0
H  H18  1  0.72497769  0.87259906  0.68315597  1  0.523902  0  0.30969  0.289412  0  0.991848  0
H  H19  1  0.72497578  0.12740281  0.81684344  1  0.523953  0  0.309711  0.289433  0  0.991824  0
H  H20  1  0.27503220  0.12740162  0.31684256  1  0.523762  0  0.309697  0.289383  0  0.991762  0
H  H21  1  0.27502213  0.87259865  0.18315661  1  0.523945  0  0.309695  0.28945  0  0.991786  0
H  H22  1  0.86480972  0.02924568  0.62201584  1  0.111557  0  0.103953  0.116277  0  1.026669  0
H  H23  1  0.86480669  0.97075534  0.87798508  1  0.111526  0  0.103937  0.116265  0  1.026632  0
H  H24  1  0.13519219  0.97075577  0.37798422  1  0.111592  0  0.103935  0.116255  0  1.026659  0
H  H25  1  0.13518723  0.02924689  0.12201651  1  0.111541  0  0.103938  0.116269  0  1.02666  0
H  H26  1  0.15074764  0.86878681  0.52115840  1  0.079903  0  0.105144  0.118059  0  1.008641  0
H  H27  1  0.15074294  0.13121612  0.97884127  1  0.079446  0  0.105126  0.1181  0  1.008648  0
H  H28  1  0.84925427  0.13121464  0.47884093  1  0.079504  0  0.105129  0.118091  0  1.008574  0
H  H29  1  0.84925896  0.86878533  0.02115734  1  0.079846  0  0.105156  0.118074  0  1.008604  0
C  C30  1  0.54597423  0.62465853  0.89928014  1  0.45399  0  0.044142  0.092098  0  3.945454  0
C  C31  1  0.54597562  0.37534266  0.60072047  1  0.453958  0  0.04417  0.09213  0  3.945479  0
C  C32  1  0.45403367  0.37533984  0.10072396  1  0.454562  0  0.044106  0.092018  0  3.945622  0
C  C33  1  0.45402229  0.62465879  0.39928031  1  0.453991  0  0.044054  0.091883  0  3.945452  0
C  C34  1  0.61718998  0.70398313  0.75905495  1  0.530025  0  0.042983  0.057188  0  3.95351  0
C  C35  1  0.61719477  0.29601493  0.74094324  1  0.530071  0  0.042972  0.057108  0  3.953437  0
C  C36  1  0.38280593  0.29601060  0.24094215  1  0.53013  0  0.043034  0.057211  0  3.953423  0
C  C37  1  0.38281113  0.70398034  0.25905328  1  0.529818  0  0.042987  0.057148  0  3.95349  0
C  C38  1  0.40974207  0.77415482  0.78218913  1  -0.062693  0  -0.013308  -0.078608  0  3.996594  0
C  C39  1  0.40975098  0.22584026  0.71780783  1  -0.062728  0  -0.013309  -0.078591  0  3.996498  0
C  C40  1  0.59025185  0.22583582  0.21780838  1  -0.062608  0  -0.01335  -0.078661  0  3.996516  0
C  C41  1  0.59025692  0.77415424  0.28218789  1  -0.062615  0  -0.01332  -0.078676  0  3.996576  0
C  C42  1  0.26539014  0.76654170  0.86799722  1  -0.034181  0  -0.059648  -0.038425  0  3.92468  0
C  C43  1  0.26539437  0.23345731  0.63200217  1  -0.034211  0  -0.059611  -0.03843  0  3.924657  0
C  C44  1  0.73459779  0.23345357  0.13200076  1  -0.03432  0  -0.059587  -0.038354  0  3.92461  0
C  C45  1  0.73460753  0.76654259  0.36799701  1  -0.034195  0  -0.059627  -0.038392  0  3.924648  0
C  C46  1  0.32824528  0.84847969  0.71253700  1  1.392588  0  0.245006  0.493811  0  4.113455  0
C  C47  1  0.32824704  0.15151853  0.78746164  1  1.392612  0  0.244992  0.493819  0  4.113378  0
C  C48  1  0.67175862  0.15151250  0.28746139  1  1.391606  0  0.244957  0.493655  0  4.113654  0
C  C49  1  0.67175486  0.84848061  0.21253818  1  1.39258  0  0.245004  0.493885  0  4.113409  0
C  C50  1  0.33602377  0.69161342  0.92797993  1  0.02766  0  -0.086578  -0.123825  0  3.958296  0
C  C51  1  0.33602524  0.30838865  0.57202129  1  0.027709  0  -0.086622  -0.123899  0  3.958426  0
C  C52  1  0.66398013  0.30838649  0.07202142  1  0.027838  0  -0.086603  -0.123846  0  3.958283  0
C  C53  1  0.66397667  0.69161280  0.42797950  1  0.027668  0  -0.086595  -0.123787  0  3.958273  0
C  C54  1  0.50818011  0.94327057  0.58083996  1  0.295547  0  0.087606  0.231577  0  4.01855  0
C  C55  1  0.50818127  0.05673141  0.91916215  1  0.295576  0  0.087699  0.231772  0  4.018533  0
C  C56  1  0.49182179  0.05672934  0.41916139  1  0.295581  0  0.087743  0.231799  0  4.018576  0
C  C57  1  0.49181664  0.94327081  0.08083944  1  0.295607  0  0.087672  0.231673  0  4.018417  0
C  C58  1  0.70562958  0.01686500  0.56797169  1  -0.002015  0  -0.096649  -0.174199  0  3.98981  0
C  C59  1  0.70562890  0.98313379  0.93203030  1  -0.002066  0  -0.096605  -0.174155  0  3.989797  0
C  C60  1  0.29437033  0.98313568  0.43202902  1  -0.002321  0  -0.096624  -0.174208  0  3.98979  0
C  C61  1  0.29436501  0.01686535  0.06797098  1  -0.001876  0  -0.096646  -0.174156  0  3.989794  0
C  C62  1  0.30193439  0.92688398  0.51217896  1  -0.016619  0  -0.094331  -0.161133  0  3.996853  0
C  C63  1  0.30193201  0.07311888  0.98782230  1  -0.01661  0  -0.094313  -0.161253  0  3.996942  0
C  C64  1  0.69806551  0.07311747  0.48782255  1  -0.016509  0  -0.094292  -0.161174  0  3.996771  0
C  C65  1  0.69806590  0.92688180  0.01217912  1  -0.016785  0  -0.094371  -0.161215  0  3.996952  0
N  N66  1  0.68211941  0.63088268  0.81609359  1  -1.223947  0  -0.315677  -0.216454  0  3.521298  0
N  N67  1  0.68211348  0.36911689  0.68390845  1  -1.224004  0  -0.315712  -0.216447  0  3.521345  0
N  N68  1  0.31788649  0.36911028  0.18390633  1  -1.223994  0  -0.315705  -0.21648  0  3.521509  0
N  N69  1  0.31788244  0.63088379  0.31609225  1  -1.223971  0  -0.315604  -0.216227  0  3.521225  0
N  N70  1  0.53272492  0.88401531  0.66018165  1  -1.265908  0  -0.396051  -0.383152  0  3.560293  0
N  N71  1  0.53272523  0.11598435  0.83981880  1  -1.266085  0  -0.396145  -0.383336  0  3.56037  0
N  N72  1  0.46727898  0.11598306  0.33981954  1  -1.265535  0  -0.39621  -0.383282  0  3.560386  0
N  N73  1  0.46727468  0.88401634  0.16018263  1  -1.266069  0  -0.396101  -0.383299  0  3.560204  0
Cl  Cl74  1  0.11893158  0.41178574  0.88910033  1  -0.511743  0  -0.258641  -0.391985  0  1.28842  0
Cl  Cl75  1  0.11893016  0.58821490  0.61089835  1  -0.511765  0  -0.258638  -0.391986  0  1.288409  0
Cl  Cl76  1  0.88107032  0.58821417  0.11090029  1  -0.51172  0  -0.258633  -0.391983  0  1.288426  0
Cl  Cl77  1  0.88106775  0.41178500  0.38909937  1  -0.511731  0  -0.258631  -0.391972  0  1.288436  0
O  O78  1  0.08994360  0.87334902  0.70339652  1  -1.163328  0  -0.293701  -0.503146  0  2.197834  0
O  O79  1  0.08994354  0.12665395  0.79660237  1  -1.163134  0  -0.29369  -0.503127  0  2.1978  0
O  O80  1  0.91006030  0.12664781  0.29660669  1  -1.162628  0  -0.293674  -0.503064  0  2.197995  0
O  O81  1  0.91005636  0.87334904  0.20339712  1  -1.16316  0  -0.2937  -0.50316  0  2.197811  0
