# generated using pymatgen
data_Er2P2H16C14N2O19
_symmetry_space_group_name_H-M   'P 1'
_cell_length_a   11.38777749
_cell_length_b   14.66976072
_cell_length_c   16.22145497
_cell_angle_alpha   89.99982153
_cell_angle_beta   89.99935786
_cell_angle_gamma   89.99961191
_symmetry_Int_Tables_number   1
_chemical_formula_structural   Er2P2H16C14N2O19
_chemical_formula_sum   'Er8 P8 H64 C56 N8 O76'
_cell_volume   2709.89090788
_cell_formula_units_Z   4
loop_
 _symmetry_equiv_pos_site_id
 _symmetry_equiv_pos_as_xyz
  1  'x, y, z'
loop_
 _atom_site_type_symbol
 _atom_site_label
 _atom_site_symmetry_multiplicity
 _atom_site_fract_x
 _atom_site_fract_y
 _atom_site_fract_z
 _atom_site_occupancy
 _atom_site_pbe_bader_charge
 _atom_site_pbe_bader_spin_density
 _atom_site_pbe_cm5_charge
 _atom_site_pbe_ddec_charge
 _atom_site_pbe_ddec_spin_density
 _atom_site_pbe_ddec_sum_bond_order
 _atom_site_pbe_magmom
Er  Er0  1  0.72463530  0.25587655  0.56687875  1  2.173612  0  1.490689  2.042472  0  2.166248  0
Er  Er1  1  0.77537226  0.74411974  0.06687895  1  2.173601  0  1.490624  2.04224  0  2.166267  0
Er  Er2  1  0.27537043  0.75588593  0.93312809  1  2.173546  0  1.490643  2.042292  0  2.166316  0
Er  Er3  1  0.22464685  0.24411307  0.43312577  1  2.173479  0  1.49054  2.042191  0  2.166157  0
Er  Er4  1  0.75987730  0.20024435  0.94671946  1  2.185799  0  1.507156  2.064748  0  2.153271  0
Er  Er5  1  0.74012681  0.79974721  0.44671485  1  2.185915  0  1.507174  2.06481  0  2.153099  0
Er  Er6  1  0.24012101  0.70022865  0.55328569  1  2.185596  0  1.507091  2.06479  0  2.153168  0
Er  Er7  1  0.25988040  0.29976758  0.05328540  1  2.185741  0  1.507121  2.064962  0  2.152896  0
P  P8  1  0.73332352  0.18363813  0.17339007  1  3.40176  0  0.376641  1.335508  0  5.351145  0
P  P9  1  0.76668058  0.81636051  0.67338859  1  3.40206  0  0.376635  1.335537  0  5.351291  0
P  P10  1  0.26666978  0.68364111  0.32661482  1  3.401758  0  0.376702  1.335566  0  5.351377  0
P  P11  1  0.23331671  0.31635826  0.82661130  1  3.401661  0  0.376671  1.335504  0  5.35114  0
P  P12  1  0.67758139  0.04453940  0.45710609  1  3.375565  0  0.379527  1.376727  0  5.288326  0
P  P13  1  0.82242782  0.95545349  0.95710133  1  3.375835  0  0.379562  1.377041  0  5.287995  0
P  P14  1  0.32241664  0.54455193  0.04289610  1  3.376108  0  0.379403  1.376888  0  5.288292  0
P  P15  1  0.17759021  0.45544774  0.54289263  1  3.375821  0  0.379197  1.376448  0  5.288821  0
H  H16  1  0.58888624  0.24461756  0.24540259  1  0.644812  0  0.346337  0.410814  0  0.859507  0
H  H17  1  0.91111144  0.75538560  0.74539337  1  0.64466  0  0.34628  0.410751  0  0.859569  0
H  H18  1  0.41109423  0.74461458  0.25459473  1  0.644585  0  0.346304  0.410713  0  0.859514  0
H  H19  1  0.08887234  0.25538572  0.75460546  1  0.644884  0  0.346314  0.410728  0  0.859532  0
H  H20  1  0.52477580  0.96001212  0.46114451  1  0.674834  0  0.30967  0.386422  0  0.953354  0
H  H21  1  0.97523334  0.03998893  0.96113062  1  0.675114  0  0.309615  0.386282  0  0.953526  0
H  H22  1  0.47523791  0.46000755  0.03887502  1  0.675051  0  0.309621  0.386323  0  0.953495  0
H  H23  1  0.02477779  0.53999349  0.53884539  1  0.674707  0  0.309632  0.386419  0  0.953346  0
H  H24  1  0.71787390  0.47199808  0.52891826  1  0.640094  0  0.350579  0.450759  0  0.818063  0
H  H25  1  0.78214393  0.52800992  0.02891962  1  0.640239  0  0.350625  0.450815  0  0.818016  0
H  H26  1  0.28214838  0.97199025  0.97108552  1  0.640191  0  0.350623  0.450814  0  0.818008  0
H  H27  1  0.21788585  0.02800520  0.47108139  1  0.640365  0  0.350562  0.450714  0  0.81812  0
H  H28  1  0.72962099  0.43823320  0.62164915  1  0.636055  0  0.326882  0.421832  0  0.878902  0
H  H29  1  0.77039184  0.56176631  0.12165236  1  0.636167  0  0.326824  0.421793  0  0.878928  0
H  H30  1  0.27039895  0.93822779  0.87835040  1  0.636214  0  0.326862  0.421903  0  0.878799  0
H  H31  1  0.22960779  0.06178094  0.37834979  1  0.635953  0  0.326922  0.421914  0  0.878794  0
H  H32  1  0.76039627  0.97575027  0.30463787  1  0.518701  0  0.311365  0.255432  0  0.979013  0
H  H33  1  0.73960923  0.02424859  0.80464067  1  0.518903  0  0.311386  0.255486  0  0.979002  0
H  H34  1  0.23960676  0.47574981  0.19536065  1  0.518902  0  0.311398  0.255518  0  0.978911  0
H  H35  1  0.26038447  0.52425002  0.69536682  1  0.518713  0  0.311373  0.255429  0  0.979075  0
H  H36  1  0.13672507  0.83393236  0.26025547  1  0.577453  0  0.311182  0.301431  0  1.000301  0
H  H37  1  0.36327039  0.16606588  0.76025875  1  0.577807  0  0.311204  0.301432  0  1.00039  0
H  H38  1  0.86326779  0.33393596  0.23973790  1  0.577832  0  0.311182  0.301454  0  1.00034  0
H  H39  1  0.63672120  0.66606790  0.73973786  1  0.577779  0  0.311139  0.301375  0  1.000398  0
H  H40  1  0.65628879  0.03081849  0.19401821  1  0.107225  0  0.138024  0.17026  0  0.932015  0
H  H41  1  0.84371849  0.96917940  0.69401385  1  0.107187  0  0.13801  0.170298  0  0.932066  0
H  H42  1  0.34370496  0.53082113  0.30598403  1  0.107408  0  0.138034  0.170324  0  0.93198  0
H  H43  1  0.15627571  0.46917967  0.80598624  1  0.107115  0  0.138001  0.170253  0  0.932019  0
H  H44  1  0.80602849  0.02875266  0.16945879  1  0.107823  0  0.130382  0.160285  0  0.987122  0
H  H45  1  0.69397655  0.97124735  0.66946176  1  0.107876  0  0.130401  0.160365  0  0.98702  0
H  H46  1  0.19395650  0.52875669  0.33054407  1  0.107913  0  0.130419  0.160396  0  0.987016  0
H  H47  1  0.30602554  0.47124539  0.83053831  1  0.107923  0  0.130421  0.160331  0  0.987053  0
H  H48  1  0.59352726  0.08290108  0.32349813  1  0.091432  0  0.128705  0.152636  0  0.965741  0
H  H49  1  0.90647180  0.91708000  0.82349898  1  0.091645  0  0.128747  0.15271  0  0.965757  0
H  H50  1  0.40646955  0.58289975  0.17650087  1  0.091482  0  0.128737  0.152675  0  0.965736  0
H  H51  1  0.09351847  0.41711922  0.67649570  1  0.091126  0  0.12873  0.152682  0  0.965668  0
H  H52  1  0.69935941  0.16601457  0.35495841  1  0.122106  0  0.12704  0.150444  0  1.013742  0
H  H53  1  0.80062246  0.83398003  0.85496278  1  0.121951  0  0.127031  0.150446  0  1.01387  0
H  H54  1  0.30062790  0.66601664  0.14503975  1  0.12206  0  0.12705  0.150415  0  1.013909  0
H  H55  1  0.19934658  0.33398813  0.64503645  1  0.122183  0  0.126976  0.150376  0  1.01386  0
H  H56  1  0.90069219  0.05073536  0.38561347  1  0.108279  0  0.132108  0.130703  0  0.959728  0
H  H57  1  0.59931465  0.94927073  0.88561294  1  0.108237  0  0.132163  0.130731  0  0.959696  0
H  H58  1  0.09930929  0.55072359  0.11438685  1  0.108201  0  0.132182  0.130824  0  0.959612  0
H  H59  1  0.40068499  0.44926833  0.61438412  1  0.108255  0  0.132184  0.130802  0  0.959602  0
H  H60  1  0.89978608  0.14786726  0.31795172  1  0.138779  0  0.122772  0.135054  0  1.005172  0
H  H61  1  0.60021483  0.85213429  0.81795391  1  0.138823  0  0.12274  0.135077  0  1.005054  0
H  H62  1  0.10020227  0.64786002  0.18204464  1  0.138945  0  0.122748  0.135136  0  1.004916  0
H  H63  1  0.39977776  0.35213507  0.68205020  1  0.138848  0  0.122734  0.135095  0  1.005016  0
H  H64  1  0.99758157  0.13605315  0.17883004  1  0.124517  0  0.121881  0.123028  0  0.980717  0
H  H65  1  0.50242069  0.86395025  0.67883235  1  0.124608  0  0.121924  0.12308  0  0.980632  0
H  H66  1  0.00241390  0.63604935  0.32116820  1  0.124584  0  0.121847  0.122959  0  0.980644  0
H  H67  1  0.49757531  0.36394936  0.82116926  1  0.124569  0  0.121912  0.123089  0  0.980646  0
H  H68  1  0.14409913  0.05401329  0.09235976  1  0.143326  0  0.120811  0.136994  0  1.009228  0
H  H69  1  0.35588936  0.94598552  0.59236646  1  0.143271  0  0.120735  0.136977  0  1.00928  0
H  H70  1  0.85587773  0.55401699  0.40763440  1  0.143171  0  0.120768  0.137009  0  1.009188  0
H  H71  1  0.64410417  0.44598561  0.90763245  1  0.143321  0  0.120784  0.136989  0  1.009265  0
H  H72  1  0.20847640  0.89428442  0.13780616  1  0.17116  0  0.139408  0.122563  0  0.986567  0
H  H73  1  0.29150434  0.10570946  0.63781388  1  0.171376  0  0.139341  0.122399  0  0.986491  0
H  H74  1  0.79150012  0.39428866  0.36218704  1  0.171334  0  0.13937  0.122546  0  0.986455  0
H  H75  1  0.70848777  0.60570591  0.86218538  1  0.170893  0  0.139352  0.122447  0  0.986568  0
H  H76  1  0.99898801  0.90661620  0.34667519  1  0.221005  0  0.133845  0.126621  0  1.046737  0
H  H77  1  0.50101331  0.09339138  0.84667227  1  0.220507  0  0.13387  0.126618  0  1.046848  0
H  H78  1  0.00099894  0.40661986  0.15331860  1  0.220921  0  0.133856  0.126563  0  1.046828  0
H  H79  1  0.49897891  0.59338215  0.65332270  1  0.22086  0  0.133831  0.126601  0  1.046744  0
C  C80  1  0.74042963  0.06446433  0.20693159  1  -0.275086  0  -0.065683  -0.388187  0  3.754496  0
C  C81  1  0.75957832  0.93553283  0.70693107  1  -0.275037  0  -0.06567  -0.388312  0  3.754546  0
C  C82  1  0.25956295  0.56446882  0.29307425  1  -0.275194  0  -0.065771  -0.388437  0  3.754494  0
C  C83  1  0.24041793  0.43553270  0.79307281  1  -0.274792  0  -0.065665  -0.388212  0  3.754451  0
C  C84  1  0.68030775  0.09273259  0.35146444  1  -0.237711  0  -0.070473  -0.398278  0  3.740681  0
C  C85  1  0.81968910  0.90725793  0.85146723  1  -0.237767  0  -0.0705  -0.398402  0  3.740751  0
C  C86  1  0.31968897  0.59273727  0.14853638  1  -0.237796  0  -0.0705  -0.3983  0  3.740697  0
C  C87  1  0.18029862  0.40726953  0.64853611  1  -0.237375  0  -0.070421  -0.398071  0  3.740455  0
C  C88  1  0.89255318  0.07359476  0.32145277  1  0.204212  0  -0.052129  -0.1296  0  3.748804  0
C  C89  1  0.60744591  0.92640882  0.82145100  1  0.204042  0  -0.052178  -0.129657  0  3.748628  0
C  C90  1  0.10744635  0.57358613  0.17854688  1  0.204234  0  -0.052229  -0.129865  0  3.7486  0
C  C91  1  0.39254778  0.42640829  0.67854921  1  0.203937  0  -0.052134  -0.129698  0  3.748605  0
C  C92  1  0.98307279  0.02775474  0.26829017  1  0.100304  0  0.006477  0.05721  0  3.951275  0
C  C93  1  0.51692189  0.97225039  0.76829145  1  0.100565  0  0.006444  0.057181  0  3.951236  0
C  C94  1  0.01693329  0.52774027  0.23170961  1  0.100795  0  0.006379  0.05705  0  3.951346  0
C  C95  1  0.48306702  0.47224648  0.73171110  1  0.100284  0  0.006466  0.057175  0  3.951295  0
C  C96  1  0.02739153  0.06803137  0.19634039  1  -0.071247  0  -0.039459  -0.04217  0  3.852865  0
C  C97  1  0.47260671  0.93197049  0.69634560  1  -0.07096  0  -0.039504  -0.0421  0  3.852822  0
C  C98  1  0.97261331  0.56802596  0.30365496  1  -0.071312  0  -0.039331  -0.041879  0  3.852476  0
C  C99  1  0.52738870  0.43196473  0.80365644  1  -0.071134  0  -0.039507  -0.042178  0  3.852774  0
C  C100  1  0.10941691  0.02222613  0.14778345  1  0.087835  0  -0.059533  -0.086546  0  3.92289  0
C  C101  1  0.39056455  0.97776840  0.64779288  1  0.086833  0  -0.059393  -0.086639  0  3.923059  0
C  C102  1  0.89057956  0.52222848  0.35221388  1  0.087324  0  -0.059514  -0.086709  0  3.922872  0
C  C103  1  0.60943046  0.47776613  0.85220348  1  0.086795  0  -0.05946  -0.086642  0  3.923099  0
C  C104  1  0.14731299  0.93672216  0.17233284  1  0.391949  0  0.081662  0.108245  0  3.81812  0
C  C105  1  0.35266895  0.06327297  0.67234327  1  0.392534  0  0.081723  0.1085  0  3.81812  0
C  C106  1  0.85267545  0.43672552  0.32766579  1  0.392185  0  0.081679  0.108374  0  3.817888  0
C  C107  1  0.64732354  0.56326918  0.82765979  1  0.393157  0  0.081741  0.108541  0  3.817916  0
C  C108  1  0.02614000  0.94244425  0.29058410  1  0.392312  0  0.071892  0.040865  0  3.80199  0
C  C109  1  0.47385585  0.05755933  0.79058867  1  0.392688  0  0.07188  0.040789  0  3.802129  0
C  C110  1  0.97385454  0.44243716  0.20941513  1  0.392553  0  0.071948  0.041018  0  3.80239  0
C  C111  1  0.52613493  0.55755181  0.70941379  1  0.392479  0  0.071874  0.040918  0  3.802068  0
C  C112  1  0.49874573  0.26417331  0.45351372  1  1.587642  0  0.206538  0.495552  0  4.261077  0
C  C113  1  0.00126595  0.73583039  0.95351701  1  1.587276  0  0.206703  0.495983  0  4.260735  0
C  C114  1  0.50126091  0.76416240  0.04647862  1  1.586865  0  0.206657  0.495732  0  4.26093  0
C  C115  1  0.99875049  0.23584077  0.54648496  1  1.586821  0  0.206658  0.495586  0  4.261238  0
C  C116  1  0.45326919  0.24051168  0.54115958  1  1.604122  0  0.21453  0.502359  0  4.241273  0
C  C117  1  0.04673945  0.75948595  0.04116276  1  1.60444  0  0.214468  0.502079  0  4.241367  0
C  C118  1  0.54674019  0.74051205  0.95882882  1  1.604635  0  0.214499  0.50219  0  4.241256  0
C  C119  1  0.95326899  0.25948901  0.45883452  1  1.604106  0  0.214487  0.502125  0  4.241437  0
C  C120  1  0.74214241  0.18062683  0.74916762  1  1.569474  0  0.220014  0.494207  0  4.219117  0
C  C121  1  0.75784554  0.81937018  0.24916219  1  1.569491  0  0.22  0.494194  0  4.218795  0
C  C122  1  0.25784641  0.68062944  0.75083759  1  1.569757  0  0.219947  0.494395  0  4.218774  0
C  C123  1  0.24215974  0.31937633  0.25083862  1  1.569464  0  0.219851  0.494136  0  4.219034  0
C  C124  1  0.74826244  0.28433809  0.76341771  1  1.623565  0  0.216137  0.510597  0  4.25025  0
C  C125  1  0.75173758  0.71565887  0.26341447  1  1.623811  0  0.216291  0.510873  0  4.249955  0
C  C126  1  0.25174831  0.78434078  0.73659769  1  1.624149  0  0.216045  0.510398  0  4.249986  0
C  C127  1  0.24824314  0.21566299  0.23658786  1  1.623697  0  0.21616  0.510601  0  4.249725  0
C  C128  1  0.53364265  0.30187739  0.01296550  1  1.581007  0  0.21806  0.498755  0  4.23139  0
C  C129  1  0.96635172  0.69812316  0.51296094  1  1.581106  0  0.218014  0.498758  0  4.231179  0
C  C130  1  0.46637947  0.80188013  0.48703228  1  1.580461  0  0.218238  0.49904  0  4.230666  0
C  C131  1  0.03362377  0.19812277  0.98703497  1  1.58056  0  0.218117  0.498853  0  4.230756  0
C  C132  1  0.48943701  0.20724579  0.98477074  1  1.621619  0  0.215655  0.503035  0  4.248463  0
C  C133  1  0.01056451  0.79274962  0.48476548  1  1.621818  0  0.215612  0.502755  0  4.248411  0
C  C134  1  0.51058055  0.70724925  0.51522206  1  1.619986  0  0.215549  0.502817  0  4.248584  0
C  C135  1  0.98942608  0.29275880  0.01522369  1  1.621525  0  0.215681  0.503003  0  4.248098  0
N  N136  1  0.76842304  0.04825252  0.29607764  1  -0.993259  0  -0.333174  0.075968  0  3.572977  0
N  N137  1  0.73158261  0.95174638  0.79607729  1  -0.993712  0  -0.333171  0.075893  0  3.572777  0
N  N138  1  0.23157583  0.54825406  0.20392578  1  -0.994079  0  -0.33315  0.075936  0  3.572832  0
N  N139  1  0.26841438  0.45174777  0.70392654  1  -0.993624  0  -0.333185  0.075866  0  3.572852  0
N  N140  1  0.10571448  0.90035618  0.24272871  1  -1.310828  0  -0.328068  -0.119548  0  3.658306  0
N  N141  1  0.39427423  0.09964279  0.74273440  1  -1.311246  0  -0.328062  -0.11949  0  3.658378  0
N  N142  1  0.89427253  0.40035820  0.25726756  1  -1.311326  0  -0.328034  -0.119604  0  3.658418  0
N  N143  1  0.60572056  0.59963946  0.75726240  1  -1.311048  0  -0.328041  -0.119636  0  3.658098  0
O  O144  1  0.82116970  0.23764278  0.22269719  1  -1.469203  0  -0.365216  -0.746685  0  2.207845  0
O  O145  1  0.67883975  0.76234955  0.72269840  1  -1.46912  0  -0.365234  -0.746695  0  2.207912  0
O  O146  1  0.17882839  0.73764162  0.27730385  1  -1.469061  0  -0.365252  -0.746747  0  2.207894  0
O  O147  1  0.32116328  0.26236133  0.77730103  1  -1.469109  0  -0.365272  -0.746712  0  2.208018  0
O  O148  1  0.74572090  0.17823530  0.08150986  1  -1.455737  0  -0.467685  -0.84494  0  2.357139  0
O  O149  1  0.75427150  0.82176502  0.58151155  1  -1.455864  0  -0.467737  -0.844983  0  2.357161  0
O  O150  1  0.25427244  0.67823735  0.41849689  1  -1.455802  0  -0.467767  -0.84494  0  2.357149  0
O  O151  1  0.24572487  0.32176034  0.91849388  1  -1.4557  0  -0.467783  -0.84498  0  2.357027  0
O  O152  1  0.60059408  0.21722863  0.19114974  1  -1.386156  0  -0.378491  -0.643251  0  2.172106  0
O  O153  1  0.89941061  0.78276245  0.69113499  1  -1.386161  0  -0.378334  -0.643111  0  2.172181  0
O  O154  1  0.39939892  0.71722961  0.30885136  1  -1.385884  0  -0.378446  -0.643117  0  2.171962  0
O  O155  1  0.10058522  0.28276504  0.80886254  1  -1.386199  0  -0.378404  -0.64311  0  2.172161  0
O  O156  1  0.74634148  0.95682404  0.45651089  1  -1.461134  0  -0.444352  -0.832033  0  2.299517  0
O  O157  1  0.75365281  0.04316476  0.95650860  1  -1.461453  0  -0.44444  -0.832265  0  2.299346  0
O  O158  1  0.25365119  0.45683698  0.04348768  1  -1.461368  0  -0.444519  -0.832313  0  2.299324  0
O  O159  1  0.24635302  0.54316882  0.54348528  1  -1.461044  0  -0.444417  -0.8321  0  2.299372  0
O  O160  1  0.71985663  0.11818183  0.51453101  1  -1.454896  0  -0.478802  -0.848029  0  2.325763  0
O  O161  1  0.78014913  0.88181395  0.01452893  1  -1.45474  0  -0.478759  -0.847978  0  2.325643  0
O  O162  1  0.28011956  0.61818351  0.98546944  1  -1.454928  0  -0.4786  -0.847901  0  2.325692  0
O  O163  1  0.21990829  0.38181940  0.48547787  1  -1.455022  0  -0.478551  -0.847844  0  2.326017  0
O  O164  1  0.54157587  0.02667440  0.47356017  1  -1.439766  0  -0.388769  -0.667242  0  2.181963  0
O  O165  1  0.95843484  0.97332456  0.97354319  1  -1.440119  0  -0.388689  -0.667183  0  2.182047  0
O  O166  1  0.45841441  0.52666924  0.02644639  1  -1.440163  0  -0.388665  -0.66721  0  2.182289  0
O  O167  1  0.04158831  0.47332572  0.52643346  1  -1.439717  0  -0.388621  -0.667215  0  2.182027  0
O  O168  1  0.60654549  0.28381344  0.44737695  1  -1.179817  0  -0.368918  -0.596483  0  2.27602  0
O  O169  1  0.89346651  0.71619720  0.94737722  1  -1.179424  0  -0.369009  -0.596695  0  2.27607  0
O  O170  1  0.39346098  0.78378330  0.05262211  1  -1.17947  0  -0.368968  -0.596532  0  2.276118  0
O  O171  1  0.10654571  0.21622996  0.55263466  1  -1.179404  0  -0.368861  -0.596387  0  2.276443  0
O  O172  1  0.42413376  0.26087703  0.39555250  1  -1.181137  0  -0.381124  -0.617963  0  2.251707  0
O  O173  1  0.07587621  0.73913232  0.89555212  1  -1.181258  0  -0.381186  -0.618079  0  2.251473  0
O  O174  1  0.57587467  0.76086348  0.10444354  1  -1.18118  0  -0.381138  -0.618002  0  2.251601  0
O  O175  1  0.92412263  0.23914290  0.60444799  1  -1.180702  0  -0.381258  -0.618078  0  2.251513  0
O  O176  1  0.34572585  0.22000173  0.54718292  1  -1.185949  0  -0.373291  -0.604612  0  2.338443  0
O  O177  1  0.15429322  0.77999179  0.04717348  1  -1.185898  0  -0.373381  -0.604588  0  2.338274  0
O  O178  1  0.65428897  0.72001247  0.95281910  1  -1.185978  0  -0.37332  -0.60459  0  2.338432  0
O  O179  1  0.84571943  0.27999270  0.45282559  1  -1.185982  0  -0.373351  -0.604609  0  2.338516  0
O  O180  1  0.52657449  0.24419720  0.59988891  1  -1.179713  0  -0.38191  -0.612456  0  2.279634  0
O  O181  1  0.97345274  0.75580647  0.09989739  1  -1.180121  0  -0.381786  -0.612267  0  2.279764  0
O  O182  1  0.47343661  0.74419407  0.90009762  1  -1.179931  0  -0.381896  -0.612383  0  2.27942  0
O  O183  1  0.02656627  0.25581118  0.40010052  1  -1.17979  0  -0.381851  -0.612298  0  2.279536  0
O  O184  1  0.72253085  0.15103075  0.67822219  1  -1.154674  0  -0.345922  -0.548872  0  2.320927  0
O  O185  1  0.77747668  0.84897196  0.17822022  1  -1.15452  0  -0.345949  -0.548905  0  2.320891  0
O  O186  1  0.27746174  0.65102551  0.82177632  1  -1.1548  0  -0.345825  -0.548919  0  2.320894  0
O  O187  1  0.22254678  0.34897660  0.32177989  1  -1.154925  0  -0.345788  -0.548761  0  2.321005  0
O  O188  1  0.75613518  0.13178403  0.81393494  1  -1.188674  0  -0.365168  -0.599707  0  2.388425  0
O  O189  1  0.74384471  0.86821412  0.31393010  1  -1.188799  0  -0.365125  -0.599677  0  2.388064  0
O  O190  1  0.24384705  0.63179239  0.68606486  1  -1.188811  0  -0.36514  -0.59976  0  2.388013  0
O  O191  1  0.25615224  0.36821633  0.18606317  1  -1.188422  0  -0.365152  -0.599791  0  2.388254  0
O  O192  1  0.76001205  0.30977189  0.83732160  1  -1.167677  0  -0.355825  -0.600497  0  2.281627  0
O  O193  1  0.73999293  0.69022414  0.33732038  1  -1.167701  0  -0.355912  -0.600641  0  2.281403  0
O  O194  1  0.23999232  0.80977966  0.66269434  1  -1.168148  0  -0.355696  -0.600297  0  2.281181  0
O  O195  1  0.25998538  0.19022641  0.16268449  1  -1.16802  0  -0.35577  -0.600441  0  2.281473  0
O  O196  1  0.73846539  0.33325246  0.69930198  1  -1.191748  0  -0.360377  -0.612404  0  2.283453  0
O  O197  1  0.76156990  0.66675223  0.19929818  1  -1.192057  0  -0.360431  -0.612512  0  2.283504  0
O  O198  1  0.26157478  0.83325828  0.80070897  1  -1.191915  0  -0.360387  -0.612472  0  2.28333  0
O  O199  1  0.23841915  0.16675140  0.30070429  1  -1.191554  0  -0.360379  -0.612434  0  2.283116  0
O  O200  1  0.45862398  0.35135004  0.05106341  1  -1.192253  0  -0.360664  -0.620527  0  2.358169  0
O  O201  1  0.04138010  0.64865164  0.55105739  1  -1.191995  0  -0.36063  -0.620496  0  2.357911  0
O  O202  1  0.54140210  0.85135661  0.44894409  1  -1.19238  0  -0.360882  -0.620774  0  2.357988  0
O  O203  1  0.95860022  0.14865403  0.94893804  1  -1.192199  0  -0.36073  -0.620586  0  2.357991  0
O  O204  1  0.63637643  0.32446066  0.99387646  1  -1.168751  0  -0.341992  -0.567213  0  2.296937  0
O  O205  1  0.86362341  0.67553210  0.49387985  1  -1.168939  0  -0.341969  -0.567153  0  2.296883  0
O  O206  1  0.36364978  0.82447242  0.50612773  1  -1.168278  0  -0.341958  -0.567275  0  2.296487  0
O  O207  1  0.13635678  0.17553215  0.00612752  1  -1.168424  0  -0.341972  -0.56727  0  2.296496  0
O  O208  1  0.56177564  0.16132740  0.94193158  1  -1.185873  0  -0.377167  -0.6035  0  2.331724  0
O  O209  1  0.93822152  0.83867167  0.44193208  1  -1.185853  0  -0.377224  -0.603514  0  2.331767  0
O  O210  1  0.43822828  0.66133860  0.55806875  1  -1.185411  0  -0.377091  -0.603535  0  2.331697  0
O  O211  1  0.06177481  0.33867670  0.05806251  1  -1.185758  0  -0.377211  -0.603598  0  2.331587  0
O  O212  1  0.38632652  0.18493451  0.00387088  1  -1.16268  0  -0.364586  -0.575588  0  2.265095  0
O  O213  1  0.11368095  0.81505575  0.50385704  1  -1.163098  0  -0.364473  -0.575349  0  2.26492  0
O  O214  1  0.61368609  0.68493099  0.49613277  1  -1.161466  0  -0.364538  -0.575379  0  2.265375  0
O  O215  1  0.88631547  0.31507062  0.99614163  1  -1.162811  0  -0.364542  -0.575425  0  2.265047  0
O  O216  1  0.70903716  0.41999174  0.56549153  1  -1.234161  0  -0.607182  -0.835133  0  1.994722  0
O  O217  1  0.79098271  0.58000932  0.06549391  1  -1.234402  0  -0.607151  -0.835095  0  1.99469  0
O  O218  1  0.29099435  0.91999013  0.93450807  1  -1.234411  0  -0.607213  -0.835238  0  1.994643  0
O  O219  1  0.20901764  0.08000886  0.43451126  1  -1.234317  0  -0.607192  -0.835123  0  1.994666  0
