# generated using pymatgen
data_P2H20Pb(C9O4)2
_symmetry_space_group_name_H-M   'P 1'
_cell_length_a   5.17555117
_cell_length_b   8.49016717
_cell_length_c   12.13591629
_cell_angle_alpha   110.57165870
_cell_angle_beta   99.09934875
_cell_angle_gamma   89.96304123
_symmetry_Int_Tables_number   1
_chemical_formula_structural   P2H20Pb(C9O4)2
_chemical_formula_sum   'P2 H20 Pb1 C18 O8'
_cell_volume   492.10944590
_cell_formula_units_Z   1
loop_
 _symmetry_equiv_pos_site_id
 _symmetry_equiv_pos_as_xyz
  1  'x, y, z'
loop_
 _atom_site_type_symbol
 _atom_site_label
 _atom_site_symmetry_multiplicity
 _atom_site_fract_x
 _atom_site_fract_y
 _atom_site_fract_z
 _atom_site_occupancy
 _atom_site_hle17_bader_spin_density
 _atom_site_hle17_ddec_charge
 _atom_site_hle17_ddec_spin_density
 _atom_site_hle17_ddec_sum_bond_order
 _atom_site_hle17_magmom
 _atom_site_hse06_10hf_bader_spin_density
 _atom_site_hse06_10hf_ddec_charge
 _atom_site_hse06_10hf_ddec_spin_density
 _atom_site_hse06_10hf_ddec_sum_bond_order
 _atom_site_hse06_10hf_magmom
 _atom_site_hse06_bader_spin_density
 _atom_site_hse06_ddec_charge
 _atom_site_hse06_ddec_spin_density
 _atom_site_hse06_ddec_sum_bond_order
 _atom_site_hse06_magmom
 _atom_site_pbe_bader_spin_density
 _atom_site_pbe_cm5_charge
 _atom_site_pbe_ddec_charge
 _atom_site_pbe_ddec_spin_density
 _atom_site_pbe_ddec_sum_bond_order
 _atom_site_pbe_magmom
P  P0  1  0.61229975  0.57112939  0.18164520  1  0  1.23513  0  4.646778  0  0  1.105111  0  5.11329  0  0  1.145403  0  5.092332  0  0  0.300041  1.07713  0  5.127076  0
P  P1  1  0.38755539  0.38880612  0.81850900  1  0  1.236738  0  4.645875  0  0  1.106506  0  5.112621  0  0  1.146813  0  5.091731  0  0  0.300425  1.078535  0  5.126375  0
H  H2  1  0.36644112  0.81558694  0.36299072  1  0  0.096751  0  0.950113  0  0  0.107597  0  1.010488  0  0  0.110492  0  1.009332  0  0  0.103586  0.105519  0  1.011362  0
H  H3  1  0.63372644  0.45161709  0.63748992  1  0  0.097249  0  0.949898  0  0  0.107773  0  1.010282  0  0  0.110704  0  1.009091  0  0  0.103677  0.105681  0  1.011152  0
H  H4  1  0.46786718  0.92885033  0.58334587  1  0  0.082141  0  0.97274  0  0  0.094019  0  1.033437  0  0  0.095615  0  1.034866  0  0  0.096306  0.092829  0  1.032591  0
H  H5  1  0.53266095  0.34426608  0.41710569  1  0  0.082054  0  0.970765  0  0  0.093877  0  1.031481  0  0  0.095444  0  1.032928  0  0  0.096317  0.09273  0  1.030601  0
H  H6  1  0.85641424  0.83185535  0.69008595  1  0  0.092614  0  0.965349  0  0  0.102966  0  1.02743  0  0  0.105888  0  1.025797  0  0  0.099821  0.100846  0  1.028687  0
H  H7  1  0.14394191  0.14078148  0.30998604  1  0  0.092694  0  0.965216  0  0  0.102897  0  1.027412  0  0  0.105828  0  1.025785  0  0  0.099679  0.100759  0  1.028671  0
H  H8  1  0.14477118  0.63021326  0.57332369  1  0  0.091046  0  0.97092  0  0  0.098492  0  1.03688  0  0  0.100907  0  1.037307  0  0  0.096925  0.096746  0  1.036716  0
H  H9  1  0.85574280  0.05575388  0.42636787  1  0  0.090714  0  0.972194  0  0  0.098716  0  1.037657  0  0  0.101154  0  1.03805  0  0  0.096804  0.096965  0  1.03746  0
H  H10  1  0.05118267  0.52371097  0.35182304  1  0  0.082265  0  0.967322  0  0  0.092541  0  1.03386  0  0  0.094913  0  1.032965  0  0  0.098873  0.090802  0  1.034628  0
H  H11  1  0.94859337  0.17107425  0.64786258  1  0  0.082042  0  0.967757  0  0  0.091716  0  1.035121  0  0  0.09416  0  1.034158  0  0  0.098517  0.089934  0  1.035928  0
H  H12  1  0.28765721  0.39127215  0.20547080  1  0  0.127312  0  0.935329  0  0  0.142421  0  0.99409  0  0  0.14447  0  0.993831  0  0  0.105664  0.140923  0  0.994382  0
H  H13  1  0.71151569  0.18429424  0.79369045  1  0  0.127288  0  0.935319  0  0  0.142825  0  0.993932  0  0  0.144872  0  0.99375  0  0  0.105844  0.141297  0  0.994249  0
H  H14  1  0.33767133  0.32776760  0.05712866  1  0  0.138189  0  0.946308  0  0  0.152491  0  1.005252  0  0  0.154648  0  1.005006  0  0  0.11227  0.150858  0  1.005646  0
H  H15  1  0.66325913  0.26967825  0.94231616  1  0  0.138107  0  0.946001  0  0  0.152543  0  1.004867  0  0  0.154718  0  1.004649  0  0  0.112437  0.150956  0  1.005128  0
H  H16  1  0.78240371  0.21951736  0.11457979  1  0  0.130541  0  0.909284  0  0  0.145218  0  0.96752  0  0  0.148104  0  0.965851  0  0  0.114137  0.143133  0  0.968853  0
H  H17  1  0.21760106  0.10485512  0.88539456  1  0  0.129864  0  0.91035  0  0  0.145495  0  0.967423  0  0  0.148354  0  0.965736  0  0  0.114049  0.14341  0  0.968772  0
H  H18  1  0.73779851  0.28664401  0.26355112  1  0  0.095473  0  0.954861  0  0  0.10839  0  1.023035  0  0  0.110057  0  1.023087  0  0  0.10131  0.10721  0  1.023073  0
H  H19  1  0.26156917  0.02203913  0.73635527  1  0  0.095937  0  0.954833  0  0  0.108587  0  1.023397  0  0  0.110251  0  1.023413  0  0  0.101485  0.107415  0  1.023425  0
H  H20  1  0.55233707  0.86026353  0.17232700  1  0  0.392064  0  0.921189  0  0  0.359055  0  1.001841  0  0  0.371279  0  0.984634  0  0  0.299351  0.350505  0  1.011833  0
H  H21  1  0.44722029  0.68729975  0.82797419  1  0  0.392487  0  0.920304  0  0  0.359877  0  1.00067  0  0  0.372105  0  0.983431  0  0  0.299474  0.351321  0  1.010408  0
Pb  Pb22  1  0.99985768  0.68217054  0.00019581  1  0  1.465066  0  1.335303  0  0  1.297192  0  1.722229  0  0  1.34981  0  1.676121  0  0  0.705601  1.258788  0  1.754735  0
C  C23  1  0.70008163  0.66055678  0.34261551  1  0  -0.238622  0  3.774794  0  0  -0.195872  0  4.012321  0  0  -0.205567  0  4.036446  0  0  -0.03244  -0.189327  0  3.995987  0
C  C24  1  0.29988156  0.31713977  0.65750953  1  0  -0.239015  0  3.774035  0  0  -0.19573  0  4.010624  0  0  -0.205399  0  4.034767  0  0  -0.032622  -0.189253  0  3.99437  0
C  C25  1  0.53771932  0.77570447  0.40904686  1  0  -0.04774  0  3.754428  0  0  -0.069221  0  3.995081  0  0  -0.06904  0  4.016328  0  0  -0.082145  -0.069227  0  3.980582  0
C  C26  1  0.46248125  0.36566894  0.59127927  1  0  -0.048387  0  3.753517  0  0  -0.069488  0  3.993704  0  0  -0.06937  0  4.014993  0  0  -0.081765  -0.06944  0  3.979207  0
C  C27  1  0.59527034  0.83860104  0.53349627  1  0  -0.071423  0  3.757764  0  0  -0.080563  0  4.00207  0  0  -0.083957  0  4.024868  0  0  -0.090882  -0.078278  0  3.986536  0
C  C28  1  0.40520627  0.30398659  0.46681689  1  0  -0.07021  0  3.755802  0  0  -0.079258  0  4.000105  0  0  -0.082604  0  4.022934  0  0  -0.090825  -0.077029  0  3.984534  0
C  C29  1  0.81203216  0.78526028  0.59278211  1  0  -0.06572  0  3.7406  0  0  -0.078257  0  3.983827  0  0  -0.078861  0  4.003749  0  0  -0.088184  -0.077646  0  3.970184  0
C  C30  1  0.18843571  0.19137824  0.40731347  1  0  -0.066812  0  3.742114  0  0  -0.07936  0  3.985621  0  0  -0.079985  0  4.00556  0  0  -0.088719  -0.078732  0  3.971979  0
C  C31  1  0.97485756  0.67099234  0.52714421  1  0  -0.070927  0  3.751234  0  0  -0.081097  0  3.99679  0  0  -0.084334  0  4.019012  0  0  -0.090721  -0.078935  0  3.981624  0
C  C32  1  0.02554670  0.14276785  0.47271601  1  0  -0.070662  0  3.751958  0  0  -0.081305  0  3.997206  0  0  -0.084568  0  4.019476  0  0  -0.090034  -0.079097  0  3.982001  0
C  C33  1  0.92055264  0.61009876  0.40263019  1  0  -0.051638  0  3.769981  0  0  -0.072179  0  4.011535  0  0  -0.07228  0  4.033854  0  0  -0.082761  -0.071982  0  3.996303  0
C  C34  1  0.07948207  0.20657989  0.59727595  1  0  -0.051495  0  3.769003  0  0  -0.071755  0  4.01031  0  0  -0.071945  0  4.032651  0  0  -0.083118  -0.071494  0  3.995096  0
C  C35  1  0.44143341  0.36982449  0.14973763  1  0  -0.384897  0  3.67493  0  0  -0.407113  0  3.92485  0  0  -0.414617  0  3.93423  0  0  -0.167627  -0.40187  0  3.918457  0
C  C36  1  0.55849942  0.21904778  0.84988413  1  0  -0.384722  0  3.675498  0  0  -0.408328  0  3.927125  0  0  -0.415936  0  3.936624  0  0  -0.167852  -0.403068  0  3.920764  0
C  C37  1  0.62992247  0.24170202  0.17144240  1  0  -0.23263  0  3.693428  0  0  -0.273451  0  3.942117  0  0  -0.278638  0  3.951139  0  0  -0.158033  -0.269902  0  3.935924  0
C  C38  1  0.36983373  0.06948503  0.82839949  1  0  -0.233565  0  3.695545  0  0  -0.274398  0  3.942998  0  0  -0.279478  0  3.951995  0  0  -0.158477  -0.270854  0  3.936746  0
C  C39  1  0.49830626  0.07208648  0.14797691  1  0  0.711778  0  3.75509  0  0  0.666045  0  4.057685  0  0  0.698119  0  4.050693  0  0  0.233621  0.644194  0  4.061832  0
C  C40  1  0.50131518  0.92332016  0.85188952  1  0  0.712243  0  3.75348  0  0  0.667055  0  4.055228  0  0  0.699091  0  4.048225  0  0  0.233207  0.645209  0  4.059402  0
O  O41  1  0.85963437  0.54182348  0.12433126  1  0  -0.812898  0  1.925468  0  0  -0.72437  0  2.184445  0  0  -0.752555  0  2.169548  0  0  -0.349595  -0.704303  0  2.193956  0
O  O42  1  0.14038415  0.41692829  0.87592537  1  0  -0.813631  0  1.924373  0  0  -0.724728  0  2.182949  0  0  -0.752818  0  2.167912  0  0  -0.349682  -0.704703  0  2.192529  0
O  O43  1  0.42280839  0.68970164  0.14343567  1  0  -0.851032  0  2.062495  0  0  -0.76157  0  2.319974  0  0  -0.788742  0  2.302098  0  0  -0.351989  -0.74216  0  2.331072  0
O  O44  1  0.57699057  0.54564283  0.85698005  1  0  -0.851866  0  2.062604  0  0  -0.763102  0  2.320891  0  0  -0.790128  0  2.302628  0  0  -0.352354  -0.743749  0  2.332092  0
O  O45  1  0.27075700  0.02804389  0.09546214  1  0  -0.60013  0  1.926998  0  0  -0.550202  0  2.150315  0  0  -0.573689  0  2.143878  0  0  -0.286365  -0.533851  0  2.154338  0
O  O46  1  0.72897864  0.93182645  0.90427674  1  0  -0.600277  0  1.926691  0  0  -0.550595  0  2.149757  0  0  -0.574198  0  2.14348  0  0  -0.286325  -0.534175  0  2.153708  0
O  O47  1  0.65459622  0.97427690  0.19015720  1  0  -0.579725  0  2.077961  0  0  -0.528453  0  2.30366  0  0  -0.551977  0  2.288026  0  0  -0.333592  -0.512025  0  2.312545  0
O  O48  1  0.34490627  0.78331926  0.80995189  1  0  -0.579764  0  2.076617  0  0  -0.529009  0  2.30158  0  0  -0.552509  0  2.285945  0  0  -0.333312  -0.512597  0  2.310259  0
