# generated using pymatgen
data_AlH6C13BrNClO5
_symmetry_space_group_name_H-M   'P 1'
_cell_length_a   6.66678002
_cell_length_b   11.09852924
_cell_length_c   16.87307262
_cell_angle_alpha   84.70747279
_cell_angle_beta   84.19367761
_cell_angle_gamma   73.73248272
_symmetry_Int_Tables_number   1
_chemical_formula_structural   AlH6C13BrNClO5
_chemical_formula_sum   'Al2 H12 C26 Br2 N2 Cl2 O10'
_cell_volume   1189.65925994
_cell_formula_units_Z   2
loop_
 _symmetry_equiv_pos_site_id
 _symmetry_equiv_pos_as_xyz
  1  'x, y, z'
loop_
 _atom_site_type_symbol
 _atom_site_label
 _atom_site_symmetry_multiplicity
 _atom_site_fract_x
 _atom_site_fract_y
 _atom_site_fract_z
 _atom_site_occupancy
 _atom_site_pbe_bader_charge
 _atom_site_pbe_bader_spin_density
 _atom_site_pbe_cm5_charge
 _atom_site_pbe_ddec_charge
 _atom_site_pbe_ddec_spin_density
 _atom_site_pbe_ddec_sum_bond_order
 _atom_site_pbe_magmom
Al  Al0  1  0.48311154  0.50687418  0.49544492  1  2.504795  0  0.392797  1.647279  0  2.56556  0
Al  Al1  1  0.98403109  0.50309886  0.49886258  1  2.50221  0  0.397518  1.640917  0  2.563111  0
H  H2  1  0.16767534  0.65688989  0.45365455  1  0.628663  0  0.351555  0.429485  0  0.855569  0
H  H3  1  0.73738074  0.43460392  0.59292147  1  0.613446  0  0.336856  0.40893  0  0.900064  0
H  H4  1  0.91954157  0.42006099  0.73790990  1  0.088797  0  0.090288  0.088614  0  1.07182  0
H  H5  1  0.85942330  0.41165462  0.88647849  1  0.098894  0  0.108464  0.114201  0  1.01206  0
H  H6  1  0.39176258  0.55548580  0.89727261  1  0.11187  0  0.113303  0.130448  0  0.993679  0
H  H7  1  0.62906462  0.41003274  0.10163751  1  0.125844  0  0.112512  0.128862  0  0.995038  0
H  H8  1  0.15571486  0.55830034  0.11462061  1  0.11596  0  0.10801  0.112763  0  1.013281  0
H  H9  1  0.07817011  0.56285661  0.26300143  1  0.118822  0  0.109121  0.116286  0  1.000682  0
H  H10  1  0.89407537  0.77278129  0.59627874  1  0.124784  0  0.108202  0.132203  0  1.025637  0
H  H11  1  0.65675968  0.23945792  0.58802718  1  0.121402  0  0.112247  0.131307  0  1.036282  0
H  H12  1  0.16005886  0.12350401  0.44530058  1  0.11087  0  0.115079  0.125529  0  0.971859  0
H  H13  1  0.28005406  0.88896700  0.44837499  1  0.090701  0  0.109254  0.113635  0  0.98764  0
C  C14  1  0.61907875  0.73388970  0.50410782  1  1.571098  0  0.267534  0.650086  0  4.076687  0
C  C15  1  0.78005178  0.49739382  0.35468761  1  1.617016  0  0.270917  0.654655  0  4.084427  0
C  C16  1  0.34734096  0.27965029  0.49681916  1  1.552416  0  0.270341  0.643779  0  4.090948  0
C  C17  1  0.20027677  0.49882854  0.64354078  1  1.580526  0  0.261605  0.646689  0  4.098446  0
C  C18  1  0.18585670  0.49301807  0.73275792  1  0.100696  0  -0.016604  -0.101652  0  3.924287  0
C  C19  1  0.02227663  0.44934692  0.77365044  1  -0.075002  0  -0.086035  -0.067236  0  4.000091  0
C  C20  1  0.98783697  0.44469358  0.85590678  1  -0.01297  0  -0.085795  -0.14737  0  3.946469  0
C  C21  1  0.11998822  0.48592638  0.90049577  1  0.413213  0  0.093785  0.196818  0  4.031975  0
C  C22  1  0.28922011  0.52515060  0.86182417  1  -0.053223  0  -0.083129  -0.210009  0  3.92717  0
C  C23  1  0.32255152  0.52851016  0.77877357  1  0.026351  0  0.02135  0.138722  0  4.020326  0
C  C24  1  0.72629844  0.44398642  0.13755024  1  0.084536  0  -0.083803  -0.213134  0  3.927344  0
C  C25  1  0.89575607  0.48404078  0.09974874  1  0.279369  0  0.091049  0.190059  0  4.042572  0
C  C26  1  0.02412855  0.52790853  0.14468276  1  0.007314  0  -0.085107  -0.150842  0  3.960257  0
C  C27  1  0.98041352  0.53044177  0.22650712  1  -0.052022  0  -0.077218  -0.066012  0  3.984299  0
C  C28  1  0.81225259  0.48959522  0.26615934  1  0.010036  0  -0.011218  -0.097178  0  3.914785  0
C  C29  1  0.68667896  0.44436083  0.22035015  1  0.044513  0  0.024656  0.14383  0  4.024632  0
C  C30  1  0.55181012  0.87339000  0.51004327  1  -0.030992  0  -0.009317  -0.08461  0  3.929805  0
C  C31  1  0.66737190  0.93860920  0.54902922  1  0.069902  0  0.000712  0.071287  0  3.951047  0
C  C32  1  0.36970561  0.94032588  0.47548180  1  -0.048064  0  -0.079962  -0.085207  0  3.990651  0
C  C33  1  0.84049329  0.87489790  0.59345100  1  -0.01483  0  -0.097265  -0.178962  0  3.949217  0
C  C34  1  0.94144432  0.93993961  0.63420042  1  -0.105288  0  -0.023633  0.064865  0  3.995416  0
C  C35  1  0.41746138  0.13915804  0.50576289  1  0.03375  0  -0.003088  -0.07465  0  3.926947  0
C  C36  1  0.30229951  0.07224522  0.47344785  1  0.020893  0  -0.078772  -0.090381  0  3.98121  0
C  C37  1  0.59888664  0.07380956  0.54671550  1  -0.067874  0  0.003351  0.071812  0  3.939381  0
C  C38  1  0.70637843  0.13761416  0.58927922  1  0.063246  0  -0.091294  -0.167001  0  3.941629  0
C  C39  1  0.87278145  0.07294432  0.63235352  1  -0.065386  0  -0.022024  0.064074  0  3.984999  0
Br  Br40  1  0.17070120  0.84732391  0.69184627  1  -0.029369  0  0.031266  -0.062241  0  1.610503  0
Br  Br41  1  0.00278116  0.16525939  0.69000544  1  -0.040763  0  0.042085  -0.039972  0  1.51887  0
N  N42  1  0.09543761  0.49225842  0.98439108  1  -0.43127  0  -0.143219  -0.126965  0  3.24855  0
N  N43  1  0.92336642  0.47629022  0.01607627  1  -0.516331  0  -0.142595  -0.124247  0  3.259522  0
Cl  Cl44  1  0.53120611  0.58316686  0.73726072  1  -0.187881  0  0.033017  -0.019542  0  1.670777  0
Cl  Cl45  1  0.48893766  0.38111346  0.26293696  1  -0.179509  0  0.022216  -0.039895  0  1.547572  0
O  O46  1  0.47277896  0.68008048  0.50543455  1  -1.268059  0  -0.239773  -0.608657  0  2.365631  0
O  O47  1  0.94367631  0.48770860  0.39043475  1  -1.252683  0  -0.229574  -0.575742  0  2.336214  0
O  O48  1  0.15104372  0.33189035  0.50319698  1  -1.261128  0  -0.230386  -0.585211  0  2.356743  0
O  O49  1  0.37996014  0.48694961  0.60668772  1  -1.252392  0  -0.239211  -0.608237  0  2.419628  0
O  O50  1  0.48905937  0.33713394  0.48329613  1  -1.262117  0  -0.232183  -0.583548  0  2.373203  0
O  O51  1  0.02941188  0.51266208  0.61104440  1  -1.251619  0  -0.241415  -0.598143  0  2.341897  0
O  O52  1  0.81520801  0.67914606  0.49579165  1  -1.262576  0  -0.238491  -0.600989  0  2.344455  0
O  O53  1  0.59491620  0.51669804  0.38756472  1  -1.25648  0  -0.231549  -0.587622  0  2.380894  0
O  O54  1  0.21077299  0.56638659  0.46469828  1  -1.432687  0  -0.446912  -0.980762  0  2.183376  0
O  O55  1  0.74792858  0.45130198  0.53532455  1  -1.421421  0  -0.449518  -0.98112  0  2.203956  0
