# generated using pymatgen
data_CuH11C9IN6
_symmetry_space_group_name_H-M   'P 1'
_cell_length_a   6.10552320
_cell_length_b   7.73437260
_cell_length_c   14.05662337
_cell_angle_alpha   89.99993924
_cell_angle_beta   89.99997469
_cell_angle_gamma   90.00021527
_symmetry_Int_Tables_number   1
_chemical_formula_structural   CuH11C9IN6
_chemical_formula_sum   'Cu2 H22 C18 I2 N12'
_cell_volume   663.78736966
_cell_formula_units_Z   2
loop_
 _symmetry_equiv_pos_site_id
 _symmetry_equiv_pos_as_xyz
  1  'x, y, z'
loop_
 _atom_site_type_symbol
 _atom_site_label
 _atom_site_symmetry_multiplicity
 _atom_site_fract_x
 _atom_site_fract_y
 _atom_site_fract_z
 _atom_site_occupancy
 _atom_site_hle17_ddec_charge
 _atom_site_hle17_ddec_spin_density
 _atom_site_hle17_ddec_sum_bond_order
 _atom_site_hle17_magmom
 _atom_site_hse06_10hf_ddec_charge
 _atom_site_hse06_10hf_ddec_spin_density
 _atom_site_hse06_10hf_ddec_sum_bond_order
 _atom_site_hse06_10hf_magmom
 _atom_site_hse06_ddec_charge
 _atom_site_hse06_ddec_spin_density
 _atom_site_hse06_ddec_sum_bond_order
 _atom_site_hse06_magmom
 _atom_site_pbe_cm5_charge
 _atom_site_pbe_ddec_charge
 _atom_site_pbe_ddec_spin_density
 _atom_site_pbe_ddec_sum_bond_order
 _atom_site_pbe_magmom
Cu  Cu0  1  0.19719810  0.61979410  0.49999968  1  0.717076  -0.727148  2.012307  -0.52  0.673134  -0.803883  2.407097  -0.621  0.751356  -0.87298  2.351186  -0.695  0.716293  0.624546  -0.754306  2.444808  -0.572
Cu  Cu1  1  0.80280126  0.11979113  0.00000059  1  0.717045  0.727147  2.012272  0.52  0.673015  0.803873  2.407107  0.621  0.751274  0.872973  2.351167  0.695  0.716268  0.624434  0.754313  2.444785  0.572
H  H2  1  0.01949520  0.74884081  0.85060378  1  0.277128  -0.000394  0.940612  -0.001  0.259415  -0.00042  1.007332  -0.001  0.26736  -0.000327  1.000984  -0.001  0.280697  0.253637  -0.000494  1.012022  -0.001
H  H3  1  0.98051085  0.24885100  0.64939334  1  0.277149  0.000395  0.940605  0.001  0.259436  0.00042  1.007343  0.001  0.267384  0.000327  1.000987  0.001  0.280687  0.253664  0.000494  1.012037  0.001
H  H4  1  0.98051263  0.24885000  0.35060679  1  0.277142  0.000395  0.940618  0.001  0.259426  0.000419  1.007358  0.001  0.267374  0.000327  1.001002  0.001  0.280679  0.253653  0.000494  1.012049  0.001
H  H5  1  0.01948898  0.74884149  0.14939483  1  0.277151  -0.000394  0.94063  -0.001  0.25945  -0.00042  1.007349  -0.001  0.267393  -0.000327  1.000999  -0.001  0.280693  0.253672  -0.000494  1.012041  -0.001
H  H6  1  0.50592316  0.51908163  0.67740573  1  0.105373  0.0  0.961743  0.0  0.111462  -0.000232  1.026391  0.0  0.113531  -0.000154  1.025768  0.0  0.112566  0.109869  -0.000301  1.02693  -0.001
H  H7  1  0.49407361  0.01909004  0.82258725  1  0.105434  2e-06  0.961638  0.0  0.111508  0.000232  1.026306  0.0  0.113578  0.000154  1.025682  0.0  0.11258  0.109912  0.000302  1.026844  0.001
H  H8  1  0.49407392  0.01908938  0.17741382  1  0.105441  -0.0  0.96161  0.0  0.111503  0.000233  1.026295  0.0  0.113574  0.000154  1.025668  0.0  0.112585  0.109908  0.000301  1.026832  0.001
H  H9  1  0.50591841  0.51908456  0.32259292  1  0.105386  4e-06  0.961648  0.0  0.111449  -0.000233  1.026331  0.0  0.113519  -0.000154  1.025708  0.0  0.112569  0.109858  -0.000302  1.02687  -0.001
H  H10  1  0.39612269  0.60474046  0.86359481  1  0.105911  -0.000575  0.984917  -0.001  0.113005  -0.0005  1.050279  -0.001  0.115113  -0.000353  1.049838  0.0  0.110595  0.1113  -0.000622  1.050883  -0.001
H  H11  1  0.60388431  0.10474827  0.63639883  1  0.105876  0.000577  0.98478  0.001  0.112956  0.0005  1.050185  0.001  0.115063  0.000352  1.049749  0.0  0.11054  0.111256  0.000622  1.050794  0.001
H  H12  1  0.60388444  0.10474854  0.36360145  1  0.105882  0.000576  0.984775  0.001  0.112949  0.0005  1.050193  0.001  0.115056  0.000353  1.049756  0.0  0.110542  0.111252  0.000622  1.050798  0.001
H  H13  1  0.39611485  0.60474117  0.13640452  1  0.105899  -0.000578  0.984853  -0.001  0.112985  -0.0005  1.050233  -0.001  0.115094  -0.000353  1.049792  0.0  0.110572  0.111284  -0.000622  1.050838  -0.001
H  H14  1  0.89785415  0.77971227  0.67692043  1  0.09098  5.7e-05  0.959879  0.0  0.097721  -2.6e-05  1.026777  0.0  0.099305  -4e-06  1.025508  0.0  0.130608  0.096433  -5.3e-05  1.027725  0.0
H  H15  1  0.10214549  0.27972211  0.82307880  1  0.090951  -5.8e-05  0.959907  0.0  0.097694  2.6e-05  1.026805  0.0  0.099278  5e-06  1.025537  0.0  0.130614  0.096408  5.3e-05  1.027751  0.0
H  H16  1  0.10214580  0.27972015  0.17692149  1  0.090952  -6.8e-05  0.959924  0.0  0.097697  2.6e-05  1.026819  0.0  0.099281  5e-06  1.025551  0.0  0.130601  0.096413  5.3e-05  1.027765  0.0
H  H17  1  0.89784777  0.77971391  0.32307941  1  0.090929  6.1e-05  0.959891  0.0  0.09771  -2.6e-05  1.026755  0.0  0.099296  -5e-06  1.025481  0.0  0.130574  0.096421  -5.3e-05  1.0277  0.0
H  H18  1  0.46603905  0.94182321  0.49999956  1  0.084017  -0.00054  1.019874  -0.001  0.089886  -0.000544  1.091964  -0.001  0.092739  -0.00035  1.088359  -0.001  0.086742  0.08747  -0.000573  1.09502  -0.001
H  H19  1  0.53396792  0.44181588  0.99999958  1  0.084068  0.000541  1.019833  0.001  0.089928  0.000543  1.091941  0.001  0.092782  0.000351  1.088332  0.001  0.086772  0.087512  0.000573  1.094994  0.001
H  H20  1  0.70096610  0.42903988  0.49999897  1  0.070246  0.000172  0.969241  0.0  0.07157  -0.000148  1.047233  -0.001  0.073674  -9.6e-05  1.043882  -0.001  0.106957  0.069806  -0.000132  1.049918  -0.001
H  H21  1  0.29902818  0.92903249  0.00000041  1  0.070241  -0.000171  0.969251  0.0  0.071584  0.000148  1.047244  0.001  0.073692  9.6e-05  1.04389  0.001  0.106947  0.069819  0.000132  1.049925  0.001
H  H22  1  0.92300727  0.94640086  0.50000022  1  0.086318  -0.000518  1.007908  -0.001  0.088027  -0.000582  1.085498  -0.001  0.090903  -0.000383  1.082612  -0.001  0.0879  0.085677  -0.000626  1.087914  -0.001
H  H23  1  0.07699808  0.44639217  0.99999962  1  0.086178  0.000515  1.007982  0.001  0.087876  0.000581  1.085622  0.001  0.090752  0.000383  1.082734  0.001  0.087829  0.085527  0.000625  1.088037  0.001
C  C24  1  0.36377660  0.58631632  0.70485826  1  -0.012527  0.000232  3.746767  0.0  -0.0406  -0.00084  4.009992  -0.001  -0.038075  2.1e-05  4.032668  0.0  -0.010992  -0.042114  -0.001473  3.995037  -0.001
C  C25  1  0.63622213  0.08632521  0.79513681  1  -0.012667  -0.000231  3.746716  0.0  -0.040749  0.000841  4.009962  0.001  -0.038226  -2e-05  4.032642  0.0  -0.011059  -0.042253  0.001473  3.994999  0.001
C  C26  1  0.63622404  0.08632449  0.20486419  1  -0.012617  -0.000205  3.746619  0.0  -0.040699  0.000841  4.009862  0.001  -0.038177  -1.9e-05  4.032543  0.0  -0.011028  -0.042207  0.001473  3.994898  0.001
C  C27  1  0.36377024  0.58632060  0.29514109  1  -0.012527  0.000182  3.746809  0.0  -0.040595  -0.00084  4.010037  -0.001  -0.03807  2e-05  4.032714  0.0  -0.010965  -0.042112  -0.001473  3.995081  -0.001
C  C28  1  0.31091141  0.62720893  0.79716705  1  -0.021608  -0.004112  3.709936  -0.004  -0.053597  -0.002316  3.962704  -0.002  -0.052792  -0.002023  3.982582  -0.002  -0.00411  -0.054151  -0.002539  3.94952  -0.003
C  C29  1  0.68909243  0.12721428  0.70283013  1  -0.021391  0.004104  3.709656  0.004  -0.053347  0.002317  3.962394  0.002  -0.05254  0.002023  3.982266  0.002  -0.003967  -0.053911  0.002539  3.94923  0.003
C  C30  1  0.68909426  0.12721467  0.29717012  1  -0.021497  0.004079  3.709764  0.004  -0.053442  0.002317  3.9625  0.002  -0.052637  0.002022  3.982374  0.002  -0.004031  -0.05401  0.002539  3.949333  0.003
C  C31  1  0.31091005  0.62720951  0.20283370  1  -0.021562  -0.004056  3.709887  -0.004  -0.053515  -0.002317  3.962631  -0.002  -0.052711  -0.002022  3.982507  -0.002  -0.004088  -0.054072  -0.002539  3.949451  -0.003
C  C32  1  0.04863767  0.71969190  0.70066023  1  0.2136  0.005202  3.64931  0.005  0.161426  0.000826  3.913949  0.001  0.177742  0.001826  3.92683  0.002  0.137198  0.150976  0.000156  3.905164  0.0
C  C33  1  0.95136005  0.21969913  0.79933903  1  0.213626  -0.0052  3.649494  -0.005  0.161447  -0.000826  3.914132  -0.001  0.177762  -0.001827  3.927019  -0.002  0.13718  0.150998  -0.000157  3.905347  0.0
C  C34  1  0.95136034  0.21969842  0.20066183  1  0.213563  -0.005129  3.649505  -0.005  0.161371  -0.000828  3.914143  -0.001  0.177685  -0.001825  3.927029  -0.002  0.137205  0.15092  -0.000157  3.905356  0.0
C  C35  1  0.04863295  0.71969229  0.29933981  1  0.21361  0.005178  3.649318  0.005  0.161408  0.000828  3.913954  0.001  0.177721  0.001824  3.92684  0.002  0.137221  0.150962  0.000157  3.905162  0.0
C  C36  1  0.58313114  0.83595183  0.49999958  1  -0.034988  -0.003134  3.777025  -0.004  -0.061452  -0.002303  4.035421  -0.002  -0.058218  -0.000997  4.055564  -0.001  -0.029677  -0.063378  -0.003266  4.021887  -0.004
C  C37  1  0.41686878  0.33594674  0.99999962  1  -0.035039  0.003126  3.777058  0.004  -0.061516  0.002302  4.035454  0.002  -0.058283  0.000997  4.055598  0.001  -0.029687  -0.063447  0.003266  4.021922  0.004
C  C38  1  0.69966925  0.56935895  0.49999964  1  0.170516  0.005837  3.740354  0.005  0.130494  -0.00039  4.016332  -0.001  0.146439  0.001602  4.031944  0.002  0.104599  0.119851  -0.001554  4.00573  -0.002
C  C39  1  0.30033431  0.06935481  0.99999971  1  0.170486  -0.005833  3.74034  -0.005  0.13045  0.000393  4.016291  0.001  0.146393  -0.001601  4.031916  -0.002  0.104608  0.119805  0.001555  4.00568  0.002
C  C40  1  0.80908885  0.83826522  0.49999955  1  -0.054432  -0.004453  3.791982  -0.005  -0.074985  -0.002993  4.052968  -0.003  -0.073194  -0.001656  4.07388  -0.002  -0.033378  -0.076052  -0.003975  4.038933  -0.004
C  C41  1  0.19091108  0.33826075  0.99999964  1  -0.054134  0.004466  3.791742  0.005  -0.074645  0.002994  4.052672  0.003  -0.072853  0.001656  4.073589  0.002  -0.033224  -0.075718  0.003975  4.038639  0.004
I  I42  1  0.21230484  0.24464152  0.49999979  1  -0.585407  -0.004239  0.923687  -0.005  -0.56031  0.002822  1.209597  0.001  -0.574316  0.002937  1.180789  0.001  -0.259513  -0.548811  0.002687  1.229898  0.001
I  I43  1  0.78769464  0.74463979  0.99999875  1  -0.585382  0.004245  0.923659  0.005  -0.560272  -0.002817  1.209563  -0.001  -0.574286  -0.002938  1.180754  -0.001  -0.259535  -0.548787  -0.002686  1.229859  -0.001
N  N44  1  0.19907508  0.64467252  0.64540657  1  -0.348927  -0.081082  3.317638  -0.102  -0.304978  -0.060757  3.622678  -0.081  -0.33644  -0.050734  3.645724  -0.071  -0.367151  -0.28584  -0.06669  3.608412  -0.086
N  N45  1  0.80092065  0.14468178  0.85458918  1  -0.348918  0.081084  3.317761  0.102  -0.304916  0.060759  3.622748  0.081  -0.336387  0.050736  3.645804  0.071  -0.367067  -0.28578  0.066688  3.608467  0.086
N  N46  1  0.80092263  0.14468117  0.14541104  1  -0.348875  0.081046  3.317635  0.102  -0.304846  0.060758  3.6226  0.081  -0.336315  0.050735  3.645656  0.071  -0.367077  -0.28571  0.066689  3.608316  0.086
N  N47  1  0.19907194  0.64467409  0.35459206  1  -0.348938  -0.08107  3.317735  -0.102  -0.304961  -0.060758  3.622743  -0.081  -0.336423  -0.050732  3.645793  -0.071  -0.367144  -0.285821  -0.066691  3.60847  -0.086
N  N48  1  0.11252894  0.71197699  0.79272003  1  -0.272833  -0.001739  3.493162  -0.002  -0.204479  -0.001485  3.714908  -0.002  -0.220792  -0.001031  3.729708  -0.001  -0.381146  -0.193534  -0.001836  3.704791  -0.002
N  N49  1  0.88747039  0.21198421  0.70727781  1  -0.272956  0.001734  3.493172  0.002  -0.204635  0.001487  3.714955  0.002  -0.220951  0.001029  3.729755  0.001  -0.381227  -0.193695  0.001837  3.704855  0.002
N  N50  1  0.88747222  0.21198332  0.29272306  1  -0.27288  0.001721  3.493269  0.002  -0.204552  0.001487  3.715039  0.002  -0.220867  0.001029  3.72984  0.001  -0.3812  -0.193612  0.001836  3.704934  0.002
N  N51  1  0.11252267  0.71197756  0.20727929  1  -0.272853  -0.00174  3.493069  -0.002  -0.204553  -0.001487  3.71487  -0.002  -0.220862  -0.00103  3.729672  -0.001  -0.381157  -0.19361  -0.001836  3.704755  -0.002
N  N52  1  0.51613238  0.66625471  0.49999892  1  -0.354769  -0.084772  3.382148  -0.107  -0.30617  -0.057586  3.683707  -0.076  -0.337886  -0.047806  3.706742  -0.066  -0.395019  -0.284942  -0.064984  3.667622  -0.083
N  N53  1  0.48386509  0.16624853  0.99999966  1  -0.354843  0.084765  3.382296  0.107  -0.306213  0.057585  3.683831  0.076  -0.337934  0.047806  3.706872  0.066  -0.395062  -0.28499  0.064983  3.667739  0.083
N  N54  1  0.88060402  0.66918244  0.49999960  1  -0.372778  -0.087017  3.40948  -0.11  -0.328937  -0.059704  3.721413  -0.079  -0.361395  -0.049544  3.745138  -0.069  -0.401408  -0.307301  -0.067202  3.704934  -0.086
N  N55  1  0.11939510  0.16917389  0.99999970  1  -0.372823  0.087015  3.409398  0.11  -0.329014  0.059703  3.721354  0.079  -0.361487  0.049542  3.745103  0.069  -0.40151  -0.307383  0.0672  3.704866  0.086
