# generated using pymatgen
data_ZnH6C6(NO3)2
_symmetry_space_group_name_H-M   'P 1'
_cell_length_a   7.34588067
_cell_length_b   8.06922326
_cell_length_c   11.28675057
_cell_angle_alpha   58.09611532
_cell_angle_beta   53.81046199
_cell_angle_gamma   59.91094860
_symmetry_Int_Tables_number   1
_chemical_formula_structural   ZnH6C6(NO3)2
_chemical_formula_sum   'Zn2 H12 C12 N4 O12'
_cell_volume   440.54302445
_cell_formula_units_Z   2
loop_
 _symmetry_equiv_pos_site_id
 _symmetry_equiv_pos_as_xyz
  1  'x, y, z'
loop_
 _atom_site_type_symbol
 _atom_site_label
 _atom_site_symmetry_multiplicity
 _atom_site_fract_x
 _atom_site_fract_y
 _atom_site_fract_z
 _atom_site_occupancy
 _atom_site_hle17_bader_spin_density
 _atom_site_hle17_ddec_charge
 _atom_site_hle17_ddec_spin_density
 _atom_site_hle17_ddec_sum_bond_order
 _atom_site_hle17_magmom
 _atom_site_hse06_10hf_bader_spin_density
 _atom_site_hse06_10hf_ddec_charge
 _atom_site_hse06_10hf_ddec_spin_density
 _atom_site_hse06_10hf_ddec_sum_bond_order
 _atom_site_hse06_10hf_magmom
 _atom_site_hse06_bader_spin_density
 _atom_site_hse06_ddec_charge
 _atom_site_hse06_ddec_spin_density
 _atom_site_hse06_ddec_sum_bond_order
 _atom_site_hse06_magmom
 _atom_site_pbe_bader_spin_density
 _atom_site_pbe_cm5_charge
 _atom_site_pbe_ddec_charge
 _atom_site_pbe_ddec_spin_density
 _atom_site_pbe_ddec_sum_bond_order
 _atom_site_pbe_magmom
Zn  Zn0  1  0.88957871  0.78067281  0.74372674  1  0  1.132547  0  1.74086  0  0  0.94919  0  2.211342  0  0  0.995771  0  2.153982  0  0  0.690301  0.9165  0  2.250812  0
Zn  Zn1  1  0.11041351  0.21933917  0.25627986  1  0  1.132546  0  1.740775  0  0  0.949174  0  2.211266  0  0  0.995745  0  2.153906  0  0  0.690319  0.91648  0  2.250765  0
H  H2  1  0.92306195  0.36846728  0.74649736  1  0  0.1209  0  0.911993  0  0  0.130241  0  0.966145  0  0  0.134467  0  0.96264  0  0  0.135353  0.127115  0  0.96888  0
H  H3  1  0.07692440  0.63153929  0.25351369  1  0  0.120872  0  0.91179  0  0  0.1303  0  0.965857  0  0  0.134527  0  0.962352  0  0  0.135349  0.127177  0  0.968599  0
H  H4  1  0.77965895  0.05661840  0.96860722  1  0  0.109553  0  0.956286  0  0  0.113111  0  1.018952  0  0  0.117413  0  1.016163  0  0  0.119525  0.109896  0  1.021221  0
H  H5  1  0.22035824  0.94336864  0.03137717  1  0  0.10955  0  0.956537  0  0  0.113087  0  1.019211  0  0  0.11739  0  1.0164  0  0  0.119472  0.109882  0  1.021485  0
H  H6  1  0.70453330  0.11117339  0.56485831  1  0  0.433273  0  0.861159  0  0  0.400084  0  0.930379  0  0  0.411997  0  0.913115  0  0  0.301971  0.391535  0  0.942781  0
H  H7  1  0.29546504  0.88883205  0.43514538  1  0  0.433176  0  0.861252  0  0  0.400059  0  0.930385  0  0  0.411972  0  0.913116  0  0  0.301985  0.39152  0  0.942766  0
H  H8  1  0.57785505  0.16396038  0.72215471  1  0  0.446883  0  0.849194  0  0  0.41237  0  0.915953  0  0  0.424663  0  0.898254  0  0  0.297824  0.403687  0  0.928434  0
H  H9  1  0.42213744  0.83603947  0.27784532  1  0  0.446973  0  0.849075  0  0  0.412465  0  0.915826  0  0  0.424758  0  0.898128  0  0  0.297858  0.403784  0  0.928308  0
H  H10  1  0.81432420  0.72809586  0.56361656  1  0  0.434233  0  0.87144  0  0  0.399215  0  0.941181  0  0  0.41088  0  0.92448  0  0  0.290855  0.39101  0  0.952877  0
H  H11  1  0.18567065  0.27191576  0.43638311  1  0  0.434189  0  0.871508  0  0  0.399168  0  0.941256  0  0  0.41083  0  0.924559  0  0  0.290851  0.390969  0  0.952938  0
H  H12  1  0.06541689  0.77934917  0.46858424  1  0  0.425515  0  0.868973  0  0  0.398351  0  0.925408  0  0  0.409346  0  0.909447  0  0  0.296593  0.390525  0  0.936745  0
H  H13  1  0.93457857  0.22066841  0.53141675  1  0  0.425473  0  0.869048  0  0  0.398351  0  0.925396  0  0  0.409349  0  0.909431  0  0  0.296617  0.390526  0  0.936732  0
C  C14  1  0.84651483  0.34765760  0.86902354  1  0  0.111424  0  3.609246  0  0  0.075949  0  3.866485  0  0  0.080543  0  3.88066  0  0  0.065749  0.072503  0  3.857314  0
C  C15  1  0.15349541  0.65233912  0.13096739  1  0  0.111433  0  3.608632  0  0  0.075932  0  3.865883  0  0  0.080516  0  3.880069  0  0  0.065821  0.072471  0  3.856728  0
C  C16  1  0.77539952  0.17545697  0.99074018  1  0  0.083098  0  3.653054  0  0  0.058095  0  3.925058  0  0  0.060269  0  3.938357  0  0  0.058019  0.056562  0  3.916513  0
C  C17  1  0.22459923  0.82456153  0.00924688  1  0  0.083085  0  3.652956  0  0  0.058079  0  3.924979  0  0  0.060269  0  3.938275  0  0  0.058031  0.056532  0  3.916448  0
C  C18  1  0.68435341  0.29516638  0.17001992  1  0  0.062564  0  3.69613  0  0  0.062154  0  3.952645  0  0  0.062811  0  3.96716  0  0  0.133016  0.061307  0  3.943389  0
C  C19  1  0.31563954  0.70481458  0.83000768  1  0  0.062678  0  3.695631  0  0  0.06203  0  3.952327  0  0  0.062678  0  3.966855  0  0  0.132977  0.061184  0  3.943053  0
C  C20  1  0.73393347  0.47753661  0.05054296  1  0  0.015116  0  3.746806  0  0  0.010826  0  3.992382  0  0  0.008714  0  4.012997  0  0  0.109137  0.011818  0  3.978943  0
C  C21  1  0.26607435  0.52242460  0.94945693  1  0  0.0149  0  3.747079  0  0  0.010836  0  3.992515  0  0  0.008722  0  4.013123  0  0  0.109073  0.011828  0  3.979071  0
C  C22  1  0.69194333  0.66201599  0.07635410  1  0  0.609903  0  3.973009  0  0  0.553198  0  4.283101  0  0  0.585234  0  4.279271  0  0  0.205168  0.531619  0  4.28483  0
C  C23  1  0.30805164  0.33799423  0.92365058  1  0  0.610003  0  3.973726  0  0  0.553242  0  4.283762  0  0  0.585276  0  4.279924  0  0  0.20501  0.531675  0  4.285481  0
C  C24  1  0.61527872  0.24689900  0.33867863  1  0  0.68071  0  3.880377  0  0  0.617312  0  4.19144  0  0  0.653226  0  4.179824  0  0  0.232625  0.592752  0  4.198735  0
C  C25  1  0.38474005  0.75309559  0.66131531  1  0  0.680397  0  3.880545  0  0  0.617146  0  4.1915  0  0  0.653067  0  4.179882  0  0  0.23256  0.59259  0  4.198787  0
N  N26  1  0.81754510  0.49853382  0.90199461  1  0  -0.309595  0  3.325645  0  0  -0.240133  0  3.599618  0  0  -0.254261  0  3.61583  0  0  -0.306399  -0.230407  0  3.588916  0
N  N27  1  0.18245397  0.50146970  0.09799233  1  0  -0.30946  0  3.32556  0  0  -0.240134  0  3.599599  0  0  -0.254259  0  3.615811  0  0  -0.306385  -0.230398  0  3.588901  0
N  N28  1  0.69779173  0.14848736  0.13937961  1  0  -0.25218  0  3.010711  0  0  -0.233214  0  3.285819  0  0  -0.237655  0  3.295955  0  0  -0.288623  -0.230301  0  3.279446  0
N  N29  1  0.30222137  0.85152848  0.86060727  1  0  -0.252021  0  3.010518  0  0  -0.232995  0  3.285641  0  0  -0.237446  0  3.295792  0  0  -0.288488  -0.230074  0  3.279249  0
O  O30  1  0.78452625  0.18789702  0.37110452  1  0  -0.660709  0  2.107526  0  0  -0.575964  0  2.370556  0  0  -0.607968  0  2.354622  0  0  -0.310796  -0.553401  0  2.380957  0
O  O31  1  0.21547438  0.81210344  0.62888492  1  0  -0.660586  0  2.107356  0  0  -0.575901  0  2.370312  0  0  -0.607912  0  2.354387  0  0  -0.310728  -0.553343  0  2.380695  0
O  O32  1  0.40890309  0.25038459  0.43887248  1  0  -0.558406  0  1.962089  0  0  -0.509922  0  2.17883  0  0  -0.534738  0  2.167656  0  0  -0.288413  -0.492201  0  2.185906  0
O  O33  1  0.59111052  0.74958955  0.56112480  1  0  -0.558341  0  1.96264  0  0  -0.509881  0  2.179335  0  0  -0.53469  0  2.168151  0  0  -0.288416  -0.49217  0  2.186423  0
O  O34  1  0.59828000  0.65132257  0.21494473  1  0  -0.56061  0  1.97116  0  0  -0.5085  0  2.184663  0  0  -0.532407  0  2.176651  0  0  -0.29108  -0.491913  0  2.189765  0
O  O35  1  0.40167992  0.34865974  0.78509038  1  0  -0.56049  0  1.97153  0  0  -0.508448  0  2.185133  0  0  -0.532349  0  2.177114  0  0  -0.290999  -0.491863  0  2.190222  0
O  O36  1  0.75375001  0.81364460  0.95441965  1  0  -0.62441  0  2.048734  0  0  -0.558694  0  2.311335  0  0  -0.58668  0  2.300252  0  0  -0.310836  -0.539011  0  2.318279  0
O  O37  1  0.24625435  0.18635120  0.04557592  1  0  -0.624588  0  2.048713  0  0  -0.558784  0  2.311214  0  0  -0.58677  0  2.300134  0  0  -0.310813  -0.539112  0  2.318174  0
O  O38  1  0.72195643  0.07654428  0.65767701  1  0  -0.856027  0  1.976804  0  0  -0.777322  0  2.198676  0  0  -0.801962  0  2.158323  0  0  -0.560594  -0.759835  0  2.226777  0
O  O39  1  0.27803873  0.92346582  0.34232312  1  0  -0.856013  0  1.976637  0  0  -0.777366  0  2.198572  0  0  -0.802  0  2.158227  0  0  -0.560679  -0.759873  0  2.226671  0
O  O40  1  0.95712878  0.70530866  0.57004716  1  0  -0.843826  0  1.911438  0  0  -0.776397  0  2.118991  0  0  -0.799714  0  2.082345  0  0  -0.579404  -0.75982  0  2.144344  0
O  O41  1  0.04286813  0.29470725  0.42995131  1  0  -0.843733  0  1.911578  0  0  -0.776308  0  2.11904  0  0  -0.799624  0  2.082388  0  0  -0.579408  -0.759726  0  2.144395  0
