# generated using pymatgen
data_SmH6(CO3)3
_symmetry_space_group_name_H-M   'P 1'
_cell_length_a   8.33789755
_cell_length_b   9.61372400
_cell_length_c   9.56141390
_cell_angle_alpha   89.99996401
_cell_angle_beta   89.99946750
_cell_angle_gamma   91.37908127
_symmetry_Int_Tables_number   1
_chemical_formula_structural   SmH6(CO3)3
_chemical_formula_sum   'Sm4 H24 C12 O36'
_cell_volume   766.20416497
_cell_formula_units_Z   4
loop_
 _symmetry_equiv_pos_site_id
 _symmetry_equiv_pos_as_xyz
  1  'x, y, z'
loop_
 _atom_site_type_symbol
 _atom_site_label
 _atom_site_symmetry_multiplicity
 _atom_site_fract_x
 _atom_site_fract_y
 _atom_site_fract_z
 _atom_site_occupancy
 _atom_site_hle17_bader_spin_density
 _atom_site_hle17_ddec_charge
 _atom_site_hle17_ddec_spin_density
 _atom_site_hle17_ddec_sum_bond_order
 _atom_site_hle17_magmom
 _atom_site_hse06_10hf_bader_spin_density
 _atom_site_hse06_10hf_ddec_charge
 _atom_site_hse06_10hf_ddec_spin_density
 _atom_site_hse06_10hf_ddec_sum_bond_order
 _atom_site_hse06_10hf_magmom
 _atom_site_hse06_bader_spin_density
 _atom_site_hse06_ddec_charge
 _atom_site_hse06_ddec_spin_density
 _atom_site_hse06_ddec_sum_bond_order
 _atom_site_hse06_magmom
 _atom_site_pbe_bader_spin_density
 _atom_site_pbe_cm5_charge
 _atom_site_pbe_ddec_charge
 _atom_site_pbe_ddec_spin_density
 _atom_site_pbe_ddec_sum_bond_order
 _atom_site_pbe_magmom
Sm  Sm0  1  0.75026438  0.75272712  0.49385365  1  0  2.27383  0  1.569793  0  0  2.177188  0  1.903808  0  0  2.217254  0  1.866869  0  0  1.47183  2.069551  0  2.076724  0
Sm  Sm1  1  0.24973849  0.74727148  0.99385286  1  0  2.273806  0  1.569847  0  0  2.17715  0  1.903865  0  0  2.217221  0  1.866929  0  0  1.471839  2.069483  0  2.076836  0
Sm  Sm2  1  0.24973825  0.24726827  0.50614792  1  0  2.273835  0  1.569767  0  0  2.177187  0  1.90377  0  0  2.217255  0  1.866839  0  0  1.471878  2.069489  0  2.076793  0
Sm  Sm3  1  0.75026423  0.25272910  0.00614976  1  0  2.273882  0  1.569665  0  0  2.177251  0  1.903668  0  0  2.217319  0  1.86673  0  0  1.471858  2.069641  0  2.076547  0
H  H4  1  0.64811319  0.77157670  0.18617467  1  0  0.458422  0  0.822898  0  0  0.42943  0  0.881823  0  0  0.440264  0  0.865738  0  0  0.311821  0.421215  0  0.893871  0
H  H5  1  0.35188463  0.72842525  0.68617411  1  0  0.458486  0  0.822797  0  0  0.429499  0  0.881717  0  0  0.440331  0  0.865634  0  0  0.311867  0.421286  0  0.89376  0
H  H6  1  0.35188835  0.22842491  0.81381958  1  0  0.458488  0  0.822804  0  0  0.429494  0  0.881741  0  0  0.440329  0  0.865653  0  0  0.31188  0.421277  0  0.893792  0
H  H7  1  0.64810969  0.27157527  0.31382642  1  0  0.458425  0  0.822889  0  0  0.429442  0  0.881797  0  0  0.440275  0  0.865715  0  0  0.311846  0.421229  0  0.893841  0
H  H8  1  0.74922452  0.91487596  0.21590728  1  0  0.443448  0  0.852305  0  0  0.414858  0  0.911453  0  0  0.42489  0  0.896919  0  0  0.30724  0.407273  0  0.922307  0
H  H9  1  0.25077060  0.58512699  0.71590237  1  0  0.443445  0  0.852304  0  0  0.414918  0  0.911362  0  0  0.424932  0  0.896851  0  0  0.307265  0.407332  0  0.922219  0
H  H10  1  0.25077231  0.08513082  0.78409325  1  0  0.443405  0  0.852383  0  0  0.414876  0  0.91146  0  0  0.424878  0  0.896962  0  0  0.307225  0.407289  0  0.922317  0
H  H11  1  0.74922247  0.41487040  0.28409293  1  0  0.44343  0  0.852357  0  0  0.414844  0  0.911524  0  0  0.424867  0  0.897  0  0  0.307192  0.407257  0  0.922382  0
H  H12  1  0.11230604  0.88584300  0.45565683  1  0  0.454188  0  0.826808  0  0  0.425008  0  0.885916  0  0  0.436313  0  0.86917  0  0  0.312323  0.41656  0  0.898138  0
H  H13  1  0.88769129  0.61415871  0.95565931  1  0  0.45415  0  0.826883  0  0  0.424965  0  0.886001  0  0  0.436271  0  0.869254  0  0  0.312299  0.416516  0  0.898225  0
H  H14  1  0.88768950  0.11415857  0.54434161  1  0  0.45423  0  0.826778  0  0  0.425056  0  0.885874  0  0  0.43636  0  0.86913  0  0  0.312361  0.416608  0  0.898098  0
H  H15  1  0.11231146  0.38584396  0.04434017  1  0  0.45422  0  0.826789  0  0  0.425048  0  0.885882  0  0  0.436355  0  0.869134  0  0  0.312351  0.4166  0  0.898106  0
H  H16  1  0.02218710  0.86873354  0.30816959  1  0  0.436561  0  0.861807  0  0  0.406991  0  0.923233  0  0  0.418284  0  0.90659  0  0  0.308552  0.398688  0  0.935208  0
H  H17  1  0.97781299  0.63126729  0.80817343  1  0  0.436581  0  0.861743  0  0  0.407007  0  0.923178  0  0  0.418298  0  0.906538  0  0  0.308564  0.398705  0  0.935153  0
H  H18  1  0.97780960  0.13126596  0.69182884  1  0  0.436546  0  0.861793  0  0  0.406982  0  0.923209  0  0  0.418273  0  0.906569  0  0  0.308556  0.398679  0  0.935183  0
H  H19  1  0.02218969  0.36873122  0.19182709  1  0  0.436568  0  0.861769  0  0  0.407009  0  0.923175  0  0  0.418298  0  0.906538  0  0  0.308567  0.398707  0  0.935149  0
H  H20  1  0.73789383  0.92934751  0.76622865  1  0  0.449077  0  0.842744  0  0  0.418866  0  0.904528  0  0  0.429555  0  0.889013  0  0  0.306261  0.410814  0  0.916095  0
H  H21  1  0.26210795  0.57065545  0.26623034  1  0  0.449059  0  0.842774  0  0  0.418851  0  0.904548  0  0  0.429541  0  0.889033  0  0  0.306241  0.410799  0  0.916116  0
H  H22  1  0.26210653  0.07065514  0.23377188  1  0  0.449072  0  0.842748  0  0  0.418863  0  0.904526  0  0  0.429551  0  0.889014  0  0  0.306275  0.410811  0  0.916093  0
H  H23  1  0.73789237  0.42934512  0.73377332  1  0  0.449067  0  0.842755  0  0  0.418861  0  0.904529  0  0  0.429549  0  0.889017  0  0  0.306263  0.410809  0  0.916096  0
H  H24  1  0.85353659  0.80230564  0.79750288  1  0  0.434628  0  0.849269  0  0  0.409861  0  0.906875  0  0  0.419681  0  0.892254  0  0  0.310092  0.402426  0  0.917731  0
H  H25  1  0.14646607  0.69769834  0.29750335  1  0  0.434594  0  0.849385  0  0  0.409846  0  0.906899  0  0  0.419663  0  0.892284  0  0  0.310079  0.402414  0  0.917749  0
H  H26  1  0.14646497  0.19769702  0.20249242  1  0  0.434594  0  0.849337  0  0  0.409844  0  0.906893  0  0  0.419663  0  0.892275  0  0  0.310071  0.402412  0  0.917743  0
H  H27  1  0.85353550  0.30230536  0.70249613  1  0  0.434632  0  0.849222  0  0  0.409861  0  0.906871  0  0  0.419681  0  0.89225  0  0  0.310079  0.402425  0  0.917728  0
C  C28  1  0.56890434  0.05353566  0.48145786  1  0  0.585814  0  3.870508  0  0  0.538229  0  4.176592  0  0  0.569183  0  4.165508  0  0  0.231829  0.517819  0  4.175685  0
C  C29  1  0.43109436  0.44646750  0.98146073  1  0  0.585667  0  3.870815  0  0  0.538069  0  4.176908  0  0  0.568997  0  4.165868  0  0  0.231745  0.517659  0  4.175998  0
C  C30  1  0.43109367  0.94647010  0.51854476  1  0  0.585905  0  3.870441  0  0  0.538237  0  4.176608  0  0  0.569172  0  4.165548  0  0  0.231768  0.517826  0  4.175701  0
C  C31  1  0.56890600  0.55353515  0.01854712  1  0  0.585882  0  3.870337  0  0  0.538216  0  4.176535  0  0  0.569154  0  4.165486  0  0  0.231808  0.517804  0  4.175624  0
C  C32  1  0.97109974  0.47677497  0.42687947  1  0  0.557377  0  3.923935  0  0  0.510759  0  4.224548  0  0  0.54045  0  4.215343  0  0  0.22428  0.490597  0  4.224427  0
C  C33  1  0.02890415  0.02321683  0.92688371  1  0  0.557122  0  3.924291  0  0  0.510556  0  4.224851  0  0  0.540255  0  4.21563  0  0  0.22426  0.490394  0  4.224727  0
C  C34  1  0.02891207  0.52319656  0.57311373  1  0  0.556996  0  3.924608  0  0  0.510408  0  4.225227  0  0  0.540098  0  4.216019  0  0  0.224318  0.490248  0  4.225098  0
C  C35  1  0.97109521  0.97679725  0.07311995  1  0  0.557171  0  3.924178  0  0  0.510526  0  4.224856  0  0  0.540218  0  4.215645  0  0  0.224285  0.490366  0  4.224731  0
C  C36  1  0.47344004  0.51940555  0.42523946  1  0  0.554162  0  3.932557  0  0  0.508989  0  4.236536  0  0  0.538991  0  4.226423  0  0  0.216811  0.489139  0  4.235267  0
C  C37  1  0.52654800  0.98059508  0.92523003  1  0  0.554409  0  3.932303  0  0  0.509072  0  4.236538  0  0  0.539085  0  4.22642  0  0  0.216842  0.489218  0  4.235271  0
C  C38  1  0.52653610  0.48058443  0.57477258  1  0  0.554469  0  3.932821  0  0  0.509117  0  4.236999  0  0  0.539119  0  4.226879  0  0  0.216779  0.489264  0  4.235734  0
C  C39  1  0.47345376  0.01941902  0.07476631  1  0  0.554264  0  3.932911  0  0  0.508934  0  4.237187  0  0  0.538916  0  4.227105  0  0  0.216714  0.489085  0  4.235919  0
O  O40  1  0.71169907  0.01082973  0.48862988  1  0  -0.666198  0  2.047409  0  0  -0.615051  0  2.280509  0  0  -0.638967  0  2.269107  0  0  -0.349213  -0.589931  0  2.28949  0
O  O41  1  0.28830194  0.48917240  0.98862969  1  0  -0.666157  0  2.047686  0  0  -0.61499  0  2.28077  0  0  -0.638899  0  2.269384  0  0  -0.3492  -0.589865  0  2.289747  0
O  O42  1  0.28830238  0.98916668  0.51136961  1  0  -0.666211  0  2.047568  0  0  -0.615031  0  2.280695  0  0  -0.638939  0  2.269287  0  0  -0.349167  -0.589903  0  2.289676  0
O  O43  1  0.71169615  0.51083752  0.01137084  1  0  -0.666146  0  2.047507  0  0  -0.61496  0  2.280626  0  0  -0.638864  0  2.269219  0  0  -0.349145  -0.589845  0  2.289603  0
O  O44  1  0.52727359  0.17455478  0.44744106  1  0  -0.658167  0  2.086403  0  0  -0.613674  0  2.325357  0  0  -0.637023  0  2.315441  0  0  -0.342763  -0.588911  0  2.333633  0
O  O45  1  0.47272425  0.32544736  0.94744470  1  0  -0.658106  0  2.086417  0  0  -0.61361  0  2.325376  0  0  -0.636951  0  2.315477  0  0  -0.342716  -0.588859  0  2.33365  0
O  O46  1  0.47273396  0.82544792  0.55256260  1  0  -0.658198  0  2.086189  0  0  -0.613704  0  2.325216  0  0  -0.637048  0  2.315308  0  0  -0.342742  -0.588949  0  2.333489  0
O  O47  1  0.52726656  0.67455834  0.05256524  1  0  -0.658177  0  2.086107  0  0  -0.613685  0  2.325128  0  0  -0.637029  0  2.315223  0  0  -0.342761  -0.588923  0  2.3334  0
O  O48  1  0.86133512  0.54616811  0.37053258  1  0  -0.652703  0  2.097775  0  0  -0.607807  0  2.331672  0  0  -0.63076  0  2.323262  0  0  -0.342223  -0.583547  0  2.339482  0
O  O49  1  0.13866770  0.95382124  0.87054409  1  0  -0.652579  0  2.098178  0  0  -0.607737  0  2.332054  0  0  -0.630676  0  2.323634  0  0  -0.342272  -0.583473  0  2.339864  0
O  O50  1  0.13866127  0.45381371  0.62946376  1  0  -0.652603  0  2.098423  0  0  -0.607756  0  2.33233  0  0  -0.630695  0  2.323917  0  0  -0.342348  -0.583491  0  2.340139  0
O  O51  1  0.86134465  0.04618150  0.12947317  1  0  -0.652624  0  2.098267  0  0  -0.607726  0  2.332193  0  0  -0.630675  0  2.323783  0  0  -0.342233  -0.583472  0  2.340002  0
O  O52  1  0.03679236  0.37194050  0.37366939  1  0  -0.647459  0  2.123597  0  0  -0.592737  0  2.354213  0  0  -0.617541  0  2.346442  0  0  -0.340275  -0.567927  0  2.361008  0
O  O53  1  0.96321569  0.12805139  0.87366916  1  0  -0.647438  0  2.123545  0  0  -0.592704  0  2.354099  0  0  -0.617514  0  2.346323  0  0  -0.340237  -0.567907  0  2.3609  0
O  O54  1  0.96320631  0.62803405  0.62632068  1  0  -0.647402  0  2.123596  0  0  -0.59263  0  2.354096  0  0  -0.61744  0  2.346331  0  0  -0.340323  -0.567825  0  2.360889  0
O  O55  1  0.03680042  0.87196075  0.12632718  1  0  -0.647486  0  2.123439  0  0  -0.592708  0  2.353976  0  0  -0.617521  0  2.34621  0  0  -0.340366  -0.567903  0  2.360777  0
O  O56  1  0.54548277  0.61906317  0.36655117  1  0  -0.614131  0  2.115951  0  0  -0.571351  0  2.360783  0  0  -0.594283  0  2.353953  0  0  -0.353291  -0.548081  0  2.366437  0
O  O57  1  0.45451666  0.88093552  0.86653610  1  0  -0.614363  0  2.116114  0  0  -0.571478  0  2.361004  0  0  -0.594409  0  2.354168  0  0  -0.353296  -0.548204  0  2.366661  0
O  O58  1  0.45451397  0.38093841  0.63345982  1  0  -0.614336  0  2.116646  0  0  -0.57147  0  2.361541  0  0  -0.594395  0  2.354707  0  0  -0.353292  -0.548196  0  2.367198  0
O  O59  1  0.54548470  0.11905569  0.13345606  1  0  -0.614171  0  2.116506  0  0  -0.57139  0  2.361508  0  0  -0.594314  0  2.354689  0  0  -0.353285  -0.548126  0  2.367162  0
O  O60  1  0.35790228  0.44721211  0.37241721  1  0  -0.682719  0  2.073143  0  0  -0.636617  0  2.309032  0  0  -0.661067  0  2.300284  0  0  -0.365556  -0.611062  0  2.316769  0
O  O61  1  0.64209881  0.05279221  0.87241230  1  0  -0.682831  0  2.072931  0  0  -0.636661  0  2.308886  0  0  -0.661111  0  2.300132  0  0  -0.365603  -0.611116  0  2.316625  0
O  O62  1  0.64208374  0.55279355  0.62758018  1  0  -0.682794  0  2.072886  0  0  -0.636665  0  2.308864  0  0  -0.661114  0  2.300114  0  0  -0.365544  -0.611113  0  2.316602  0
O  O63  1  0.35792185  0.94720540  0.12757254  1  0  -0.682647  0  2.073073  0  0  -0.636498  0  2.309054  0  0  -0.66094  0  2.300317  0  0  -0.365484  -0.610946  0  2.31679  0
O  O64  1  0.70406599  0.82848519  0.25808953  1  0  -0.913497  0  1.865592  0  0  -0.872436  0  2.058951  0  0  -0.889914  0  2.026647  0  0  -0.653443  -0.849858  0  2.088089  0
O  O65  1  0.29592624  0.67151562  0.75808631  1  0  -0.913535  0  1.865561  0  0  -0.872553  0  2.058856  0  0  -0.890009  0  2.026596  0  0  -0.653506  -0.849972  0  2.087999  0
O  O66  1  0.29593907  0.17151230  0.74190682  1  0  -0.913493  0  1.865731  0  0  -0.872503  0  2.058949  0  0  -0.889959  0  2.026726  0  0  -0.653469  -0.849913  0  2.088094  0
O  O67  1  0.70406206  0.32848381  0.24190899  1  0  -0.913488  0  1.865696  0  0  -0.87248  0  2.059042  0  0  -0.889925  0  2.026718  0  0  -0.653425  -0.849904  0  2.08818  0
O  O68  1  0.02562153  0.83292680  0.40604528  1  0  -0.908401  0  1.829927  0  0  -0.86418  0  2.008084  0  0  -0.882711  0  1.973537  0  0  -0.609483  -0.840744  0  2.037932  0
O  O69  1  0.97437635  0.66707600  0.90604913  1  0  -0.908403  0  1.829949  0  0  -0.864135  0  2.008043  0  0  -0.882708  0  1.973586  0  0  -0.609468  -0.840694  0  2.037892  0
O  O70  1  0.97437163  0.16707579  0.59395211  1  0  -0.908465  0  1.82989  0  0  -0.864192  0  2.007982  0  0  -0.882763  0  1.973517  0  0  -0.609529  -0.840746  0  2.037833  0
O  O71  1  0.02562638  0.33292563  0.09395035  1  0  -0.908476  0  1.829888  0  0  -0.864246  0  2.008025  0  0  -0.882803  0  1.973528  0  0  -0.609537  -0.840815  0  2.037875  0
O  O72  1  0.80228754  0.85517978  0.72238866  1  0  -0.904154  0  1.858339  0  0  -0.866238  0  2.047675  0  0  -0.882491  0  2.015038  0  0  -0.644759  -0.843913  0  2.077176  0
O  O73  1  0.19771345  0.64482009  0.22238979  1  0  -0.904095  0  1.858493  0  0  -0.866166  0  2.047759  0  0  -0.882422  0  2.015125  0  0  -0.644709  -0.843837  0  2.077264  0
O  O74  1  0.19771639  0.14482186  0.27761083  1  0  -0.904111  0  1.858486  0  0  -0.866184  0  2.047805  0  0  -0.88244  0  2.015171  0  0  -0.644714  -0.843849  0  2.077311  0
O  O75  1  0.80228327  0.35518045  0.77761283  1  0  -0.904142  0  1.858345  0  0  -0.866219  0  2.047697  0  0  -0.882469  0  2.015056  0  0  -0.644737  -0.843896  0  2.077197  0
