# generated using pymatgen
data_CuH7C8SIN2
_symmetry_space_group_name_H-M   'P 1'
_cell_length_a   4.32502146
_cell_length_b   12.79001210
_cell_length_c   16.66121722
_cell_angle_alpha   89.99997191
_cell_angle_beta   89.99994701
_cell_angle_gamma   93.98672375
_symmetry_Int_Tables_number   1
_chemical_formula_structural   CuH7C8SIN2
_chemical_formula_sum   'Cu4 H28 C32 S4 I4 N8'
_cell_volume   919.41961149
_cell_formula_units_Z   4
loop_
 _symmetry_equiv_pos_site_id
 _symmetry_equiv_pos_as_xyz
  1  'x, y, z'
loop_
 _atom_site_type_symbol
 _atom_site_label
 _atom_site_symmetry_multiplicity
 _atom_site_fract_x
 _atom_site_fract_y
 _atom_site_fract_z
 _atom_site_occupancy
 _atom_site_hle17_bader_spin_density
 _atom_site_hle17_ddec_charge
 _atom_site_hle17_ddec_spin_density
 _atom_site_hle17_ddec_sum_bond_order
 _atom_site_hle17_magmom
 _atom_site_hse06_10hf_bader_spin_density
 _atom_site_hse06_10hf_ddec_charge
 _atom_site_hse06_10hf_ddec_spin_density
 _atom_site_hse06_10hf_ddec_sum_bond_order
 _atom_site_hse06_10hf_magmom
 _atom_site_hse06_bader_spin_density
 _atom_site_hse06_ddec_charge
 _atom_site_hse06_ddec_spin_density
 _atom_site_hse06_ddec_sum_bond_order
 _atom_site_hse06_magmom
 _atom_site_pbe_bader_spin_density
 _atom_site_pbe_cm5_charge
 _atom_site_pbe_ddec_charge
 _atom_site_pbe_ddec_spin_density
 _atom_site_pbe_ddec_sum_bond_order
 _atom_site_pbe_magmom
Cu  Cu0  1  0.18786242  0.48350870  0.07776550  1  0  0.302997  0  2.001757  0  0  0.21389  0  2.464859  0  0  0.227667  0  2.412513  0  0  0.264337  0.206722  0  2.499726  0
Cu  Cu1  1  0.81216571  0.01648534  0.57776380  1  0  0.302995  0  2.001844  0  0  0.213907  0  2.464916  0  0  0.227692  0  2.412593  0  0  0.264327  0.206746  0  2.499785  0
Cu  Cu2  1  0.81213676  0.51648811  0.92223493  1  0  0.302969  0  2.001818  0  0  0.213882  0  2.464886  0  0  0.227658  0  2.412577  0  0  0.26433  0.206712  0  2.499749  0
Cu  Cu3  1  0.18787294  0.98351232  0.42223483  1  0  0.302918  0  2.001825  0  0  0.213846  0  2.464877  0  0  0.227634  0  2.412588  0  0  0.264307  0.206675  0  2.49976  0
H  H4  1  0.85924154  0.81104348  0.29707526  1  0  0.06452  0  0.990362  0  0  0.067521  0  1.067989  0  0  0.071507  0  1.06216  0  0  0.091321  0.064417  0  1.072384  0
H  H5  1  0.14075120  0.68895074  0.79707786  1  0  0.064511  0  0.990362  0  0  0.067518  0  1.067977  0  0  0.071503  0  1.062149  0  0  0.091294  0.06442  0  1.072364  0
H  H6  1  0.14075593  0.18895647  0.70292338  1  0  0.064489  0  0.9904  0  0  0.067498  0  1.068003  0  0  0.071483  0  1.062174  0  0  0.091297  0.064396  0  1.072391  0
H  H7  1  0.85924059  0.31104371  0.20292378  1  0  0.0645  0  0.990368  0  0  0.067512  0  1.067982  0  0  0.071496  0  1.062155  0  0  0.091307  0.064405  0  1.072375  0
H  H8  1  0.64001907  0.80094638  0.15541637  1  0  0.115677  0  0.950996  0  0  0.128635  0  1.0069  0  0  0.132097  0  1.00652  0  0  0.10526  0.126133  0  1.00744  0
H  H9  1  0.36000102  0.69904328  0.65541951  1  0  0.11558  0  0.950961  0  0  0.128522  0  1.006899  0  0  0.131992  0  1.006526  0  0  0.105216  0.12602  0  1.007434  0
H  H10  1  0.35998660  0.19904810  0.84458166  1  0  0.115637  0  0.950939  0  0  0.128573  0  1.006871  0  0  0.132044  0  1.006494  0  0  0.105243  0.12607  0  1.007407  0
H  H11  1  0.64001606  0.30095044  0.34458332  1  0  0.115621  0  0.950989  0  0  0.128587  0  1.00689  0  0  0.132051  0  1.00651  0  0  0.10524  0.126084  0  1.007427  0
H  H12  1  0.22034538  0.34906489  0.43268617  1  0  0.082751  0  0.969052  0  0  0.092906  0  1.035839  0  0  0.094925  0  1.035895  0  0  0.088335  0.091454  0  1.035901  0
H  H13  1  0.77962982  0.15093667  0.93268743  1  0  0.082732  0  0.969083  0  0  0.092879  0  1.035871  0  0  0.094896  0  1.035927  0  0  0.088325  0.091425  0  1.035931  0
H  H14  1  0.77964143  0.65093974  0.56731306  1  0  0.082716  0  0.96908  0  0  0.092899  0  1.035833  0  0  0.094917  0  1.035887  0  0  0.088319  0.091441  0  1.035895  0
H  H15  1  0.22035609  0.84906326  0.06731000  1  0  0.082794  0  0.968968  0  0  0.092934  0  1.035771  0  0  0.094955  0  1.035823  0  0  0.088328  0.09148  0  1.035836  0
H  H16  1  0.15574133  0.68183464  0.45670597  1  0  0.093128  0  0.978725  0  0  0.099442  0  1.050174  0  0  0.102134  0  1.049432  0  0  0.085103  0.097213  0  1.051163  0
H  H17  1  0.84424512  0.81816574  0.95670473  1  0  0.09316  0  0.978622  0  0  0.099462  0  1.05008  0  0  0.102158  0  1.049335  0  0  0.085118  0.097235  0  1.051072  0
H  H18  1  0.84423100  0.31816683  0.54329147  1  0  0.09305  0  0.978704  0  0  0.099411  0  1.050108  0  0  0.102098  0  1.049373  0  0  0.085064  0.097183  0  1.051102  0
H  H19  1  0.15573832  0.18183341  0.04329210  1  0  0.093043  0  0.978706  0  0  0.099374  0  1.050122  0  0  0.102084  0  1.049363  0  0  0.085061  0.097148  0  1.05111  0
H  H20  1  0.80999203  0.65552480  0.06703688  1  0  0.062402  0  1.002104  0  0  0.070626  0  1.073041  0  0  0.074238  0  1.067664  0  0  0.089854  0.067588  0  1.077454  0
H  H21  1  0.19004346  0.84447120  0.56703880  1  0  0.062499  0  1.001994  0  0  0.070665  0  1.07303  0  0  0.074282  0  1.067647  0  0  0.089873  0.067628  0  1.077439  0
H  H22  1  0.19002581  0.34447283  0.93296295  1  0  0.062419  0  1.002072  0  0  0.070618  0  1.073064  0  0  0.074231  0  1.067686  0  0  0.089845  0.06758  0  1.077475  0
H  H23  1  0.80998826  0.15552645  0.43296463  1  0  0.062407  0  1.002067  0  0  0.070625  0  1.073003  0  0  0.074239  0  1.067623  0  0  0.089847  0.067589  0  1.077418  0
H  H24  1  0.66143740  0.49535342  0.38580176  1  0  0.097223  0  0.976251  0  0  0.113204  0  1.038526  0  0  0.113238  0  1.040941  0  0  0.096884  0.113106  0  1.03698  0
H  H25  1  0.33855139  0.00464585  0.88579778  1  0  0.097194  0  0.976266  0  0  0.113167  0  1.038555  0  0  0.1132  0  1.040968  0  0  0.09685  0.113068  0  1.037008  0
H  H26  1  0.33855127  0.50464887  0.61420288  1  0  0.097267  0  0.976242  0  0  0.113247  0  1.038493  0  0  0.113281  0  1.040906  0  0  0.096879  0.113148  0  1.036948  0
H  H27  1  0.66143929  0.99535488  0.11419905  1  0  0.097228  0  0.976282  0  0  0.113169  0  1.038581  0  0  0.113203  0  1.040996  0  0  0.096876  0.113073  0  1.037033  0
H  H28  1  0.53020333  0.62165259  0.36867995  1  0  0.114711  0  0.949807  0  0  0.124156  0  1.019048  0  0  0.125871  0  1.018249  0  0  0.09988  0.122849  0  1.019726  0
H  H29  1  0.46979237  0.87834629  0.86867879  1  0  0.114699  0  0.94982  0  0  0.124159  0  1.019022  0  0  0.125873  0  1.018224  0  0  0.099854  0.12285  0  1.019701  0
H  H30  1  0.46979459  0.37834971  0.63132108  1  0  0.114645  0  0.949787  0  0  0.124039  0  1.019069  0  0  0.125749  0  1.018274  0  0  0.099835  0.122733  0  1.019747  0
H  H31  1  0.53019569  0.12165286  0.13131924  1  0  0.114725  0  0.949749  0  0  0.124137  0  1.019004  0  0  0.125849  0  1.018205  0  0  0.099875  0.122832  0  1.019681  0
C  C32  1  0.90776614  0.74770134  0.25604345  1  0  0.181807  0  3.716915  0  0  0.148999  0  3.981797  0  0  0.162722  0  3.992181  0  0  0.056177  0.139716  0  3.975283  0
C  C33  1  0.09222921  0.75229370  0.75604543  1  0  0.181833  0  3.716671  0  0  0.149032  0  3.98157  0  0  0.162756  0  3.991955  0  0  0.05622  0.139742  0  3.975056  0
C  C34  1  0.09223133  0.25229861  0.74395578  1  0  0.181867  0  3.716888  0  0  0.149063  0  3.981773  0  0  0.162786  0  3.992162  0  0  0.056216  0.13978  0  3.975255  0
C  C35  1  0.90776766  0.24770311  0.24395800  1  0  0.181981  0  3.716804  0  0  0.149159  0  3.981705  0  0  0.162884  0  3.992089  0  0  0.056247  0.139878  0  3.975187  0
C  C36  1  0.79040730  0.74314933  0.17821422  1  0  -0.189043  0  3.732715  0  0  -0.203218  0  3.988407  0  0  -0.214828  0  4.007772  0  0  -0.098287  -0.196009  0  3.976127  0
C  C37  1  0.20960512  0.75684892  0.67821557  1  0  -0.189004  0  3.732629  0  0  -0.203201  0  3.988352  0  0  -0.214826  0  4.007734  0  0  -0.098316  -0.195994  0  3.97607  0
C  C38  1  0.20960390  0.25684986  0.82178502  1  0  -0.189014  0  3.732495  0  0  -0.203185  0  3.988219  0  0  -0.21481  0  4.007601  0  0  -0.098309  -0.195977  0  3.975938  0
C  C39  1  0.79040608  0.24315027  0.32178786  1  0  -0.189015  0  3.732641  0  0  -0.203201  0  3.988344  0  0  -0.214813  0  4.007709  0  0  -0.098277  -0.195991  0  3.97606  0
C  C40  1  0.21505401  0.51797068  0.43646497  1  0  0.092555  0  3.762537  0  0  0.113914  0  3.994208  0  0  0.113464  0  4.018282  0  0  -0.017481  0.114206  0  3.97785  0
C  C41  1  0.78493744  0.98203129  0.93646309  1  0  0.092551  0  3.762459  0  0  0.113843  0  3.994232  0  0  0.113391  0  4.018309  0  0  -0.017532  0.114142  0  3.97787  0
C  C42  1  0.78494376  0.48203084  0.56353666  1  0  0.092486  0  3.762518  0  0  0.113782  0  3.994266  0  0  0.113327  0  4.01834  0  0  -0.017585  0.114079  0  3.977904  0
C  C43  1  0.21504415  0.01797020  0.06353314  1  0  0.092371  0  3.762482  0  0  0.113683  0  3.994182  0  0  0.113236  0  4.01826  0  0  -0.017593  0.11398  0  3.977826  0
C  C44  1  0.14919635  0.59671725  0.23544664  1  0  0.33074  0  3.803576  0  0  0.31218  0  4.083843  0  0  0.329954  0  4.09679  0  0  0.233415  0.300314  0  4.075169  0
C  C45  1  0.85082035  0.90328019  0.73544657  1  0  0.330985  0  3.803479  0  0  0.312288  0  4.083918  0  0  0.330066  0  4.096868  0  0  0.233414  0.300423  0  4.075235  0
C  C46  1  0.85081053  0.40328350  0.76455379  1  0  0.330953  0  3.803399  0  0  0.312304  0  4.083769  0  0  0.330077  0  4.09672  0  0  0.233447  0.300437  0  4.075095  0
C  C47  1  0.14918779  0.09671508  0.26455206  1  0  0.330951  0  3.803523  0  0  0.312393  0  4.083796  0  0  0.330178  0  4.096734  0  0  0.233511  0.300525  0  4.075123  0
C  C48  1  0.12225929  0.41592589  0.46141817  1  0  -0.124215  0  3.751416  0  0  -0.142545  0  3.999294  0  0  -0.145391  0  4.02162  0  0  -0.099537  -0.140539  0  3.984085  0
C  C49  1  0.87772088  0.08407801  0.96141762  1  0  -0.124178  0  3.751297  0  0  -0.142464  0  3.999147  0  0  -0.145319  0  4.021502  0  0  -0.099468  -0.140456  0  3.983932  0
C  C50  1  0.87772781  0.58408031  0.53858287  1  0  -0.124089  0  3.751272  0  0  -0.142401  0  3.999121  0  0  -0.145253  0  4.021469  0  0  -0.099434  -0.14039  0  3.9839  0
C  C51  1  0.12226040  0.91592191  0.03857861  1  0  -0.124204  0  3.751392  0  0  -0.142511  0  3.999296  0  0  -0.145354  0  4.021613  0  0  -0.099492  -0.140505  0  3.984085  0
C  C52  1  0.08970965  0.60196742  0.47613374  1  0  -0.109172  0  3.726732  0  0  -0.12925  0  3.977091  0  0  -0.131716  0  3.998169  0  0  -0.094456  -0.127413  0  3.962883  0
C  C53  1  0.91029151  0.89803767  0.97613306  1  0  -0.109154  0  3.726801  0  0  -0.1292  0  3.977149  0  0  -0.131674  0  3.998236  0  0  -0.094378  -0.127366  0  3.962945  0
C  C54  1  0.91028947  0.39804115  0.52386489  1  0  -0.109098  0  3.726756  0  0  -0.129194  0  3.977067  0  0  -0.131657  0  3.998154  0  0  -0.094316  -0.127358  0  3.962866  0
C  C55  1  0.08968761  0.10196303  0.02386317  1  0  -0.108973  0  3.726659  0  0  -0.129032  0  3.976991  0  0  -0.131516  0  3.998064  0  0  -0.094356  -0.127198  0  3.962787  0
C  C56  1  0.88207948  0.66294985  0.12963314  1  0  0.180186  0  3.687152  0  0  0.143492  0  3.939028  0  0  0.156628  0  3.951212  0  0  0.044157  0.134507  0  3.931547  0
C  C57  1  0.11794482  0.83704924  0.62963748  1  0  0.180124  0  3.687275  0  0  0.143467  0  3.939077  0  0  0.15661  0  3.951252  0  0  0.044156  0.134481  0  3.931588  0
C  C58  1  0.11793187  0.33705012  0.87036550  1  0  0.180116  0  3.687183  0  0  0.143426  0  3.939051  0  0  0.156572  0  3.951215  0  0  0.044154  0.134441  0  3.931567  0
C  C59  1  0.88207794  0.16294997  0.37036715  1  0  0.180119  0  3.687176  0  0  0.143456  0  3.939043  0  0  0.156597  0  3.951228  0  0  0.044119  0.134469  0  3.931564  0
C  C60  1  0.45617942  0.53819592  0.37245821  1  0  -0.181509  0  3.653598  0  0  -0.219725  0  3.897474  0  0  -0.217952  0  3.906557  0  0  -0.146692  -0.220772  0  3.891199  0
C  C61  1  0.54381180  0.96180374  0.87245700  1  0  -0.18142  0  3.653687  0  0  -0.219578  0  3.897492  0  0  -0.217796  0  3.906561  0  0  -0.146595  -0.220626  0  3.891214  0
C  C62  1  0.54381664  0.46180873  0.62754462  1  0  -0.181459  0  3.653742  0  0  -0.21954  0  3.897491  0  0  -0.217755  0  3.906556  0  0  -0.146614  -0.22059  0  3.891215  0
C  C63  1  0.45616933  0.03819540  0.12753984  1  0  -0.181452  0  3.653502  0  0  -0.219531  0  3.897271  0  0  -0.217753  0  3.90635  0  0  -0.146633  -0.220582  0  3.890992  0
S  S64  1  0.35883759  0.49421130  0.27059713  1  0  -0.000589  0  2.364063  0  0  -0.00541  0  2.716733  0  0  -0.011382  0  2.715207  0  0  0.032283  -0.001288  0  2.717799  0
S  S65  1  0.64117398  0.00578416  0.77059248  1  0  -0.000709  0  2.364099  0  0  -0.005514  0  2.716806  0  0  -0.011488  0  2.715275  0  0  0.032254  -0.001399  0  2.717872  0
S  S66  1  0.64116667  0.50578788  0.72940570  1  0  -0.000663  0  2.364171  0  0  -0.005502  0  2.716873  0  0  -0.011469  0  2.715328  0  0  0.03225  -0.00138  0  2.717938  0
S  S67  1  0.35882721  0.99421109  0.22940496  1  0  -0.000647  0  2.364142  0  0  -0.005501  0  2.716797  0  0  -0.011473  0  2.715262  0  0  0.032249  -0.001378  0  2.717864  0
I  I68  1  0.65169596  0.37308483  0.05323845  1  0  -0.377461  0  1.764758  0  0  -0.311082  0  2.2411  0  0  -0.330295  0  2.193202  0  0  -0.148378  -0.296791  0  2.273947  0
I  I69  1  0.34832160  0.12691391  0.55324222  1  0  -0.377413  0  1.764611  0  0  -0.311061  0  2.240963  0  0  -0.330281  0  2.193081  0  0  -0.148347  -0.29677  0  2.273817  0
I  I70  1  0.34830367  0.62691434  0.94676199  1  0  -0.377443  0  1.764726  0  0  -0.311095  0  2.241087  0  0  -0.33031  0  2.193202  0  0  -0.148372  -0.296798  0  2.273932  0
I  I71  1  0.65170132  0.87308608  0.44676301  1  0  -0.377424  0  1.764765  0  0  -0.311038  0  2.24111  0  0  -0.330262  0  2.193236  0  0  -0.148342  -0.296739  0  2.273963  0
N  N72  1  0.06796835  0.59016927  0.15659527  1  0  -0.37201  0  3.362151  0  0  -0.296513  0  3.652249  0  0  -0.315054  0  3.658417  0  0  -0.36919  -0.285044  0  3.64832  0
N  N73  1  0.93204691  0.90983135  0.65659458  1  0  -0.372118  0  3.362106  0  0  -0.296555  0  3.652186  0  0  -0.315106  0  3.658368  0  0  -0.369185  -0.285088  0  3.648253  0
N  N74  1  0.93204084  0.40983148  0.84340516  1  0  -0.372003  0  3.362154  0  0  -0.296459  0  3.65224  0  0  -0.315003  0  3.658423  0  0  -0.369133  -0.284988  0  3.648306  0
N  N75  1  0.06796690  0.09016941  0.34340585  1  0  -0.371996  0  3.362134  0  0  -0.296537  0  3.652279  0  0  -0.315093  0  3.658461  0  0  -0.369173  -0.285067  0  3.648355  0
N  N76  1  0.08300745  0.67402782  0.28502764  1  0  -0.364697  0  3.057158  0  0  -0.321243  0  3.321906  0  0  -0.337846  0  3.335273  0  0  -0.313019  -0.310392  0  3.313171  0
N  N77  1  0.91699318  0.82597113  0.78502879  1  0  -0.364808  0  3.057086  0  0  -0.321296  0  3.321841  0  0  -0.337897  0  3.335204  0  0  -0.313034  -0.310447  0  3.313105  0
N  N78  1  0.91699972  0.32597450  0.71497159  1  0  -0.364852  0  3.057191  0  0  -0.321359  0  3.321947  0  0  -0.33796  0  3.335311  0  0  -0.313074  -0.310509  0  3.313212  0
N  N79  1  0.08299907  0.17402568  0.21497164  1  0  -0.364996  0  3.05723  0  0  -0.321552  0  3.322028  0  0  -0.338157  0  3.335388  0  0  -0.313151  -0.310699  0  3.31329  0
