# generated using pymatgen
data_LiBH13C4NO
_symmetry_space_group_name_H-M   'P 1'
_cell_length_a   8.74642929
_cell_length_b   9.38370107
_cell_length_c   10.41955383
_cell_angle_alpha   77.36207682
_cell_angle_beta   64.92457193
_cell_angle_gamma   63.89467232
_symmetry_Int_Tables_number   1
_chemical_formula_structural   LiBH13C4NO
_chemical_formula_sum   'Li4 B4 H52 C16 N4 O4'
_cell_volume   695.00804372
_cell_formula_units_Z   4
loop_
 _symmetry_equiv_pos_site_id
 _symmetry_equiv_pos_as_xyz
  1  'x, y, z'
loop_
 _atom_site_type_symbol
 _atom_site_label
 _atom_site_symmetry_multiplicity
 _atom_site_fract_x
 _atom_site_fract_y
 _atom_site_fract_z
 _atom_site_occupancy
 _atom_site_pbe_bader_spin_density
 _atom_site_pbe_cm5_charge
 _atom_site_pbe_ddec_charge
 _atom_site_pbe_ddec_spin_density
 _atom_site_pbe_ddec_sum_bond_order
 _atom_site_pbe_magmom
Li  Li0  1  0.84910150  0.64158372  0.64450109  1  0  0.463253  0.762162  0  0.526791  0
Li  Li1  1  0.15089660  0.35841671  0.35550061  1  0  0.463258  0.762174  0  0.526779  0
Li  Li2  1  0.06071484  0.06671133  0.61892783  1  0  0.455173  0.756438  0  0.533193  0
Li  Li3  1  0.93928399  0.93329030  0.38107050  1  0  0.455168  0.756425  0  0.533207  0
B  B4  1  0.05237980  0.33054482  0.63368146  1  0  -0.458835  -0.056522  0  3.874945  0
B  B5  1  0.94761650  0.66945680  0.36632065  1  0  -0.458834  -0.056531  0  3.874976  0
B  B6  1  0.85008467  0.90661427  0.65462585  1  0  -0.449115  -0.042969  0  3.855254  0
B  B7  1  0.14991706  0.09338380  0.34537311  1  0  -0.449098  -0.042905  0  3.855186  0
H  H8  1  0.47028096  0.96426678  0.67010847  1  0  0.114227  0.08366  0  0.98713  0
H  H9  1  0.52971859  0.03573605  0.32988649  1  0  0.114241  0.083672  0  0.98722  0
H  H10  1  0.63198714  0.21846938  0.70215816  1  0  0.09881  0.091275  0  1.030017  0
H  H11  1  0.36801513  0.78152750  0.29784372  1  0  0.098805  0.091287  0  1.030008  0
H  H12  1  0.65784169  0.23146964  0.85897915  1  0  0.090949  0.081598  0  1.037105  0
H  H13  1  0.34216418  0.76852488  0.14102192  1  0  0.090949  0.081604  0  1.037146  0
H  H14  1  0.52553923  0.79452397  0.48967123  1  0  0.112921  0.083539  0  0.989604  0
H  H15  1  0.47445856  0.20547170  0.51032864  1  0  0.112916  0.083542  0  0.989547  0
H  H16  1  0.40070232  0.56669142  0.73211894  1  0  0.104615  0.073801  0  0.996894  0
H  H17  1  0.59929381  0.43330781  0.26788561  1  0  0.104577  0.073705  0  0.996882  0
H  H18  1  0.78073831  0.98715950  0.56840076  1  0  0.041708  -0.181236  0  1.15848  0
H  H19  1  0.21926413  0.01283976  0.43159868  1  0  0.041704  -0.181261  0  1.158503  0
H  H20  1  0.50984281  0.80085907  0.88362876  1  0  0.115911  0.092468  0  0.993847  0
H  H21  1  0.49015148  0.19914968  0.11636978  1  0  0.11589  0.092388  0  0.99393  0
H  H22  1  0.34528518  0.73142947  0.52277767  1  0  0.115361  0.084598  0  1.0019  0
H  H23  1  0.65471276  0.26856857  0.47722551  1  0  0.115362  0.084614  0  1.001882  0
H  H24  1  0.08838258  0.55205023  0.83607950  1  0  0.092898  0.084632  0  1.028796  0
H  H25  1  0.91161733  0.44794902  0.16392275  1  0  0.092912  0.084658  0  1.028784  0
H  H26  1  0.92456778  0.33435965  0.60919267  1  0  0.053751  -0.159741  0  1.112147  0
H  H27  1  0.07542978  0.66564197  0.39080898  1  0  0.053761  -0.159711  0  1.112132  0
H  H28  1  0.25197778  0.01737150  0.81369288  1  0  0.113238  0.087612  0  1.003135  0
H  H29  1  0.74802140  0.98263489  0.18630055  1  0  0.113235  0.087632  0  1.003175  0
H  H30  1  0.76924183  0.88646215  0.94625016  1  0  0.080647  0.067609  0  1.024316  0
H  H31  1  0.23076892  0.11353002  0.05374868  1  0  0.080655  0.067609  0  1.024405  0
H  H32  1  0.13242599  0.19549845  0.67635028  1  0  0.030134  -0.187085  0  1.155294  0
H  H33  1  0.86756851  0.80450434  0.32365127  1  0  0.030128  -0.18709  0  1.155294  0
H  H34  1  0.16734483  0.35985898  0.52555466  1  0  0.041791  -0.188303  0  1.175071  0
H  H35  1  0.83265273  0.64014264  0.47444700  1  0  0.041776  -0.188306  0  1.175084  0
H  H36  1  0.75575727  0.82986958  0.72888884  1  0  0.02803  -0.193323  0  1.150571  0
H  H37  1  0.24424084  0.17013085  0.27111093  1  0  0.028035  -0.193316  0  1.150545  0
H  H38  1  0.33691934  0.73401623  0.90392502  1  0  0.102792  0.067171  0  1.013463  0
H  H39  1  0.66307495  0.26599251  0.09607255  1  0  0.102795  0.067165  0  1.01345  0
H  H40  1  0.80966175  0.51211580  0.95639851  1  0  0.092031  0.085717  0  1.010651  0
H  H41  1  0.19033635  0.48788463  0.04360415  1  0  0.092045  0.085724  0  1.010654  0
H  H42  1  0.00891826  0.83003345  0.84380408  1  0  0.100081  0.092955  0  1.042543  0
H  H43  1  0.99109104  0.16996466  0.15618739  1  0  0.100078  0.092947  0  1.04256  0
H  H44  1  0.61637382  0.51777629  0.58447580  1  0  0.116752  0.087704  0  0.995716  0
H  H45  1  0.38362411  0.48222175  0.41552834  1  0  0.116753  0.087688  0  0.995713  0
H  H46  1  0.00961967  0.81383687  0.59477723  1  0  0.051809  -0.163777  0  1.106715  0
H  H47  1  0.99038118  0.18615763  0.40522178  1  0  0.051806  -0.163806  0  1.106709  0
H  H48  1  0.88332298  0.00905798  0.93765257  1  0  0.090069  0.078141  0  1.027707  0
H  H49  1  0.11669084  0.99093301  0.06234254  1  0  0.090042  0.078128  0  1.027736  0
H  H50  1  0.22795601  0.49354705  0.65758125  1  0  0.098718  0.089008  0  1.028408  0
H  H51  1  0.77204209  0.50645338  0.34242141  1  0  0.098721  0.089038  0  1.028387  0
H  H52  1  0.93000776  0.30349009  0.92920692  1  0  0.083124  0.071605  0  1.022027  0
H  H53  1  0.06999161  0.69651035  0.07079433  1  0  0.083143  0.071664  0  1.021999  0
H  H54  1  0.22263751  0.34634131  0.79911825  1  0  0.08226  0.074822  0  1.007475  0
H  H55  1  0.77736169  0.65365675  0.20088449  1  0  0.08229  0.074858  0  1.007443  0
H  H56  1  0.54766071  0.10962478  0.85949810  1  0  0.08049  0.067841  0  1.018937  0
H  H57  1  0.45234500  0.89036735  0.14050253  1  0  0.080487  0.067848  0  1.018983  0
H  H58  1  0.74305176  0.41668965  0.87083037  1  0  0.100704  0.096524  0  1.034207  0
H  H59  1  0.25694579  0.58331197  0.12917321  1  0  0.100719  0.096557  0  1.034176  0
C  C60  1  0.36277247  0.92160204  0.74364536  1  0  -0.067765  -0.019858  0  3.906258  0
C  C61  1  0.63722653  0.07840197  0.25635148  1  0  -0.067768  -0.019916  0  3.906389  0
C  C62  1  0.50434442  0.61219408  0.65586248  1  0  -0.066415  -0.012761  0  3.903899  0
C  C63  1  0.49565172  0.38780515  0.34414111  1  0  -0.066359  -0.012638  0  3.903792  0
C  C64  1  0.41836772  0.75708107  0.57250040  1  0  -0.06496  -0.019023  0  3.901816  0
C  C65  1  0.58163077  0.24291579  0.42750090  1  0  -0.064958  -0.019069  0  3.901725  0
C  C66  1  0.44379205  0.77570625  0.82733320  1  0  -0.070214  -0.018912  0  3.914594  0
C  C67  1  0.55620459  0.22430013  0.17266593  1  0  -0.070215  -0.018812  0  3.914491  0
C  C68  1  0.66103007  0.15047024  0.79496872  1  0  -0.134889  -0.206181  0  3.976893  0
C  C69  1  0.33897400  0.84952546  0.20503180  1  0  -0.134898  -0.206215  0  3.976978  0
C  C70  1  0.13806416  0.46148077  0.76018722  1  0  -0.13292  -0.210542  0  3.979666  0
C  C71  1  0.86193449  0.53851847  0.23981547  1  0  -0.132968  -0.210609  0  3.979665  0
C  C72  1  0.86101990  0.41967252  0.88162586  1  0  -0.135986  -0.217861  0  3.987529  0
C  C73  1  0.13897694  0.58032790  0.11837725  1  0  -0.136038  -0.217967  0  3.987609  0
C  C74  1  0.87674773  0.93200438  0.87555046  1  0  -0.139383  -0.223086  0  3.992343  0
C  C75  1  0.12326140  0.06799135  0.12444250  1  0  -0.139341  -0.223044  0  3.992456  0
N  N76  1  0.98506463  0.45295818  0.74349866  1  0  -0.458352  -0.255604  0  3.605689  0
N  N77  1  0.01493167  0.54704343  0.25650440  1  0  -0.458341  -0.255627  0  3.605821  0
N  N78  1  0.83964049  0.01812892  0.75014261  1  0  -0.449244  -0.255672  0  3.5911  0
N  N79  1  0.16036360  0.98186678  0.24985502  1  0  -0.449259  -0.255728  0  3.590938  0
O  O80  1  0.58405334  0.65003886  0.73274690  1  0  -0.26366  -0.272315  0  2.523476  0
O  O81  1  0.41594169  0.34996275  0.26725853  1  0  -0.263664  -0.272297  0  2.523359  0
O  O82  1  0.28313371  0.88625400  0.66459964  1  0  -0.260504  -0.276095  0  2.52827  0
O  O83  1  0.71686567  0.11374644  0.33539872  1  0  -0.260516  -0.276094  0  2.528283  0
