# generated using pymatgen
data_AlH12C27(BrO2)3
_symmetry_space_group_name_H-M   'P 1'
_cell_length_a   4.03087862
_cell_length_b   27.79608914
_cell_length_c   27.83290024
_cell_angle_alpha   60.10307524
_cell_angle_beta   91.08519115
_cell_angle_gamma   90.32485608
_symmetry_Int_Tables_number   1
_chemical_formula_structural   AlH12C27(BrO2)3
_chemical_formula_sum   'Al3 H36 C81 Br9 O18'
_cell_volume   2702.96639784
_cell_formula_units_Z   3
loop_
 _symmetry_equiv_pos_site_id
 _symmetry_equiv_pos_as_xyz
  1  'x, y, z'
loop_
 _atom_site_type_symbol
 _atom_site_label
 _atom_site_symmetry_multiplicity
 _atom_site_fract_x
 _atom_site_fract_y
 _atom_site_fract_z
 _atom_site_occupancy
 _atom_site_pbe_bader_charge
 _atom_site_pbe_bader_spin_density
 _atom_site_pbe_cm5_charge
 _atom_site_pbe_ddec_charge
 _atom_site_pbe_ddec_spin_density
 _atom_site_pbe_ddec_sum_bond_order
 _atom_site_pbe_magmom
Al  Al0  1  0.00388790  0.49921150  0.50036014  1  2.508217  0  0.429179  1.616312  0  2.550109  0
Al  Al1  1  0.94365428  0.83266863  0.83296710  1  2.504228  0  0.426597  1.613235  0  2.545902  0
Al  Al2  1  0.05293395  0.16603531  0.16728732  1  2.503891  0  0.426512  1.614859  0  2.544043  0
H  H3  1  0.52165424  0.07670090  0.92182096  1  0.06195  0  0.099752  0.09887  0  1.030018  0
H  H4  1  0.50547857  0.25496434  0.83451173  1  0.051843  0  0.100438  0.100495  0  1.024069  0
H  H5  1  0.51762666  0.16732547  0.74375983  1  0.045021  0  0.100184  0.09977  0  1.024557  0
H  H6  1  0.72116893  0.92632928  0.90833651  1  0.082688  0  0.111355  0.1183  0  0.97317  0
H  H7  1  0.76240635  0.01420867  0.90986736  1  0.038594  0  0.101985  0.1031  0  1.0049  0
H  H8  1  0.22318850  0.09784858  0.75375891  1  0.085005  0  0.101832  0.113748  0  1.010066  0
H  H9  1  0.28836527  0.08605241  0.98379277  1  0.084597  0  0.101709  0.113307  0  1.011053  0
H  H10  1  0.79299490  0.24307381  0.99565613  1  0.10292  0  0.110904  0.117039  0  0.973684  0
H  H11  1  0.79768648  0.24329982  0.90682134  1  0.042644  0  0.102251  0.103324  0  1.004974  0
H  H12  1  0.78615907  0.31426191  0.76461445  1  0.071736  0  0.099786  0.111128  0  1.016581  0
H  H13  1  0.22944114  0.33307420  0.59618198  1  0.090649  0  0.111756  0.118841  0  0.982916  0
H  H14  1  0.22572945  0.24201511  0.68293757  1  0.055259  0  0.101564  0.103516  0  1.004217  0
H  H15  1  0.49607122  0.49935260  0.07805905  1  0.051271  0  0.099699  0.098543  0  1.02899  0
H  H16  1  0.51776807  0.58947199  0.16637386  1  0.044127  0  0.100504  0.100618  0  1.024266  0
H  H17  1  0.50241082  0.41122870  0.25616674  1  0.062151  0  0.10031  0.100602  0  1.023879  0
H  H18  1  0.28609989  0.33641303  0.08985951  1  0.083961  0  0.110468  0.116906  0  0.974805  0
H  H19  1  0.25076393  0.42535121  0.08927331  1  0.072073  0  0.102058  0.102978  0  1.005372  0
H  H20  1  0.78389671  0.35167285  0.24604104  1  0.072804  0  0.101755  0.11361  0  1.010172  0
H  H21  1  0.73442533  0.57140677  0.01654625  1  0.076379  0  0.101773  0.113765  0  1.009904  0
H  H22  1  0.20873578  0.73767191  0.00535570  1  0.09142  0  0.109888  0.116041  0  0.975153  0
H  H23  1  0.21484158  0.64923763  0.09427425  1  0.060078  0  0.101862  0.102739  0  1.004924  0
H  H24  1  0.23381140  0.57766137  0.23628977  1  0.079109  0  0.099584  0.110827  0  1.017189  0
H  H25  1  0.78717261  0.42866196  0.40468919  1  0.096993  0  0.111088  0.117988  0  0.984153  0
H  H26  1  0.79888516  0.42527550  0.31739195  1  0.068368  0  0.101369  0.103346  0  1.003946  0
H  H27  1  0.49994436  0.92194066  0.50039360  1  0.053909  0  0.099689  0.098844  0  1.029921  0
H  H28  1  0.47252519  0.83364553  0.41029812  1  0.041819  0  0.100695  0.100502  0  1.024444  0
H  H29  1  0.48712308  0.74365686  0.58835277  1  0.072404  0  0.10005  0.099783  0  1.025193  0
H  H30  1  0.69861537  0.90914751  0.66450443  1  0.077089  0  0.109782  0.117255  0  0.976521  0
H  H31  1  0.73300318  0.91038962  0.57541675  1  0.084169  0  0.102209  0.102936  0  1.004812  0
H  H32  1  0.21444079  0.75406785  0.64694034  1  0.055893  0  0.101484  0.113222  0  1.011078  0
H  H33  1  0.27326412  0.98502111  0.42770402  1  0.08116  0  0.102116  0.114245  0  1.009045  0
H  H34  1  0.78881682  0.99317814  0.26341076  1  0.056872  0  0.110271  0.117261  0  0.974344  0
H  H35  1  0.77517965  0.90398702  0.35151515  1  0.087555  0  0.102302  0.103273  0  1.004617  0
H  H36  1  0.75339714  0.76372196  0.42240769  1  0.065112  0  0.099382  0.110393  0  1.018699  0
H  H37  1  0.22182879  0.59516425  0.56988929  1  0.101138  0  0.110578  0.118146  0  0.986471  0
H  H38  1  0.20348212  0.68218143  0.57395235  1  0.071632  0  0.101852  0.104288  0  1.002341  0
C  C39  1  0.50215328  0.57450441  0.49761488  1  1.579596  0  0.273325  0.666026  0  4.049246  0
C  C40  1  0.50829135  0.42694400  0.57552039  1  1.585399  0  0.273002  0.661879  0  4.060105  0
C  C41  1  0.49993734  0.50050239  0.42590072  1  1.581312  0  0.272775  0.664532  0  4.055158  0
C  C42  1  0.44520271  0.90800086  0.83040945  1  1.630875  0  0.27827  0.67569  0  4.062356  0
C  C43  1  0.45307717  0.75926539  0.90725094  1  1.61127  0  0.278189  0.675935  0  4.054909  0
C  C44  1  0.43666196  0.83060586  0.76032333  1  1.611199  0  0.278371  0.677232  0  4.046832  0
C  C45  1  0.54496187  0.16546515  0.09358008  1  1.606531  0  0.27817  0.675399  0  4.06218  0
C  C46  1  0.55583463  0.23978895  0.16777355  1  1.605027  0  0.279068  0.677283  0  4.053965  0
C  C47  1  0.55560376  0.09295759  0.24140598  1  1.62083  0  0.279358  0.680114  0  4.043995  0
C  C48  1  0.52628079  0.16579699  0.88447827  1  0.01805  0  -0.005817  0.081959  0  4.014911  0
C  C49  1  0.51900990  0.11609941  0.88301002  1  -0.065598  0  -0.087454  -0.173833  0  3.924167  0
C  C50  1  0.50690515  0.11583129  0.83278609  1  -0.021035  0  -0.006341  0.081912  0  4.013878  0
C  C51  1  0.50944745  0.16684820  0.78311281  1  -0.027544  0  -0.087774  -0.175578  0  3.92486  0
C  C52  1  0.51321730  0.21729644  0.78306274  1  0.028737  0  -0.006183  0.081565  0  4.014552  0
C  C53  1  0.51819844  0.21602976  0.83408980  1  -0.053521  0  -0.087332  -0.174765  0  3.923236  0
C  C54  1  0.61049086  0.96412250  0.87467334  1  0.017613  0  -0.081741  -0.082345  0  3.978469  0
C  C55  1  0.63038101  0.01362686  0.87562032  1  -0.046306  0  -0.091348  -0.134522  0  3.98889  0
C  C56  1  0.49294490  0.06289916  0.83220681  1  0.056415  0  -0.005675  0.079901  0  3.997058  0
C  C57  1  0.34040419  0.06091382  0.78746538  1  0.002253  0  -0.096497  -0.18609  0  3.973505  0
C  C58  1  0.32982262  0.01156733  0.78604069  1  -0.099263  0  -0.012203  0.093523  0  3.972867  0
C  C59  1  0.45889485  0.96225023  0.82990378  1  -0.058314  0  -0.01423  -0.081391  0  3.951525  0
C  C60  1  0.40586009  0.12043129  0.98571864  1  -0.051083  0  -0.096202  -0.18501  0  3.974414  0
C  C61  1  0.41668039  0.11967691  0.03609932  1  -0.041975  0  -0.011368  0.09336  0  3.972294  0
C  C62  1  0.54506652  0.16440942  0.04015703  1  0.01465  0  -0.014877  -0.081203  0  3.95059  0
C  C63  1  0.67997419  0.20892128  0.99263543  1  -0.031259  0  -0.081585  -0.08143  0  3.978983  0
C  C64  1  0.67912470  0.20917047  0.94250877  1  -0.043677  0  -0.091373  -0.135333  0  3.986628  0
C  C65  1  0.53647307  0.16532388  0.93789227  1  0.031515  0  -0.00593  0.080532  0  3.995178  0
C  C66  1  0.66088747  0.31762930  0.72805513  1  0.047338  0  -0.098643  -0.193412  0  3.975675  0
C  C67  1  0.66050418  0.36868974  0.67919737  1  -0.10656  0  -0.005498  0.110077  0  3.937276  0
C  C68  1  0.51034816  0.37479521  0.63037998  1  0.017622  0  -0.016062  -0.093072  0  3.933412  0
C  C69  1  0.35501587  0.32788914  0.63349272  1  -0.011938  0  -0.07761  -0.068243  0  3.970677  0
C  C70  1  0.35607816  0.27690328  0.68203922  1  0.035639  0  -0.093816  -0.14196  0  3.990346  0
C  C71  1  0.51094025  0.27082918  0.73046195  1  -0.106024  0  -0.001462  0.090503  0  3.990719  0
C  C72  1  0.49513492  0.55063936  0.11598595  1  0.01754  0  -0.006217  0.081179  0  4.0175  0
C  C73  1  0.50029116  0.49969309  0.11703661  1  -0.058228  0  -0.08761  -0.173073  0  3.923865  0
C  C74  1  0.51113151  0.44911898  0.16703461  1  0.012602  0  -0.006067  0.082392  0  4.014611  0
C  C75  1  0.51153963  0.45014386  0.21692419  1  -0.060037  0  -0.087516  -0.176144  0  3.924915  0
C  C76  1  0.51033698  0.50034046  0.21733610  1  -0.018637  0  -0.006565  0.080438  0  4.015403  0
C  C77  1  0.50521035  0.55022799  0.16652948  1  -0.022337  0  -0.08737  -0.174253  0  3.923982  0
C  C78  1  0.39764716  0.34021347  0.12380897  1  -0.00906  0  -0.082917  -0.083815  0  3.983374  0
C  C79  1  0.38092476  0.39040536  0.12338231  1  -0.009426  0  -0.091998  -0.135382  0  3.989129  0
C  C80  1  0.51922254  0.39585869  0.16716997  1  -0.020553  0  -0.005335  0.080712  0  3.997562  0
C  C81  1  0.66736021  0.34894706  0.21186631  1  -0.003603  0  -0.096709  -0.185191  0  3.975864  0
C  C82  1  0.67419158  0.29843823  0.21281675  1  -0.100501  0  -0.012255  0.091317  0  3.97695  0
C  C83  1  0.54665115  0.29344991  0.16842083  1  0.021922  0  -0.014098  -0.080086  0  3.950496  0
C  C84  1  0.61236990  0.60712766  0.01475322  1  0.022597  0  -0.096295  -0.183784  0  3.974071  0
C  C85  1  0.59429026  0.65650422  0.96430049  1  -0.122468  0  -0.012436  0.091044  0  3.973529  0
C  C86  1  0.46015807  0.70465108  0.96047193  1  0.041252  0  -0.01394  -0.079133  0  3.946935  0
C  C87  1  0.32677622  0.70107721  0.00827975  1  -0.068158  0  -0.082316  -0.083742  0  3.982561  0
C  C88  1  0.33382348  0.65132213  0.05844304  1  -0.013656  0  -0.092081  -0.135294  0  3.988149  0
C  C89  1  0.48212465  0.60361503  0.06277373  1  -0.00689  0  -0.005323  0.080143  0  3.997493  0
C  C90  1  0.35902024  0.54467072  0.27280587  1  -0.009936  0  -0.098369  -0.192588  0  3.976024  0
C  C91  1  0.35508339  0.54644980  0.32190135  1  -0.058608  0  -0.005879  0.108842  0  3.939183  0
C  C92  1  0.50357238  0.50380989  0.37077717  1  -0.035393  0  -0.016216  -0.0949  0  3.932635  0
C  C93  1  0.66225667  0.46066006  0.36739679  1  0.068432  0  -0.077899  -0.068795  0  3.974012  0
C  C94  1  0.66579573  0.45870179  0.31855659  1  -0.097872  0  -0.093849  -0.142177  0  3.990971  0
C  C95  1  0.51171391  0.50087322  0.27015236  1  0.014643  0  -0.00182  0.091405  0  3.990247  0
C  C96  1  0.49868256  0.88394546  0.44918350  1  0.005166  0  -0.006184  0.081156  0  4.017882  0
C  C97  1  0.49328121  0.88293040  0.50005338  1  -0.014931  0  -0.086887  -0.172621  0  3.923028  0
C  C98  1  0.48019946  0.83294199  0.55052187  1  -0.016705  0  -0.006055  0.08211  0  4.014459  0
C  C99  1  0.47865579  0.78299224  0.54946299  1  -0.064784  0  -0.087479  -0.175035  0  3.924408  0
C  C100  1  0.48018779  0.78255131  0.49935544  1  -0.031937  0  -0.006412  0.079859  0  4.016391  0
C  C101  1  0.48578058  0.83340809  0.44954927  1  -0.027811  0  -0.087589  -0.174064  0  3.924178  0
C  C102  1  0.59074035  0.87541098  0.66016481  1  0.004064  0  -0.081274  -0.080877  0  3.973171  0
C  C103  1  0.60666729  0.87617696  0.60988312  1  -0.041999  0  -0.091735  -0.134274  0  3.985065  0
C  C104  1  0.47217140  0.83269241  0.60378209  1  0.016514  0  -0.005638  0.079436  0  3.998039  0
C  C105  1  0.32829061  0.78797211  0.65017321  1  0.041522  0  -0.096519  -0.184259  0  3.97715  0
C  C106  1  0.32308043  0.78659781  0.70078881  1  -0.175207  0  -0.012482  0.090607  0  3.978493  0
C  C107  1  0.44699984  0.83065235  0.70642299  1  0.047542  0  -0.013755  -0.078815  0  3.94773  0
C  C108  1  0.39453361  0.98608026  0.39256847  1  -0.010777  0  -0.096628  -0.184106  0  3.974126  0
C  C109  1  0.41862175  0.03659156  0.34356768  1  -0.108936  0  -0.01191  0.092736  0  3.97076  0
C  C110  1  0.55089695  0.03976927  0.29594639  1  0.054762  0  -0.013799  -0.080474  0  3.944713  0
C  C111  1  0.67538770  0.99100717  0.29970751  1  -0.006052  0  -0.081657  -0.081164  0  3.974139  0
C  C112  1  0.66329757  0.94069358  0.34923833  1  -0.06107  0  -0.091721  -0.135409  0  3.985313  0
C  C113  1  0.51727358  0.93716011  0.39638561  1  -0.004779  0  -0.00561  0.080043  0  3.999595  0
C  C114  1  0.63249414  0.72720038  0.45502148  1  0.011354  0  -0.098403  -0.193274  0  3.979297  0
C  C115  1  0.63949556  0.67829395  0.45280645  1  -0.041201  0  -0.00607  0.109689  0  3.940899  0
C  C116  1  0.49692935  0.62939449  0.49496080  1  0.02345  0  -0.016395  -0.096129  0  3.935543  0
C  C117  1  0.34151426  0.63253993  0.53818220  1  -0.082012  0  -0.076637  -0.066419  0  3.968498  0
C  C118  1  0.33439152  0.68124012  0.54050897  1  -0.036716  0  -0.094353  -0.142342  0  3.989031  0
C  C119  1  0.48185464  0.72972976  0.49871233  1  0.005959  0  -0.001013  0.09219  0  3.99047  0
Br  Br120  1  0.13877050  0.01278626  0.72244864  1  -0.052222  0  0.030052  -0.054187  0  1.481913  0
Br  Br121  1  0.25284558  0.05601428  0.09981287  1  -0.050856  0  0.031036  -0.052882  0  1.486992  0
Br  Br122  1  0.85447546  0.42848424  0.68458960  1  -0.04114  0  0.02614  -0.059075  0  1.491273  0
Br  Br123  1  0.85612053  0.23576313  0.27648369  1  -0.04357  0  0.032886  -0.048391  0  1.603667  0
Br  Br124  1  0.75120902  0.65673400  0.90034980  1  -0.038999  0  0.032562  -0.050184  0  1.601396  0
Br  Br125  1  0.15818476  0.61086418  0.31676817  1  -0.039214  0  0.029167  -0.054575  0  1.588266  0
Br  Br126  1  0.14786060  0.72274140  0.76279353  1  -0.043245  0  0.031173  -0.05036  0  1.584141  0
Br  Br127  1  0.27021492  0.10148184  0.34313206  1  -0.048394  0  0.029558  -0.053962  0  1.611241  0
Br  Br128  1  0.83244853  0.68383804  0.38843475  1  -0.041115  0  0.027527  -0.056691  0  1.587117  0
O  O129  1  0.73366046  0.47305700  0.46045757  1  -1.262251  0  -0.24311  -0.600315  0  2.341616  0
O  O130  1  0.73703069  0.56446984  0.47397007  1  -1.249473  0  -0.235297  -0.595438  0  2.44289  0
O  O131  1  0.74602223  0.46072260  0.56540155  1  -1.245771  0  -0.234864  -0.597981  0  2.449691  0
O  O132  1  0.26132865  0.52393431  0.43561805  1  -1.252405  0  -0.233048  -0.595452  0  2.453916  0
O  O133  1  0.27075912  0.43345270  0.54169715  1  -1.250968  0  -0.240737  -0.597151  0  2.347938  0
O  O134  1  0.27189315  0.54035342  0.52481573  1  -1.255473  0  -0.240965  -0.599687  0  2.358432  0
O  O135  1  0.67173909  0.80587274  0.79499774  1  -1.255234  0  -0.233765  -0.605509  0  2.440589  0
O  O136  1  0.67512324  0.89791389  0.80613761  1  -1.251688  0  -0.233358  -0.601968  0  2.421593  0
O  O137  1  0.68750550  0.79320430  0.89970060  1  -1.254055  0  -0.239364  -0.591153  0  2.319346  0
O  O138  1  0.19738039  0.85631011  0.76695908  1  -1.247237  0  -0.232611  -0.586524  0  2.352544  0
O  O139  1  0.21058497  0.76824245  0.87412936  1  -1.250809  0  -0.228352  -0.597133  0  2.447848  0
O  O140  1  0.20808637  0.87538664  0.85648920  1  -1.252236  0  -0.234345  -0.58834  0  2.335024  0
O  O141  1  0.79509575  0.12598405  0.23241260  1  -1.252894  0  -0.230119  -0.596514  0  2.436575  0
O  O142  1  0.78339826  0.14099279  0.12749647  1  -1.257231  0  -0.232388  -0.602805  0  2.4328  0
O  O143  1  0.79067921  0.23278274  0.14183714  1  -1.251179  0  -0.236823  -0.589286  0  2.325273  0
O  O144  1  0.31811362  0.10040063  0.20744089  1  -1.253327  0  -0.236923  -0.595391  0  2.359997  0
O  O145  1  0.32330790  0.20569725  0.19215570  1  -1.253415  0  -0.231143  -0.602899  0  2.44585  0
O  O146  1  0.30912926  0.19151544  0.10057443  1  -1.249144  0  -0.235679  -0.587018  0  2.324648  0
