# generated using pymatgen
data_HoH6(C2O3)3
_symmetry_space_group_name_H-M   'P 1'
_cell_length_a   6.52917035
_cell_length_b   10.20128170
_cell_length_c   13.37073897
_cell_angle_alpha   89.99999506
_cell_angle_beta   89.99933495
_cell_angle_gamma   89.99998612
_symmetry_Int_Tables_number   1
_chemical_formula_structural   HoH6(C2O3)3
_chemical_formula_sum   'Ho4 H24 C24 O36'
_cell_volume   890.57018307
_cell_formula_units_Z   4
loop_
 _symmetry_equiv_pos_site_id
 _symmetry_equiv_pos_as_xyz
  1  'x, y, z'
loop_
 _atom_site_type_symbol
 _atom_site_label
 _atom_site_symmetry_multiplicity
 _atom_site_fract_x
 _atom_site_fract_y
 _atom_site_fract_z
 _atom_site_occupancy
 _atom_site_hle17_bader_spin_density
 _atom_site_hle17_ddec_charge
 _atom_site_hle17_ddec_spin_density
 _atom_site_hle17_ddec_sum_bond_order
 _atom_site_hle17_magmom
 _atom_site_hse06_10hf_bader_spin_density
 _atom_site_hse06_10hf_ddec_charge
 _atom_site_hse06_10hf_ddec_spin_density
 _atom_site_hse06_10hf_ddec_sum_bond_order
 _atom_site_hse06_10hf_magmom
 _atom_site_hse06_bader_spin_density
 _atom_site_hse06_ddec_charge
 _atom_site_hse06_ddec_spin_density
 _atom_site_hse06_ddec_sum_bond_order
 _atom_site_hse06_magmom
 _atom_site_pbe_bader_spin_density
 _atom_site_pbe_cm5_charge
 _atom_site_pbe_ddec_charge
 _atom_site_pbe_ddec_spin_density
 _atom_site_pbe_ddec_sum_bond_order
 _atom_site_pbe_magmom
Ho  Ho0  1  0.12917312  0.99999981  0.19945155  1  0  2.292524  0  1.553086  0  0  2.222302  0  1.868895  0  0  2.269358  0  1.828677  0  0  1.501853  2.104859  0  2.055231  0
Ho  Ho1  1  0.87082698  0.00000086  0.80054791  1  0  2.292588  0  1.553057  0  0  2.22237  0  1.868862  0  0  2.269423  0  1.828644  0  0  1.501832  2.104899  0  2.055209  0
Ho  Ho2  1  0.62918500  0.49999985  0.30054704  1  0  2.292542  0  1.553005  0  0  2.222358  0  1.868787  0  0  2.269409  0  1.828572  0  0  1.501877  2.104939  0  2.055066  0
Ho  Ho3  1  0.37081510  0.50000083  0.69945242  1  0  2.29252  0  1.553092  0  0  2.222302  0  1.86889  0  0  2.26936  0  1.828672  0  0  1.50182  2.104877  0  2.055192  0
H  H4  1  0.97516564  0.18816155  0.34898618  1  0  0.454784  0  0.83358  0  0  0.425322  0  0.893246  0  0  0.436556  0  0.87677  0  0  0.304161  0.416685  0  0.905772  0
H  H5  1  0.02483150  0.18815965  0.65101405  1  0  0.454807  0  0.833559  0  0  0.425293  0  0.893286  0  0  0.436527  0  0.87681  0  0  0.304137  0.416658  0  0.905807  0
H  H6  1  0.47517490  0.31184312  0.15101573  1  0  0.454722  0  0.833672  0  0  0.425234  0  0.893359  0  0  0.436466  0  0.876886  0  0  0.30416  0.4166  0  0.905877  0
H  H7  1  0.52482220  0.31184112  0.84898449  1  0  0.454733  0  0.833664  0  0  0.425248  0  0.893343  0  0  0.436481  0  0.876869  0  0  0.304172  0.416608  0  0.905871  0
H  H8  1  0.02483292  0.81184207  0.65101403  1  0  0.454808  0  0.833566  0  0  0.425302  0  0.893275  0  0  0.436536  0  0.876799  0  0  0.304139  0.41667  0  0.90579  0
H  H9  1  0.97516706  0.81184004  0.34898616  1  0  0.454766  0  0.833607  0  0  0.425236  0  0.893356  0  0  0.43647  0  0.876881  0  0  0.304141  0.416605  0  0.905869  0
H  H10  1  0.52482366  0.68815559  0.84898523  1  0  0.454837  0  0.833525  0  0  0.425312  0  0.89326  0  0  0.436544  0  0.876787  0  0  0.304183  0.416677  0  0.905778  0
H  H11  1  0.47517330  0.68815858  0.15101497  1  0  0.454721  0  0.833675  0  0  0.425231  0  0.893361  0  0  0.436465  0  0.876887  0  0  0.304151  0.4166  0  0.905874  0
H  H12  1  0.21174556  0.22464330  0.34570953  1  0  0.445316  0  0.843062  0  0  0.418445  0  0.898483  0  0  0.428202  0  0.884302  0  0  0.304613  0.410697  0  0.90962  0
H  H13  1  0.78825311  0.22464226  0.65428920  1  0  0.445364  0  0.843004  0  0  0.41848  0  0.898447  0  0  0.428239  0  0.884263  0  0  0.304612  0.410733  0  0.909579  0
H  H14  1  0.71175010  0.27535455  0.15428788  1  0  0.445353  0  0.843028  0  0  0.418485  0  0.898441  0  0  0.428244  0  0.884257  0  0  0.304628  0.41074  0  0.909571  0
H  H15  1  0.28824548  0.27535650  0.84571234  1  0  0.44544  0  0.842911  0  0  0.418562  0  0.89834  0  0  0.428319  0  0.884157  0  0  0.304673  0.410813  0  0.909474  0
H  H16  1  0.78825607  0.77536129  0.65428844  1  0  0.445412  0  0.842944  0  0  0.418518  0  0.898403  0  0  0.428276  0  0.88422  0  0  0.304614  0.410769  0  0.90954  0
H  H17  1  0.21174699  0.77535940  0.34571026  1  0  0.445338  0  0.843039  0  0  0.418455  0  0.89848  0  0  0.428212  0  0.884298  0  0  0.304604  0.410707  0  0.909614  0
H  H18  1  0.28824846  0.72464221  0.84571382  1  0  0.445395  0  0.842969  0  0  0.41852  0  0.898392  0  0  0.428277  0  0.884211  0  0  0.304632  0.410777  0  0.909518  0
H  H19  1  0.71175155  0.72464417  0.15428712  1  0  0.445429  0  0.842934  0  0  0.418554  0  0.898355  0  0  0.428312  0  0.884171  0  0  0.304663  0.41081  0  0.909483  0
H  H20  1  0.22671076  0.07588157  0.98588279  1  0  0.44746  0  0.835085  0  0  0.421382  0  0.891596  0  0  0.430933  0  0.877433  0  0  0.314751  0.414193  0  0.901926  0
H  H21  1  0.77329102  0.07588256  0.01411895  1  0  0.447555  0  0.834977  0  0  0.421474  0  0.891473  0  0  0.431024  0  0.877311  0  0  0.314777  0.414279  0  0.901814  0
H  H22  1  0.72671093  0.42411721  0.51411686  1  0  0.447495  0  0.835033  0  0  0.421433  0  0.891512  0  0  0.430982  0  0.877351  0  0  0.314796  0.414242  0  0.90185  0
H  H23  1  0.27328766  0.42411626  0.48588111  1  0  0.447444  0  0.835091  0  0  0.421377  0  0.891589  0  0  0.430926  0  0.87743  0  0  0.314777  0.414188  0  0.901923  0
H  H24  1  0.77328934  0.92411421  0.01411817  1  0  0.447621  0  0.834868  0  0  0.421521  0  0.891418  0  0  0.431072  0  0.877255  0  0  0.314778  0.414325  0  0.901762  0
H  H25  1  0.22671061  0.92411420  0.98588126  1  0  0.447497  0  0.835029  0  0  0.421408  0  0.891565  0  0  0.430959  0  0.877403  0  0  0.314754  0.414217  0  0.901901  0
H  H26  1  0.27328763  0.57588445  0.48588110  1  0  0.447531  0  0.834978  0  0  0.421451  0  0.891495  0  0  0.431  0  0.877335  0  0  0.314798  0.414259  0  0.901834  0
H  H27  1  0.72671091  0.57588539  0.51411910  1  0  0.447513  0  0.835009  0  0  0.421433  0  0.891523  0  0  0.430981  0  0.877365  0  0  0.314783  0.414242  0  0.901859  0
C  C28  1  0.62142771  0.99999993  0.29048929  1  0  0.752073  0  3.844716  0  0  0.70765  0  4.137082  0  0  0.742179  0  4.125178  0  0  0.24762  0.682379  0  4.143183  0
C  C29  1  0.37857103  0.00000091  0.70951020  1  0  0.752182  0  3.844733  0  0  0.707828  0  4.136986  0  0  0.742355  0  4.125079  0  0  0.247675  0.682532  0  4.143125  0
C  C30  1  0.12144470  0.49999891  0.20950863  1  0  0.752106  0  3.844419  0  0  0.707682  0  4.136871  0  0  0.742206  0  4.124995  0  0  0.247708  0.682402  0  4.143017  0
C  C31  1  0.87855693  0.50000078  0.79049233  1  0  0.7522  0  3.844268  0  0  0.707701  0  4.136806  0  0  0.742239  0  4.124946  0  0  0.247709  0.682447  0  4.142881  0
C  C32  1  0.57320434  0.00000189  0.40109513  1  0  -0.056301  0  3.656425  0  0  -0.056152  0  3.898765  0  0  -0.056672  0  3.912963  0  0  0.013049  -0.056806  0  3.891509  0
C  C33  1  0.42679900  0.00000091  0.59890511  1  0  -0.056264  0  3.656392  0  0  -0.056145  0  3.898735  0  0  -0.056667  0  3.912935  0  0  0.013061  -0.056796  0  3.891481  0
C  C34  1  0.07321477  0.49999892  0.09890157  1  0  -0.056289  0  3.656444  0  0  -0.056088  0  3.898776  0  0  -0.056638  0  3.91302  0  0  0.013075  -0.056758  0  3.89154  0
C  C35  1  0.92678226  0.49999979  0.90109865  1  0  -0.056376  0  3.656479  0  0  -0.05608  0  3.898727  0  0  -0.056708  0  3.913089  0  0  0.013035  -0.056745  0  3.891455  0
C  C36  1  0.53743042  0.11857327  0.45082622  1  0  -0.050321  0  3.679569  0  0  -0.0491  0  3.925989  0  0  -0.051106  0  3.941516  0  0  0.005559  -0.048771  0  3.917783  0
C  C37  1  0.46256828  0.11857229  0.54917477  1  0  -0.05025  0  3.679529  0  0  -0.049111  0  3.926058  0  0  -0.051117  0  3.941588  0  0  0.005524  -0.048773  0  3.917839  0
C  C38  1  0.03743595  0.38142854  0.04917293  1  0  -0.050213  0  3.679528  0  0  -0.049079  0  3.926106  0  0  -0.051071  0  3.941631  0  0  0.005557  -0.048739  0  3.917886  0
C  C39  1  0.96255500  0.38142939  0.95082804  1  0  -0.050252  0  3.679537  0  0  -0.049181  0  3.926097  0  0  -0.051155  0  3.94165  0  0  0.005522  -0.048838  0  3.917862  0
C  C40  1  0.46257121  0.88143035  0.54917325  1  0  -0.050268  0  3.679566  0  0  -0.049078  0  3.926026  0  0  -0.051082  0  3.941551  0  0  0.005588  -0.04874  0  3.917816  0
C  C41  1  0.53743488  0.88143035  0.45082469  1  0  -0.050185  0  3.679475  0  0  -0.049065  0  3.926039  0  0  -0.051072  0  3.941569  0  0  0.00556  -0.048732  0  3.91782  0
C  C42  1  0.96255802  0.61857018  0.95082878  1  0  -0.05016  0  3.679518  0  0  -0.049088  0  3.926105  0  0  -0.051064  0  3.941666  0  0  0.005576  -0.048738  0  3.917857  0
C  C43  1  0.03744051  0.61856933  0.04917292  1  0  -0.050243  0  3.679519  0  0  -0.049146  0  3.926148  0  0  -0.051139  0  3.941676  0  0  0.005521  -0.048808  0  3.917923  0
C  C44  1  0.57375570  0.24597196  0.39823141  1  0  0.655835  0  3.909176  0  0  0.601212  0  4.217489  0  0  0.633884  0  4.209437  0  0  0.212823  0.579603  0  4.215194  0
C  C45  1  0.42624449  0.24597000  0.60176882  1  0  0.65591  0  3.909028  0  0  0.601248  0  4.217414  0  0  0.633918  0  4.209365  0  0  0.21287  0.579645  0  4.2151  0
C  C46  1  0.07375850  0.25403179  0.10176903  1  0  0.655838  0  3.909006  0  0  0.601208  0  4.21738  0  0  0.633879  0  4.209328  0  0  0.212845  0.579589  0  4.215095  0
C  C47  1  0.92623556  0.25403168  0.89823045  1  0  0.655906  0  3.908881  0  0  0.601341  0  4.21716  0  0  0.634015  0  4.209101  0  0  0.212922  0.579731  0  4.214842  0
C  C48  1  0.42624440  0.75403067  0.60176656  1  0  0.655776  0  3.909185  0  0  0.601188  0  4.217421  0  0  0.63386  0  4.20937  0  0  0.212829  0.579563  0  4.215144  0
C  C49  1  0.57376021  0.75402871  0.39823139  1  0  0.655915  0  3.908947  0  0  0.601254  0  4.21735  0  0  0.633926  0  4.2093  0  0  0.212893  0.579661  0  4.215026  0
C  C50  1  0.92623701  0.74596888  0.89823268  1  0  0.655788  0  3.909245  0  0  0.601205  0  4.217547  0  0  0.633878  0  4.209492  0  0  0.212833  0.579597  0  4.215223  0
C  C51  1  0.07376147  0.74596704  0.10177051  1  0  0.65589  0  3.908978  0  0  0.601288  0  4.217309  0  0  0.63396  0  4.209254  0  0  0.212892  0.579679  0  4.215015  0
O  O52  1  0.24975095  0.99999785  0.02965132  1  0  -0.902022  0  1.898579  0  0  -0.872312  0  2.085058  0  0  -0.888974  0  2.054604  0  0  -0.633249  -0.849148  0  2.11252  0
O  O53  1  0.75025356  0.99999874  0.97035110  1  0  -0.902244  0  1.898389  0  0  -0.872561  0  2.084887  0  0  -0.889223  0  2.05443  0  0  -0.633286  -0.849385  0  2.112365  0
O  O54  1  0.74975112  0.50000179  0.47034958  1  0  -0.902099  0  1.898518  0  0  -0.872418  0  2.085052  0  0  -0.889077  0  2.054599  0  0  -0.633319  -0.849249  0  2.112522  0
O  O55  1  0.25023979  0.50000085  0.52964839  1  0  -0.902019  0  1.898492  0  0  -0.872366  0  2.085093  0  0  -0.889028  0  2.054641  0  0  -0.633294  -0.849198  0  2.112564  0
O  O56  1  0.80433490  0.99999796  0.26254417  1  0  -0.693556  0  2.100772  0  0  -0.653752  0  2.355054  0  0  -0.679288  0  2.344329  0  0  -0.389988  -0.625236  0  2.367681  0
O  O57  1  0.19566691  0.99999896  0.73745682  1  0  -0.69367  0  2.100903  0  0  -0.653869  0  2.355095  0  0  -0.679403  0  2.344363  0  0  -0.390037  -0.625344  0  2.367738  0
O  O58  1  0.30434968  0.50000184  0.23745197  1  0  -0.69339  0  2.100444  0  0  -0.653652  0  2.354741  0  0  -0.67918  0  2.344018  0  0  -0.389915  -0.625135  0  2.367388  0
O  O59  1  0.69565041  0.49999688  0.76254675  1  0  -0.693418  0  2.1004  0  0  -0.653649  0  2.354709  0  0  -0.679174  0  2.343977  0  0  -0.38992  -0.625151  0  2.367332  0
O  O60  1  0.11272245  0.15442272  0.33025293  1  0  -0.930926  0  1.859315  0  0  -0.896995  0  2.045159  0  0  -0.916073  0  2.014343  0  0  -0.651841  -0.871602  0  2.074832  0
O  O61  1  0.88727470  0.15441872  0.66974432  1  0  -0.930973  0  1.859236  0  0  -0.896999  0  2.045186  0  0  -0.916075  0  2.014364  0  0  -0.651811  -0.8716  0  2.074841  0
O  O62  1  0.61273273  0.34557612  0.16974879  1  0  -0.930924  0  1.859416  0  0  -0.896951  0  2.045298  0  0  -0.916028  0  2.01448  0  0  -0.651857  -0.871557  0  2.074957  0
O  O63  1  0.38726589  0.34557611  0.83025218  1  0  -0.931013  0  1.859302  0  0  -0.897039  0  2.045203  0  0  -0.916116  0  2.014384  0  0  -0.651917  -0.871647  0  2.074877  0
O  O64  1  0.88727611  0.84558481  0.66974280  1  0  -0.931025  0  1.859209  0  0  -0.89704  0  2.04517  0  0  -0.916119  0  2.014354  0  0  -0.651807  -0.871638  0  2.074822  0
O  O65  1  0.11272539  0.84557999  0.33025216  1  0  -0.930928  0  1.859326  0  0  -0.896911  0  2.045288  0  0  -0.915988  0  2.014469  0  0  -0.651811  -0.871521  0  2.074959  0
O  O66  1  0.38726737  0.65441965  0.83025442  1  0  -0.931052  0  1.859283  0  0  -0.897044  0  2.045235  0  0  -0.916119  0  2.014418  0  0  -0.651869  -0.871653  0  2.074885  0
O  O67  1  0.61273114  0.65442555  0.16975102  1  0  -0.931005  0  1.859293  0  0  -0.897028  0  2.045202  0  0  -0.916106  0  2.014384  0  0  -0.651897  -0.871639  0  2.074859  0
O  O68  1  0.42395269  0.32704120  0.38888605  1  0  -0.719391  0  2.048568  0  0  -0.666501  0  2.277518  0  0  -0.69076  0  2.266474  0  0  -0.344547  -0.641096  0  2.285098  0
O  O69  1  0.57604747  0.32703824  0.61111268  1  0  -0.719476  0  2.048612  0  0  -0.666571  0  2.27758  0  0  -0.690833  0  2.266537  0  0  -0.3446  -0.641171  0  2.285155  0
O  O70  1  0.92395677  0.17295956  0.11111465  1  0  -0.71946  0  2.048541  0  0  -0.666571  0  2.277509  0  0  -0.690832  0  2.266463  0  0  -0.344632  -0.641159  0  2.285087  0
O  O71  1  0.07603732  0.17295860  0.88888932  1  0  -0.719516  0  2.048531  0  0  -0.666634  0  2.277447  0  0  -0.690895  0  2.266403  0  0  -0.344683  -0.641222  0  2.285012  0
O  O72  1  0.57604894  0.67296241  0.61111042  1  0  -0.719431  0  2.048523  0  0  -0.66653  0  2.27745  0  0  -0.690788  0  2.266398  0  0  -0.34458  -0.641123  0  2.285038  0
O  O73  1  0.42395722  0.67295950  0.38888529  1  0  -0.71949  0  2.04853  0  0  -0.666562  0  2.277485  0  0  -0.690823  0  2.266441  0  0  -0.344607  -0.641162  0  2.285055  0
O  O74  1  0.07603720  0.82704014  0.88889005  1  0  -0.71947  0  2.048713  0  0  -0.666566  0  2.277635  0  0  -0.690827  0  2.266593  0  0  -0.344619  -0.641162  0  2.2852  0
O  O75  1  0.92395818  0.82703619  0.11111538  1  0  -0.719512  0  2.048602  0  0  -0.66662  0  2.277564  0  0  -0.690879  0  2.266514  0  0  -0.344617  -0.641214  0  2.285148  0
O  O76  1  0.74867420  0.27348320  0.36349761  1  0  -0.641872  0  2.02125  0  0  -0.588411  0  2.246318  0  0  -0.61303  0  2.237898  0  0  -0.313087  -0.564064  0  2.251815  0
O  O77  1  0.25132904  0.27348715  0.63650486  1  0  -0.641952  0  2.021222  0  0  -0.588398  0  2.246241  0  0  -0.613019  0  2.237823  0  0  -0.313089  -0.564057  0  2.25173  0
O  O78  1  0.24866852  0.22651563  0.13650783  1  0  -0.641917  0  2.021261  0  0  -0.58838  0  2.246253  0  0  -0.612998  0  2.237834  0  0  -0.313067  -0.564035  0  2.251756  0
O  O79  1  0.75132862  0.22651554  0.86348941  1  0  -0.641879  0  2.021237  0  0  -0.588379  0  2.246201  0  0  -0.612995  0  2.23778  0  0  -0.313063  -0.564033  0  2.251688  0
O  O80  1  0.25133049  0.72651257  0.63650186  1  0  -0.641849  0  2.021257  0  0  -0.588359  0  2.246263  0  0  -0.612977  0  2.237847  0  0  -0.313067  -0.564008  0  2.251762  0
O  O81  1  0.74867565  0.72651941  0.36349460  1  0  -0.641923  0  2.02118  0  0  -0.588389  0  2.246221  0  0  -0.613007  0  2.237802  0  0  -0.313105  -0.564056  0  2.251711  0
O  O82  1  0.75132545  0.77348113  0.86349313  1  0  -0.6419  0  2.02132  0  0  -0.588384  0  2.246299  0  0  -0.613001  0  2.237879  0  0  -0.313058  -0.564046  0  2.251786  0
O  O83  1  0.24867148  0.77348219  0.13650856  1  0  -0.641889  0  2.021261  0  0  -0.588366  0  2.246248  0  0  -0.612985  0  2.237827  0  0  -0.31308  -0.564027  0  2.25175  0
O  O84  1  0.46729838  0.99999782  0.23253703  1  0  -0.714521  0  1.985811  0  0  -0.67847  0  2.233834  0  0  -0.703837  0  2.221191  0  0  -0.40413  -0.647377  0  2.248693  0
O  O85  1  0.53270478  0.00000187  0.76746094  1  0  -0.714595  0  1.985869  0  0  -0.678564  0  2.233854  0  0  -0.703931  0  2.221211  0  0  -0.404148  -0.647455  0  2.248722  0
O  O86  1  0.96731870  0.49999982  0.26746639  1  0  -0.714723  0  1.985938  0  0  -0.678618  0  2.233909  0  0  -0.703976  0  2.221271  0  0  -0.404265  -0.647521  0  2.248776  0
O  O87  1  0.03268752  0.50000281  0.73253831  1  0  -0.714781  0  1.985915  0  0  -0.678643  0  2.233909  0  0  -0.703999  0  2.221262  0  0  -0.404267  -0.647565  0  2.248756  0
