# generated using pymatgen
data_CdH30C30N4O5
_symmetry_space_group_name_H-M   'P 1'
_cell_length_a   9.29970563
_cell_length_b   12.42996259
_cell_length_c   12.67304788
_cell_angle_alpha   90.39021025
_cell_angle_beta   105.29217193
_cell_angle_gamma   100.96105223
_symmetry_Int_Tables_number   1
_chemical_formula_structural   CdH30C30N4O5
_chemical_formula_sum   'Cd2 H60 C60 N8 O10'
_cell_volume   1384.78161754
_cell_formula_units_Z   2
loop_
 _symmetry_equiv_pos_site_id
 _symmetry_equiv_pos_as_xyz
  1  'x, y, z'
loop_
 _atom_site_type_symbol
 _atom_site_label
 _atom_site_symmetry_multiplicity
 _atom_site_fract_x
 _atom_site_fract_y
 _atom_site_fract_z
 _atom_site_occupancy
 _atom_site_hle17_bader_spin_density
 _atom_site_hle17_ddec_charge
 _atom_site_hle17_ddec_spin_density
 _atom_site_hle17_ddec_sum_bond_order
 _atom_site_hle17_magmom
 _atom_site_hse06_10hf_bader_spin_density
 _atom_site_hse06_10hf_ddec_charge
 _atom_site_hse06_10hf_ddec_spin_density
 _atom_site_hse06_10hf_ddec_sum_bond_order
 _atom_site_hse06_10hf_magmom
 _atom_site_hse06_bader_spin_density
 _atom_site_hse06_ddec_charge
 _atom_site_hse06_ddec_spin_density
 _atom_site_hse06_ddec_sum_bond_order
 _atom_site_hse06_magmom
 _atom_site_pbe_bader_spin_density
 _atom_site_pbe_cm5_charge
 _atom_site_pbe_ddec_charge
 _atom_site_pbe_ddec_spin_density
 _atom_site_pbe_ddec_sum_bond_order
 _atom_site_pbe_magmom
Cd  Cd0  1  0.75267137  0.42412248  0.12773517  1  0  1.133453  0  1.655056  0  0  0.936141  0  2.10188  0  0  0.99493  0  2.048841  0  0  0.765113  0.894159  0  2.138593  0
Cd  Cd1  1  0.24732965  0.57587713  0.87226628  1  0  1.13346  0  1.655073  0  0  0.936126  0  2.10193  0  0  0.994927  0  2.04887  0  0  0.765117  0.894143  0  2.138644  0
H  H2  1  0.63550500  0.49338945  0.90941378  1  0  0.425449  0  0.884496  0  0  0.391652  0  0.952501  0  0  0.403386  0  0.935551  0  0  0.280888  0.383344  0  0.96447  0
H  H3  1  0.36449536  0.50661180  0.09058676  1  0  0.425437  0  0.884508  0  0  0.391641  0  0.952512  0  0  0.403375  0  0.935563  0  0  0.280881  0.383333  0  0.964481  0
H  H4  1  0.82013713  0.53807823  0.93551697  1  0  0.428973  0  0.879847  0  0  0.393206  0  0.95142  0  0  0.405071  0  0.934269  0  0  0.282124  0.384766  0  0.963618  0
H  H5  1  0.17986277  0.46192138  0.06448268  1  0  0.42893  0  0.879896  0  0  0.393151  0  0.951478  0  0  0.405015  0  0.934328  0  0  0.282106  0.384714  0  0.963672  0
H  H6  1  0.80928026  0.58765050  0.33945443  1  0  0.075587  0  0.965982  0  0  0.083991  0  1.031249  0  0  0.085857  0  1.029827  0  0  0.112642  0.08258  0  1.03228  0
H  H7  1  0.19072098  0.41234994  0.66054470  1  0  0.075568  0  0.965986  0  0  0.083972  0  1.031256  0  0  0.085838  0  1.029835  0  0  0.112633  0.082561  0  1.032286  0
H  H8  1  0.96594455  0.76764392  0.42950979  1  0  0.110608  0  0.957726  0  0  0.118814  0  1.020073  0  0  0.12246  0  1.018581  0  0  0.109596  0.1162  0  1.021323  0
H  H9  1  0.03405447  0.23235651  0.57048971  1  0  0.110596  0  0.957767  0  0  0.118808  0  1.020096  0  0  0.122452  0  1.018607  0  0  0.109597  0.116194  0  1.021348  0
H  H10  1  0.21837112  0.77321267  0.18830454  1  0  0.101694  0  0.956377  0  0  0.112754  0  1.015936  0  0  0.115353  0  1.016436  0  0  0.103598  0.110873  0  1.015762  0
H  H11  1  0.78163012  0.22678777  0.81169459  1  0  0.101723  0  0.956369  0  0  0.112783  0  1.015927  0  0  0.115383  0  1.016424  0  0  0.103609  0.110902  0  1.015754  0
H  H12  1  0.04589421  0.59862806  0.10365743  1  0  0.098311  0  0.959229  0  0  0.105743  0  1.02261  0  0  0.108804  0  1.019505  0  0  0.119049  0.103456  0  1.024957  0
H  H13  1  0.95410680  0.40137155  0.89634243  1  0  0.098287  0  0.95929  0  0  0.105668  0  1.022712  0  0  0.108725  0  1.019614  0  0  0.119047  0.103384  0  1.02506  0
H  H14  1  0.32134738  0.89658567  0.36067174  1  0  0.055673  0  0.911024  0  0  0.071677  0  0.977898  0  0  0.073301  0  0.975808  0  0  0.095257  0.070442  0  0.979306  0
H  H15  1  0.67865387  0.10341476  0.63932897  1  0  0.055692  0  0.911034  0  0  0.071675  0  0.977908  0  0  0.073298  0  0.975818  0  0  0.09525  0.070437  0  0.979321  0
H  H16  1  0.16453917  0.96054981  0.31232850  1  0  0.072851  0  0.945192  0  0  0.089453  0  1.011194  0  0  0.089369  0  1.01209  0  0  0.10626  0.089828  0  1.009995  0
H  H17  1  0.83546207  0.03945062  0.68767142  1  0  0.072867  0  0.945184  0  0  0.089454  0  1.011189  0  0  0.089369  0  1.012085  0  0  0.106259  0.08983  0  1.00999  0
H  H18  1  0.39272039  0.86856315  0.56584284  1  0  0.035079  0  0.939548  0  0  0.049102  0  1.017453  0  0  0.049637  0  1.016387  0  0  0.088062  0.048334  0  1.01881  0
H  H19  1  0.60727974  0.13143728  0.43415766  1  0  0.035094  0  0.939549  0  0  0.049105  0  1.017455  0  0  0.04964  0  1.016387  0  0  0.088067  0.048338  0  1.018812  0
H  H20  1  0.22300724  0.76557616  0.52858860  1  0  0.069425  0  0.936074  0  0  0.091071  0  0.992066  0  0  0.090914  0  0.993128  0  0  0.10689  0.091103  0  0.991384  0
H  H21  1  0.77699290  0.23442427  0.47141189  1  0  0.069427  0  0.936103  0  0  0.091064  0  0.99209  0  0  0.090905  0  0.993153  0  0  0.106887  0.091096  0  0.991408  0
H  H22  1  0.11126655  0.84998993  0.65396247  1  0  0.050428  0  0.915704  0  0  0.064039  0  0.986152  0  0  0.065876  0  0.983663  0  0  0.089809  0.063138  0  0.987022  0
H  H23  1  0.88873446  0.15000968  0.34603818  1  0  0.050445  0  0.915674  0  0  0.064055  0  0.98612  0  0  0.065888  0  0.983632  0  0  0.089818  0.063156  0  0.986989  0
H  H24  1  0.28875418  0.82065662  0.72557965  1  0  0.084878  0  0.924109  0  0  0.103837  0  0.980546  0  0  0.104229  0  0.980875  0  0  0.108406  0.103594  0  0.980262  0
H  H25  1  0.71124573  0.17934299  0.27442080  1  0  0.084918  0  0.924105  0  0  0.103875  0  0.980531  0  0  0.104267  0  0.980861  0  0  0.108423  0.103633  0  0.980249  0
H  H26  1  0.28714905  0.14701168  0.65071591  1  0  0.058188  0  0.925622  0  0  0.079575  0  0.981187  0  0  0.07952  0  0.982017  0  0  0.099779  0.079641  0  0.980402  0
H  H27  1  0.71284886  0.85298875  0.34928495  1  0  0.058192  0  0.925662  0  0  0.079572  0  0.981222  0  0  0.079518  0  0.982053  0  0  0.09977  0.079638  0  0.980436  0
H  H28  1  0.10815324  0.05349575  0.61019136  1  0  0.048702  0  0.940554  0  0  0.05838  0  1.020962  0  0  0.059924  0  1.019466  0  0  0.089905  0.056431  0  1.022861  0
H  H29  1  0.89184555  0.94650385  0.38981044  1  0  0.048741  0  0.940537  0  0  0.058417  0  1.020927  0  0  0.059963  0  1.019437  0  0  0.08992  0.056468  0  1.022825  0
H  H30  1  0.20194222  0.08919984  0.45018454  1  0  0.064172  0  0.918702  0  0  0.084198  0  0.975964  0  0  0.084539  0  0.976215  0  0  0.103648  0.084532  0  0.974708  0
H  H31  1  0.79805434  0.91079977  0.54981605  1  0  0.064163  0  0.91871  0  0  0.084185  0  0.97595  0  0  0.084526  0  0.976198  0  0  0.10365  0.084517  0  0.974693  0
H  H32  1  0.38237879  0.05790541  0.51666375  1  0  0.035028  0  0.92895  0  0  0.047069  0  1.005938  0  0  0.048583  0  1.003925  0  0  0.083572  0.045202  0  1.008252  0
H  H33  1  0.61761846  0.94209667  0.48333622  1  0  0.035071  0  0.92897  0  0  0.047119  0  1.005918  0  0  0.048637  0  1.003903  0  0  0.083602  0.045253  0  1.00823  0
H  H34  1  0.26940508  0.93584653  0.85438621  1  0  0.078833  0  0.935426  0  0  0.095231  0  0.99975  0  0  0.095371  0  1.000283  0  0  0.110654  0.095021  0  0.999509  0
H  H35  1  0.73059705  0.06415307  0.14561465  1  0  0.078853  0  0.93544  0  0  0.095242  0  0.99976  0  0  0.095382  0  1.000291  0  0  0.110658  0.095031  0  0.99952  0
H  H36  1  0.13779353  0.01801946  0.79238562  1  0  0.051606  0  0.926916  0  0  0.064775  0  0.9972  0  0  0.066158  0  0.995938  0  0  0.092043  0.064171  0  0.997232  0
H  H37  1  0.86220861  0.98198014  0.20761683  1  0  0.051629  0  0.926887  0  0  0.064778  0  0.997185  0  0  0.066162  0  0.995924  0  0  0.092066  0.064175  0  0.997217  0
H  H38  1  0.37485036  0.34921664  0.00796811  1  0  0.079567  0  0.961171  0  0  0.087289  0  1.028136  0  0  0.089994  0  1.025493  0  0  0.114127  0.085115  0  1.030385  0
H  H39  1  0.62515267  0.65078627  0.99202823  1  0  0.079581  0  0.961172  0  0  0.087299  0  1.028142  0  0  0.090008  0  1.025497  0  0  0.11415  0.085119  0  1.030397  0
H  H40  1  0.18979973  0.19851702  0.88478290  1  0  0.1008  0  0.96059  0  0  0.109636  0  1.023607  0  0  0.111824  0  1.025201  0  0  0.100845  0.107993  0  1.022837  0
H  H41  1  0.81020309  0.80148506  0.11521576  1  0  0.100861  0  0.960497  0  0  0.109678  0  1.023517  0  0  0.111866  0  1.025111  0  0  0.100883  0.108035  0  1.022747  0
H  H42  1  0.56611515  0.04265207  0.88472713  1  0  0.101814  0  0.97835  0  0  0.112437  0  1.04236  0  0  0.114906  0  1.042212  0  0  0.104028  0.110656  0  1.04261  0
H  H43  1  0.43388676  0.95734670  0.11527605  1  0  0.101793  0  0.978389  0  0  0.112444  0  1.042373  0  0  0.114914  0  1.042225  0  0  0.104042  0.110664  0  1.042625  0
H  H44  1  0.73626727  0.19974711  0.00932201  1  0  0.068888  0  0.963181  0  0  0.077718  0  1.028897  0  0  0.080028  0  1.026594  0  0  0.109249  0.07593  0  1.030745  0
H  H45  1  0.26373376  0.80025248  0.99068102  1  0  0.068925  0  0.963155  0  0  0.077775  0  1.028854  0  0  0.080086  0  1.026549  0  0  0.109231  0.075981  0  1.030703  0
H  H46  1  0.98414915  0.11409772  0.06640091  1  0  0.08136  0  0.960156  0  0  0.094116  0  1.021184  0  0  0.096997  0  1.019566  0  0  0.096163  0.092074  0  1.0223  0
H  H47  1  0.01585053  0.88590106  0.93360027  1  0  0.081379  0  0.960139  0  0  0.094115  0  1.021193  0  0  0.096995  0  1.019576  0  0  0.096159  0.092074  0  1.022309  0
H  H48  1  0.17818611  0.99671360  0.10037835  1  0  0.075892  0  0.959184  0  0  0.090079  0  1.01617  0  0  0.092871  0  1.014708  0  0  0.093806  0.088039  0  1.01724  0
H  H49  1  0.82181110  0.00328437  0.89962077  1  0  0.075876  0  0.959181  0  0  0.090017  0  1.016209  0  0  0.092807  0  1.014749  0  0  0.093788  0.087982  0  1.017279  0
H  H50  1  0.43273049  0.06490947  0.23652937  1  0  0.084602  0  0.989711  0  0  0.087686  0  1.06634  0  0  0.091885  0  1.063018  0  0  0.095339  0.084719  0  1.068701  0
H  H51  1  0.56726761  0.93508768  0.76346991  1  0  0.084623  0  0.989729  0  0  0.087712  0  1.066353  0  0  0.091911  0  1.063029  0  0  0.095355  0.084746  0  1.068713  0
H  H52  1  0.48778623  0.24870733  0.32942908  1  0  0.097663  0  0.982411  0  0  0.10667  0  1.047806  0  0  0.109846  0  1.046185  0  0  0.100504  0.104413  0  1.048971  0
H  H53  1  0.51221543  0.75129065  0.67056852  1  0  0.097601  0  0.982428  0  0  0.106565  0  1.04788  0  0  0.109742  0  1.046255  0  0  0.100454  0.104315  0  1.049034  0
H  H54  1  0.10444537  0.36251711  0.37013390  1  0  0.095193  0  0.949604  0  0  0.108  0  1.006118  0  0  0.111184  0  1.004609  0  0  0.10019  0.105445  0  1.007675  0
H  H55  1  0.89555649  0.63747757  0.62986606  1  0  0.095156  0  0.949674  0  0  0.107997  0  1.006141  0  0  0.111182  0  1.004631  0  0  0.100199  0.105441  0  1.007699  0
H  H56  1  0.16398189  0.54049464  0.47856044  1  0  0.088319  0  0.947017  0  0  0.10121  0  1.004144  0  0  0.104218  0  1.002596  0  0  0.098739  0.099087  0  1.005353  0
H  H57  1  0.83601508  0.45949839  0.52144252  1  0  0.088293  0  0.947127  0  0  0.10124  0  1.004175  0  0  0.104248  0  1.002628  0  0  0.098739  0.099105  0  1.005399  0
H  H58  1  0.39760351  0.67719834  0.47931153  1  0  0.08058  0  0.963879  0  0  0.092088  0  1.027412  0  0  0.094835  0  1.025842  0  0  0.096843  0.090124  0  1.02854  0
H  H59  1  0.60239149  0.32279961  0.52069269  1  0  0.080535  0  0.963924  0  0  0.092059  0  1.027447  0  0  0.094806  0  1.025877  0  0  0.096846  0.090096  0  1.028577  0
H  H60  1  0.57179439  0.63463187  0.37382920  1  0  0.083495  0  0.950591  0  0  0.097098  0  1.007861  0  0  0.100068  0  1.006452  0  0  0.09766  0.094964  0  1.008973  0
H  H61  1  0.42820133  0.36537267  0.62617287  1  0  0.083401  0  0.950654  0  0  0.097032  0  1.007909  0  0  0.100001  0  1.006496  0  0  0.097607  0.094897  0  1.009022  0
C  C62  1  0.89849395  0.63334460  0.30673983  1  0  0.124722  0  3.738907  0  0  0.094703  0  3.991219  0  0  0.10235  0  4.010691  0  0  0.043175  0.089772  0  3.978096  0
C  C63  1  0.10150595  0.36665501  0.69325982  1  0  0.124749  0  3.738897  0  0  0.094731  0  3.991214  0  0  0.102378  0  4.010688  0  0  0.043179  0.089802  0  3.978088  0
C  C64  1  0.98677542  0.73260217  0.35723620  1  0  -0.180747  0  3.734516  0  0  -0.199871  0  3.986266  0  0  -0.208501  0  4.007657  0  0  -0.089389  -0.194414  0  3.972299  0
C  C65  1  0.01322470  0.26739827  0.64276272  1  0  -0.180815  0  3.734554  0  0  -0.199925  0  3.986346  0  0  -0.208554  0  4.007736  0  0  -0.089431  -0.194469  0  3.972382  0
C  C66  1  0.10403327  0.78686861  0.31521990  1  0  0.130465  0  3.726982  0  0  0.144089  0  3.967048  0  0  0.149249  0  3.989031  0  0  0.011843  0.140923  0  3.951756  0
C  C67  1  0.89596797  0.21313183  0.68477844  1  0  0.130622  0  3.726852  0  0  0.144172  0  3.966985  0  0  0.149332  0  3.988965  0  0  0.011907  0.141008  0  3.951697  0
C  C68  1  0.12585678  0.73689078  0.22293782  1  0  -0.180127  0  3.716904  0  0  -0.194191  0  3.960921  0  0  -0.203594  0  3.98326  0  0  -0.088034  -0.187948  0  3.945752  0
C  C69  1  0.87414334  0.26310966  0.77706189  1  0  -0.18021  0  3.716929  0  0  -0.194258  0  3.960941  0  0  -0.20366  0  3.983277  0  0  -0.088049  -0.188014  0  3.945775  0
C  C70  1  0.03101985  0.63837115  0.17574804  1  0  0.144198  0  3.68873  0  0  0.111333  0  3.940785  0  0  0.119948  0  3.958088  0  0  0.048012  0.10572  0  3.929065  0
C  C71  1  0.96898116  0.36162846  0.82425182  1  0  0.144232  0  3.688875  0  0  0.111438  0  3.940897  0  0  0.120053  0  3.9582  0  0  0.048039  0.105818  0  3.929182  0
C  C72  1  0.20290040  0.89556452  0.36495448  1  0  -0.051326  0  3.730343  0  0  -0.111236  0  3.983442  0  0  -0.108247  0  3.994882  0  0  -0.059888  -0.113393  0  3.975517  0
C  C73  1  0.79709973  0.10443592  0.63504522  1  0  -0.051424  0  3.730404  0  0  -0.111264  0  3.983469  0  0  -0.108276  0  3.994909  0  0  -0.059894  -0.113419  0  3.975532  0
C  C74  1  0.26777622  0.85241860  0.55579915  1  0  -0.020472  0  3.697001  0  0  -0.080682  0  3.960945  0  0  -0.077161  0  3.972836  0  0  -0.069833  -0.082643  0  3.952295  0
C  C75  1  0.73222391  0.14758183  0.44420056  1  0  -0.020524  0  3.697063  0  0  -0.0807  0  3.960951  0  0  -0.077173  0  3.972837  0  0  -0.069847  -0.082663  0  3.952304  0
C  C76  1  0.23573168  0.87334974  0.66437339  1  0  -0.019133  0  3.681897  0  0  -0.075942  0  3.945852  0  0  -0.071991  0  3.955981  0  0  -0.072075  -0.078647  0  3.938423  0
C  C77  1  0.76426822  0.12664987  0.33562547  1  0  -0.019167  0  3.681953  0  0  -0.075981  0  3.945883  0  0  -0.072029  0  3.956008  0  0  -0.07207  -0.078687  0  3.93846  0
C  C78  1  0.23253517  0.06161430  0.62144389  1  0  -0.021639  0  3.68437  0  0  -0.080103  0  3.952707  0  0  -0.076704  0  3.964192  0  0  -0.072418  -0.08176  0  3.94441  0
C  C79  1  0.76746273  0.93838613  0.37855697  1  0  -0.021698  0  3.68441  0  0  -0.080163  0  3.952702  0  0  -0.076777  0  3.964202  0  0  -0.072429  -0.081819  0  3.944402  0
C  C80  1  0.25857930  0.03708251  0.51079713  1  0  -0.004705  0  3.687477  0  0  -0.062658  0  3.95331  0  0  -0.0591  0  3.964944  0  0  -0.065316  -0.065246  0  3.945532  0
C  C81  1  0.74141749  0.96291792  0.48920352  1  0  -0.004776  0  3.687546  0  0  -0.062664  0  3.953259  0  0  -0.059105  0  3.964897  0  0  -0.065368  -0.065252  0  3.945479  0
C  C82  1  0.25794039  0.00906974  0.80687755  1  0  -0.05303  0  3.705507  0  0  -0.111195  0  3.959092  0  0  -0.108016  0  3.969832  0  0  -0.063528  -0.113059  0  3.951068  0
C  C83  1  0.74206086  0.99093068  0.19312395  1  0  -0.053102  0  3.705622  0  0  -0.111231  0  3.959161  0  0  -0.108053  0  3.969899  0  0  -0.063556  -0.113097  0  3.951139  0
C  C84  1  0.41312527  0.27946600  0.97963179  1  0  0.156829  0  3.682536  0  0  0.125215  0  3.932556  0  0  0.133181  0  3.950635  0  0  0.05167  0.120079  0  3.92047  0
C  C85  1  0.58687754  0.72053608  0.02036608  1  0  0.156788  0  3.682517  0  0  0.125147  0  3.932552  0  0  0.13311  0  3.950626  0  0  0.051639  0.120015  0  3.920467  0
C  C86  1  0.31038062  0.19516018  0.91009869  1  0  -0.172545  0  3.708055  0  0  -0.187343  0  3.951493  0  0  -0.196184  0  3.974653  0  0  -0.085009  -0.18168  0  3.936206  0
C  C87  1  0.68962173  0.80484025  0.08990065  1  0  -0.172574  0  3.708004  0  0  -0.187329  0  3.951444  0  0  -0.19617  0  3.974604  0  0  -0.085004  -0.181667  0  3.936156  0
C  C88  1  0.36277969  0.10695719  0.87504087  1  0  0.12962  0  3.735217  0  0  0.143306  0  3.972564  0  0  0.147609  0  3.994854  0  0  0.009015  0.140537  0  3.957399  0
C  C89  1  0.63722245  0.89304241  0.12496078  1  0  0.129624  0  3.735096  0  0  0.143299  0  3.972439  0  0  0.147604  0  3.994728  0  0  0.00901  0.140528  0  3.957276  0
C  C90  1  0.51949108  0.10936082  0.90993854  1  0  -0.174997  0  3.736567  0  0  -0.193945  0  3.985051  0  0  -0.201748  0  4.007044  0  0  -0.090882  -0.188825  0  3.970248  0
C  C91  1  0.48050994  0.89063878  0.09006290  1  0  -0.174921  0  3.736519  0  0  -0.193908  0  3.985023  0  0  -0.201711  0  4.007015  0  0  -0.090909  -0.18879  0  3.970219  0
C  C92  1  0.61412661  0.19601704  0.97901299  1  0  0.112267  0  3.759271  0  0  0.08462  0  4.008411  0  0  0.091281  0  4.027622  0  0  0.035131  0.080352  0  3.995362  0
C  C93  1  0.38587576  0.80398339  0.02098793  1  0  0.112043  0  3.759399  0  0  0.084378  0  4.008542  0  0  0.091039  0  4.027753  0  0  0.035083  0.080118  0  3.995484  0
C  C94  1  0.00773456  0.31697221  0.14922344  1  0  0.640689  0  3.949618  0  0  0.584111  0  4.253806  0  0  0.618103  0  4.24677  0  0  0.201103  0.561039  0  4.257684  0
C  C95  1  0.99226757  0.68302740  0.85077663  1  0  0.640698  0  3.949675  0  0  0.584116  0  4.253861  0  0  0.618113  0  4.246816  0  0  0.201074  0.561039  0  4.257743  0
C  C96  1  0.12744843  0.24793717  0.17655449  1  0  -0.081045  0  3.720138  0  0  -0.061818  0  3.953637  0  0  -0.066584  0  3.973071  0  0  -0.011196  -0.058963  0  3.940672  0
C  C97  1  0.87255392  0.75206326  0.82344485  1  0  -0.081093  0  3.720229  0  0  -0.061823  0  3.953702  0  0  -0.066592  0  3.973137  0  0  -0.0112  -0.058967  0  3.940736  0
C  C98  1  0.09567341  0.14343602  0.12366835  1  0  -0.095461  0  3.78567  0  0  -0.118383  0  4.036525  0  0  -0.119396  0  4.056522  0  0  -0.095428  -0.117771  0  4.023099  0
C  C99  1  0.90432671  0.85656442  0.87633056  1  0  -0.095414  0  3.785826  0  0  -0.118332  0  4.03666  0  0  -0.119343  0  4.056659  0  0  -0.095407  -0.117721  0  4.023237  0
C  C100  1  0.20471884  0.07764118  0.14298415  1  0  -0.085758  0  3.822338  0  0  -0.099153  0  4.074324  0  0  -0.100581  0  4.094902  0  0  -0.102244  -0.098036  0  4.06049  0
C  C101  1  0.79528216  0.92235844  0.85701335  1  0  -0.085775  0  3.822534  0  0  -0.099127  0  4.07451  0  0  -0.100555  0  4.095089  0  0  -0.102244  -0.098019  0  4.060686  0
C  C102  1  0.34632843  0.11560856  0.21753391  1  0  -0.076369  0  3.786523  0  0  -0.092166  0  4.04204  0  0  -0.093371  0  4.061893  0  0  -0.10004  -0.09161  0  4.028681  0
C  C103  1  0.65367146  0.88439106  0.78246495  1  0  -0.076391  0  3.786589  0  0  -0.092193  0  4.042082  0  0  -0.093396  0  4.061934  0  0  -0.100067  -0.091638  0  4.028729  0
C  C104  1  0.37778212  0.21908000  0.27101666  1  0  -0.108189  0  3.734445  0  0  -0.127898  0  3.981189  0  0  -0.13044  0  4.002082  0  0  -0.091146  -0.12605  0  3.966957  0
C  C105  1  0.62221977  0.78091880  0.72898020  1  0  -0.108127  0  3.73444  0  0  -0.127784  0  3.98121  0  0  -0.130325  0  4.002101  0  0  -0.091091  -0.125942  0  3.96697  0
C  C106  1  0.27044093  0.28728225  0.25156133  1  0  0.036822  0  3.753639  0  0  0.044269  0  3.985987  0  0  0.044508  0  4.009831  0  0  -0.005812  0.044101  0  3.969905  0
C  C107  1  0.72956230  0.71271738  0.74843580  1  0  0.036798  0  3.753742  0  0  0.044186  0  3.986142  0  0  0.044425  0  4.009988  0  0  -0.005828  0.044018  0  3.970058  0
C  C108  1  0.30649692  0.39571770  0.31279263  1  0  0.027594  0  3.757592  0  0  0.035802  0  3.989634  0  0  0.035494  0  4.014209  0  0  -0.009439  0.035945  0  3.972957  0
C  C109  1  0.69350474  0.60428028  0.68720655  1  0  0.027688  0  3.757461  0  0  0.035918  0  3.98951  0  0  0.03561  0  4.014084  0  0  -0.009379  0.036061  0  3.97283  0
C  C110  1  0.20749279  0.42227818  0.37136781  1  0  -0.113328  0  3.741355  0  0  -0.132429  0  3.991032  0  0  -0.135239  0  4.011993  0  0  -0.093375  -0.130142  0  3.976699  0
C  C111  1  0.79251000  0.57771978  0.62863316  1  0  -0.113268  0  3.741361  0  0  -0.132394  0  3.991045  0  0  -0.135205  0  4.012006  0  0  -0.093362  -0.130105  0  3.976706  0
C  C112  1  0.23968359  0.52236200  0.43120999  1  0  -0.061836  0  3.784652  0  0  -0.081541  0  4.047035  0  0  -0.082418  0  4.067736  0  0  -0.095541  -0.081172  0  4.03308  0
C  C113  1  0.76031429  0.47763432  0.56879081  1  0  -0.061957  0  3.784658  0  0  -0.081712  0  4.04707  0  0  -0.08259  0  4.06777  0  0  -0.095598  -0.081333  0  4.03312  0
C  C114  1  0.37096232  0.59905933  0.43204308  1  0  -0.05799  0  3.780094  0  0  -0.075488  0  4.038346  0  0  -0.076749  0  4.059667  0  0  -0.090773  -0.074538  0  4.023861  0
C  C115  1  0.62903380  0.40093862  0.56796057  1  0  -0.057778  0  3.779914  0  0  -0.075295  0  4.038173  0  0  -0.07656  0  4.059498  0  0  -0.09069  -0.074346  0  4.023686  0
C  C116  1  0.46942155  0.57469718  0.37372567  1  0  -0.084988  0  3.762779  0  0  -0.106289  0  4.008529  0  0  -0.107678  0  4.029153  0  0  -0.090996  -0.105312  0  3.994677  0
C  C117  1  0.53057482  0.42530572  0.62627572  1  0  -0.085018  0  3.762902  0  0  -0.106341  0  4.008678  0  0  -0.107727  0  4.029298  0  0  -0.091032  -0.105362  0  3.994822  0
C  C118  1  0.43964879  0.47317988  0.31535324  1  0  -0.082012  0  3.711239  0  0  -0.061232  0  3.941477  0  0  -0.066272  0  3.961564  0  0  -0.01004  -0.057965  0  3.927962  0
C  C119  1  0.56035180  0.52682219  0.68464815  1  0  -0.081972  0  3.711311  0  0  -0.061221  0  3.941552  0  0  -0.06626  0  3.961638  0  0  -0.010064  -0.057953  0  3.928033  0
C  C120  1  0.55124496  0.45299461  0.25389076  1  0  0.644864  0  3.921487  0  0  0.588891  0  4.225135  0  0  0.622776  0  4.218267  0  0  0.203089  0.565976  0  4.228637  0
C  C121  1  0.44875294  0.54700584  0.74610694  1  0  0.644695  0  3.921817  0  0  0.588779  0  4.225379  0  0  0.622664  0  4.21851  0  0  0.203021  0.565861  0  4.22888  0
N  N122  1  0.91848150  0.58685128  0.21686012  1  0  -0.341038  0  3.244902  0  0  -0.26449  0  3.511557  0  0  -0.285643  0  3.530515  0  0  -0.32757  -0.250052  0  3.498501  0
N  N123  1  0.08151863  0.41314915  0.78313958  1  0  -0.341023  0  3.244938  0  0  -0.264485  0  3.511571  0  0  -0.285638  0  3.530532  0  0  -0.32757  -0.250046  0  3.498514  0
N  N124  1  0.19504718  0.92201426  0.47456576  1  0  -0.234861  0  3.273983  0  0  -0.155562  0  3.534478  0  0  -0.170478  0  3.554355  0  0  -0.345663  -0.144905  0  3.521058  0
N  N125  1  0.80495184  0.07798617  0.52543452  1  0  -0.23481  0  3.274068  0  0  -0.15557  0  3.534536  0  0  -0.170487  0  3.554415  0  0  -0.345655  -0.144909  0  3.521119  0
N  N126  1  0.29445538  0.98840983  0.70407108  1  0  -0.233549  0  3.207285  0  0  -0.156052  0  3.468559  0  0  -0.171258  0  3.487816  0  0  -0.342679  -0.14543  0  3.454581  0
N  N127  1  0.70554475  0.01159060  0.29592941  1  0  -0.233523  0  3.207342  0  0  -0.156049  0  3.468602  0  0  -0.171254  0  3.487861  0  0  -0.342702  -0.145427  0  3.454624  0
N  N128  1  0.56246022  0.27942570  0.01500835  1  0  -0.322155  0  3.214864  0  0  -0.246883  0  3.472759  0  0  -0.266501  0  3.491399  0  0  -0.322015  -0.23337  0  3.459725  0
N  N129  1  0.43754190  0.72057391  0.98499094  1  0  -0.322029  0  3.214826  0  0  -0.246722  0  3.472692  0  0  -0.266341  0  3.491338  0  0  -0.321975  -0.233209  0  3.45965  0
O  O130  1  0.88806057  0.28550721  0.18101185  1  0  -0.637287  0  2.00824  0  0  -0.574772  0  2.265027  0  0  -0.604527  0  2.255869  0  0  -0.320293  -0.554044  0  2.270976  0
O  O131  1  0.11194156  0.71449240  0.81898822  1  0  -0.63727  0  2.008262  0  0  -0.57478  0  2.265089  0  0  -0.604536  0  2.255926  0  0  -0.320278  -0.554049  0  2.271039  0
O  O132  1  0.02730874  0.40064545  0.09448745  1  0  -0.625717  0  2.021673  0  0  -0.559635  0  2.2503  0  0  -0.587566  0  2.242114  0  0  -0.303202  -0.539736  0  2.255139  0
O  O133  1  0.97269116  0.59935416  0.90551299  1  0  -0.62572  0  2.021674  0  0  -0.559635  0  2.250297  0  0  -0.587569  0  2.242107  0  0  -0.303187  -0.539733  0  2.255139  0
O  O134  1  0.65921480  0.40592676  0.29844788  1  0  -0.616944  0  1.917702  0  0  -0.559612  0  2.149702  0  0  -0.586738  0  2.141296  0  0  -0.316555  -0.540496  0  2.155058  0
O  O135  1  0.34078579  0.59407532  0.70155114  1  0  -0.616914  0  1.917943  0  0  -0.559575  0  2.149871  0  0  -0.586708  0  2.141476  0  0  -0.316536  -0.540461  0  2.155231  0
O  O136  1  0.53473932  0.48961620  0.15780553  1  0  -0.647723  0  2.005225  0  0  -0.575325  0  2.239676  0  0  -0.605193  0  2.230085  0  0  -0.316792  -0.553993  0  2.245231  0
O  O137  1  0.46526488  0.51039079  0.84219661  1  0  -0.647632  0  2.005306  0  0  -0.575248  0  2.239725  0  0  -0.60512  0  2.230137  0  0  -0.316735  -0.553926  0  2.245305  0
O  O138  1  0.73707508  0.48941608  0.95933921  1  0  -0.880191  0  1.892976  0  0  -0.81516  0  2.110803  0  0  -0.838533  0  2.073776  0  0  -0.610644  -0.79859  0  2.136685  0
O  O139  1  0.26292482  0.51058354  0.04066044  1  0  -0.880149  0  1.893043  0  0  -0.8151  0  2.110905  0  0  -0.838474  0  2.073872  0  0  -0.610617  -0.798533  0  2.136784  0
