# generated using pymatgen
data_ZnH10C8SO9
_symmetry_space_group_name_H-M   'P 1'
_cell_length_a   7.63723209
_cell_length_b   8.25767299
_cell_length_c   10.19518675
_cell_angle_alpha   106.96002973
_cell_angle_beta   111.98074335
_cell_angle_gamma   90.62369153
_symmetry_Int_Tables_number   1
_chemical_formula_structural   ZnH10C8SO9
_chemical_formula_sum   'Zn2 H20 C16 S2 O18'
_cell_volume   565.04944855
_cell_formula_units_Z   2
loop_
 _symmetry_equiv_pos_site_id
 _symmetry_equiv_pos_as_xyz
  1  'x, y, z'
loop_
 _atom_site_type_symbol
 _atom_site_label
 _atom_site_symmetry_multiplicity
 _atom_site_fract_x
 _atom_site_fract_y
 _atom_site_fract_z
 _atom_site_occupancy
 _atom_site_pbe_bader_spin_density
 _atom_site_pbe_cm5_charge
 _atom_site_pbe_ddec_charge
 _atom_site_pbe_ddec_spin_density
 _atom_site_pbe_ddec_sum_bond_order
 _atom_site_pbe_magmom
Zn  Zn0  1  0.66450901  0.75855929  0.93865353  1  0  0.678941  1.01792  0  2.129886  0
Zn  Zn1  1  0.33548901  0.24144036  0.06134399  1  0  0.678902  1.017924  0  2.129949  0
H  H2  1  0.01330830  0.44709949  0.67469816  1  0  0.105843  0.094917  0  1.007452  0
H  H3  1  0.98669406  0.55289017  0.32530617  1  0  0.105855  0.094929  0  1.007534  0
H  H4  1  0.82151649  0.56163714  0.69476244  1  0  0.116245  0.114858  0  0.989967  0
H  H5  1  0.17849620  0.43836534  0.30524754  1  0  0.116228  0.114839  0  0.990004  0
H  H6  1  0.60022694  0.38433391  0.43629813  1  0  0.104735  0.088567  0  0.997476  0
H  H7  1  0.39977405  0.61567605  0.56370542  1  0  0.104752  0.088487  0  0.997523  0
H  H8  1  0.80402477  0.48301750  0.42937397  1  0  0.111792  0.096202  0  1.007448  0
H  H9  1  0.19597684  0.51698623  0.57063426  1  0  0.111796  0.096214  0  1.007453  0
H  H10  1  0.32293865  0.85494883  0.84125076  1  0  0.295298  0.386976  0  0.953562  0
H  H11  1  0.67705692  0.14505336  0.15874666  1  0  0.295302  0.38701  0  0.953424  0
H  H12  1  0.34722555  0.82168339  0.98970392  1  0  0.290832  0.388355  0  0.951217  0
H  H13  1  0.65277539  0.17831745  0.01029073  1  0  0.290788  0.388291  0  0.9513  0
H  H14  1  0.65006017  0.42094967  0.79730626  1  0  0.302231  0.381944  0  0.954118  0
H  H15  1  0.34993116  0.57905251  0.20269001  1  0  0.30222  0.381924  0  0.954135  0
H  H16  1  0.45088703  0.44408678  0.81462132  1  0  0.292318  0.401397  0  0.936066  0
H  H17  1  0.54910351  0.55591023  0.18537163  1  0  0.292335  0.401396  0  0.936084  0
H  H18  1  0.05532168  0.74870461  0.03831229  1  0  0.293822  0.392738  0  0.945255  0
H  H19  1  0.94468289  0.25129129  0.96168814  1  0  0.293826  0.392756  0  0.945243  0
H  H20  1  0.94119190  0.61041498  0.06329012  1  0  0.310176  0.388904  0  0.917473  0
H  H21  1  0.05880855  0.38959117  0.93671343  1  0  0.31021  0.38896  0  0.917366  0
C  C22  1  0.74191577  0.83890491  0.23860541  1  0  0.195831  0.591647  0  4.239533  0
C  C23  1  0.25808005  0.16112902  0.76139226  1  0  0.196028  0.591978  0  4.239315  0
C  C24  1  0.75036010  0.93198481  0.38803710  1  0  -0.04085  -0.237681  0  3.999557  0
C  C25  1  0.24963759  0.06801234  0.61196174  1  0  -0.040818  -0.237538  0  3.999515  0
C  C26  1  0.77501598  0.10717492  0.45929070  1  0  0.071394  0.137309  0  4.08912  0
C  C27  1  0.22497206  0.89283365  0.54070708  1  0  0.071424  0.13722  0  4.08922  0
C  C28  1  0.77279985  0.14873645  0.60452502  1  0  0.068768  0.130176  0  4.073009  0
C  C29  1  0.22720599  0.85125823  0.39547744  1  0  0.068787  0.130239  0  4.072956  0
C  C30  1  0.74187455  0.00390107  0.64090836  1  0  -0.036974  -0.238738  0  3.99757  0
C  C31  1  0.25813356  0.99609992  0.35909318  1  0  -0.036963  -0.238693  0  3.99728  0
C  C32  1  0.72238333  0.98929819  0.77530779  1  0  0.211837  0.619756  0  4.222375  0
C  C33  1  0.27761351  0.01070279  0.22469167  1  0  0.211847  0.619847  0  4.222256  0
C  C34  1  0.85778236  0.43997550  0.63886661  1  0  -0.071322  -0.032548  0  3.824564  0
C  C35  1  0.14222001  0.56002430  0.36113703  1  0  -0.071295  -0.032538  0  3.8248  0
C  C36  1  0.75583342  0.39168779  0.47191041  1  0  -0.072315  -0.024747  0  3.873061  0
C  C37  1  0.24416621  0.60831211  0.52809644  1  0  -0.072353  -0.024694  0  3.872983  0
S  S38  1  0.72141875  0.82010329  0.49889380  1  0  0.102075  0.179719  0  3.047454  0
S  S39  1  0.27858284  0.17990149  0.50110582  1  0  0.102015  0.179586  0  3.047303  0
O  O40  1  0.74659729  0.92613017  0.15337309  1  0  -0.311159  -0.566606  0  2.315752  0
O  O41  1  0.25339085  0.07386733  0.84663796  1  0  -0.311326  -0.567011  0  2.314906  0
O  O42  1  0.72838983  0.67662208  0.19719040  1  0  -0.319346  -0.569615  0  2.200652  0
O  O43  1  0.27159199  0.32336344  0.80279860  1  0  -0.319275  -0.569483  0  2.201608  0
O  O44  1  0.68420245  0.83721904  0.77444667  1  0  -0.317492  -0.559914  0  2.323656  0
O  O45  1  0.31580015  0.16276396  0.22554545  1  0  -0.317484  -0.559895  0  2.323949  0
O  O46  1  0.74266015  0.12542292  0.88152724  1  0  -0.308494  -0.549839  0  2.23353  0
O  O47  1  0.25736321  0.87455649  0.11847561  1  0  -0.308521  -0.549987  0  2.233153  0
O  O48  1  0.79780593  0.31335958  0.69432154  1  0  -0.16958  -0.186295  0  2.584457  0
O  O49  1  0.20219498  0.68664016  0.30567973  1  0  -0.169571  -0.186281  0  2.58465  0
O  O50  1  0.79891412  0.22739399  0.39904894  1  0  -0.170608  -0.163327  0  2.558422  0
O  O51  1  0.20107855  0.77260705  0.60095235  1  0  -0.170666  -0.163295  0  2.558088  0
O  O52  1  0.37948622  0.77879540  0.90029638  1  0  -0.58203  -0.755148  0  2.126317  0
O  O53  1  0.62050664  0.22120905  0.09969001  1  0  -0.581954  -0.755058  0  2.126493  0
O  O54  1  0.56600034  0.50541801  0.81647821  1  0  -0.581966  -0.773367  0  2.185749  0
O  O55  1  0.43400756  0.49458168  0.18352200  1  0  -0.582017  -0.773353  0  2.185708  0
O  O56  1  0.93507776  0.66523957  0.98889078  1  0  -0.570025  -0.753625  0  2.131347  0
O  O57  1  0.06492598  0.33476018  0.01111126  1  0  -0.57005  -0.75371  0  2.131273  0
