# generated using pymatgen
data_HgH6C8(IN3)2
_symmetry_space_group_name_H-M   'P 1'
_cell_length_a   8.15770909
_cell_length_b   14.88318139
_cell_length_c   18.22492414
_cell_angle_alpha   104.58949321
_cell_angle_beta   102.93799554
_cell_angle_gamma   90.00779373
_symmetry_Int_Tables_number   1
_chemical_formula_structural   HgH6C8(IN3)2
_chemical_formula_sum   'Hg6 H36 C48 I12 N36'
_cell_volume   2083.27179257
_cell_formula_units_Z   6
loop_
 _symmetry_equiv_pos_site_id
 _symmetry_equiv_pos_as_xyz
  1  'x, y, z'
loop_
 _atom_site_type_symbol
 _atom_site_label
 _atom_site_symmetry_multiplicity
 _atom_site_fract_x
 _atom_site_fract_y
 _atom_site_fract_z
 _atom_site_occupancy
 _atom_site_hle17_bader_spin_density
 _atom_site_hle17_ddec_charge
 _atom_site_hle17_ddec_spin_density
 _atom_site_hle17_ddec_sum_bond_order
 _atom_site_hle17_magmom
 _atom_site_hse06_10hf_bader_spin_density
 _atom_site_hse06_10hf_ddec_charge
 _atom_site_hse06_10hf_ddec_spin_density
 _atom_site_hse06_10hf_ddec_sum_bond_order
 _atom_site_hse06_10hf_magmom
 _atom_site_hse06_bader_spin_density
 _atom_site_hse06_ddec_charge
 _atom_site_hse06_ddec_spin_density
 _atom_site_hse06_ddec_sum_bond_order
 _atom_site_hse06_magmom
 _atom_site_pbe_bader_spin_density
 _atom_site_pbe_cm5_charge
 _atom_site_pbe_ddec_charge
 _atom_site_pbe_ddec_spin_density
 _atom_site_pbe_ddec_sum_bond_order
 _atom_site_pbe_magmom
Hg  Hg0  1  0.90309186  0.93886260  0.60237560  1  0  0.53575  0  2.17834  0  0  0.415307  0  2.664567  0  0  0.458428  0  2.640377  0  0  0.374396  0.38636  0  2.68069  0
Hg  Hg1  1  0.30047961  0.56119481  0.39763312  1  0  0.53531  0  2.179975  0  0  0.414674  0  2.666485  0  0  0.457815  0  2.642268  0  0  0.374155  0.385711  0  2.682612  0
Hg  Hg2  1  0.09690738  0.06113830  0.39762588  1  0  0.535783  0  2.17836  0  0  0.41534  0  2.664592  0  0  0.45846  0  2.640401  0  0  0.374412  0.386393  0  2.680716  0
Hg  Hg3  1  0.69952178  0.43880261  0.60236622  1  0  0.535329  0  2.179945  0  0  0.414718  0  2.666414  0  0  0.457857  0  2.642196  0  0  0.374154  0.385748  0  2.682554  0
Hg  Hg4  1  0.64794290  0.24990650  0.99996286  1  0  0.552552  0  2.183146  0  0  0.421302  0  2.680486  0  0  0.465507  0  2.652035  0  0  0.380929  0.39161  0  2.699305  0
Hg  Hg5  1  0.35205626  0.75009370  0.00003682  1  0  0.552584  0  2.183055  0  0  0.421331  0  2.680388  0  0  0.465537  0  2.651936  0  0  0.380947  0.391647  0  2.699194  0
H  H6  1  0.25739482  0.20100968  0.56936932  1  0  0.123371  0  0.96682  0  0  0.129645  0  1.032322  0  0  0.133058  0  1.029482  0  0  0.114831  0.127184  0  1.034433  0
H  H7  1  0.68789748  0.29885443  0.43054947  1  0  0.124187  0  0.965391  0  0  0.130031  0  1.031357  0  0  0.133375  0  1.028606  0  0  0.114938  0.127647  0  1.033378  0
H  H8  1  0.74261048  0.79898914  0.43063069  1  0  0.12337  0  0.966779  0  0  0.12964  0  1.032301  0  0  0.133054  0  1.02946  0  0  0.114844  0.127185  0  1.034412  0
H  H9  1  0.31210280  0.70114439  0.56945113  1  0  0.124182  0  0.96539  0  0  0.130032  0  1.031344  0  0  0.133377  0  1.028591  0  0  0.114941  0.127647  0  1.033368  0
H  H10  1  0.02490444  0.29874663  0.48836042  1  0  0.103685  0  0.966241  0  0  0.110121  0  1.031864  0  0  0.113081  0  1.030149  0  0  0.101076  0.10801  0  1.033173  0
H  H11  1  0.53651094  0.20121017  0.51171775  1  0  0.103199  0  0.966028  0  0  0.109914  0  1.03151  0  0  0.112785  0  1.029877  0  0  0.101343  0.107849  0  1.032762  0
H  H12  1  0.97510182  0.70124938  0.51163638  1  0  0.10374  0  0.966216  0  0  0.110173  0  1.031873  0  0  0.113132  0  1.030156  0  0  0.101126  0.108064  0  1.033183  0
H  H13  1  0.46348830  0.79879073  0.48828208  1  0  0.103224  0  0.966056  0  0  0.109934  0  1.031552  0  0  0.112805  0  1.029919  0  0  0.101354  0.107867  0  1.032808  0
H  H14  1  0.82829186  0.93187085  0.79881861  1  0  0.101786  0  0.943472  0  0  0.109739  0  1.00589  0  0  0.112567  0  1.00458  0  0  0.111455  0.107742  0  1.006878  0
H  H15  1  0.02942147  0.56807284  0.20138280  1  0  0.101308  0  0.943633  0  0  0.109793  0  1.005582  0  0  0.112605  0  1.004302  0  0  0.110897  0.107741  0  1.006632  0
H  H16  1  0.17170386  0.06813216  0.20118733  1  0  0.101713  0  0.943561  0  0  0.10963  0  1.006027  0  0  0.112456  0  1.004722  0  0  0.111397  0.107629  0  1.007006  0
H  H17  1  0.97058014  0.43192666  0.79861643  1  0  0.101321  0  0.943643  0  0  0.109811  0  1.005585  0  0  0.112621  0  1.004307  0  0  0.110894  0.107757  0  1.006635  0
H  H18  1  0.85934944  0.27101776  0.68529348  1  0  0.083569  0  0.988339  0  0  0.084812  0  1.06764  0  0  0.088583  0  1.062219  0  0  0.115912  0.082108  0  1.071424  0
H  H19  1  0.17376270  0.22885988  0.31481021  1  0  0.081987  0  0.988874  0  0  0.083735  0  1.067621  0  0  0.087467  0  1.062207  0  0  0.115279  0.081032  0  1.071417  0
H  H20  1  0.14064831  0.72898103  0.31470303  1  0  0.083523  0  0.98837  0  0  0.084813  0  1.067623  0  0  0.08859  0  1.062201  0  0  0.115899  0.082109  0  1.071405  0
H  H21  1  0.82623669  0.77114240  0.68518992  1  0  0.081994  0  0.988893  0  0  0.08376  0  1.067607  0  0  0.087484  0  1.062202  0  0  0.115296  0.081059  0  1.071407  0
H  H22  1  0.54960590  0.00298966  0.85399084  1  0  0.121653  0  0.966787  0  0  0.128891  0  1.032195  0  0  0.132482  0  1.028908  0  0  0.111993  0.126329  0  1.034616  0
H  H23  1  0.69553385  0.49680967  0.14598839  1  0  0.12334  0  0.965578  0  0  0.130799  0  1.03041  0  0  0.134491  0  1.026985  0  0  0.113075  0.128161  0  1.032901  0
H  H24  1  0.45039248  0.99701474  0.14601455  1  0  0.121675  0  0.966746  0  0  0.128909  0  1.032149  0  0  0.1325  0  1.028863  0  0  0.111997  0.126345  0  1.034564  0
H  H25  1  0.30446775  0.50318984  0.85401029  1  0  0.123338  0  0.965659  0  0  0.130806  0  1.03048  0  0  0.134498  0  1.027057  0  0  0.113089  0.128169  0  1.03297  0
H  H26  1  0.23216054  0.06203811  0.93961846  1  0  0.120293  0  0.97662  0  0  0.122611  0  1.049015  0  0  0.126433  0  1.04574  0  0  0.114202  0.119858  0  1.051447  0
H  H27  1  0.29243764  0.43766303  0.06027530  1  0  0.121002  0  0.975059  0  0  0.123808  0  1.046873  0  0  0.127673  0  1.043571  0  0  0.11455  0.121025  0  1.049317  0
H  H28  1  0.76783603  0.93796139  0.06037917  1  0  0.120332  0  0.97658  0  0  0.122633  0  1.049012  0  0  0.126455  0  1.045737  0  0  0.114232  0.119876  0  1.051448  0
H  H29  1  0.70756388  0.56233577  0.93972268  1  0  0.12095  0  0.975081  0  0  0.123759  0  1.046902  0  0  0.127625  0  1.043598  0  0  0.114529  0.120978  0  1.049342  0
H  H30  1  0.84680404  0.21466067  0.83649310  1  0  0.101695  0  0.93424  0  0  0.105321  0  1.006242  0  0  0.10876  0  1.001481  0  0  0.133861  0.102808  0  1.009633  0
H  H31  1  0.00984085  0.28545887  0.16362489  1  0  0.101039  0  0.934663  0  0  0.10469  0  1.006727  0  0  0.108101  0  1.002011  0  0  0.132996  0.102193  0  1.010101  0
H  H32  1  0.15319276  0.78534093  0.16350662  1  0  0.101705  0  0.934209  0  0  0.105338  0  1.006204  0  0  0.108776  0  1.001444  0  0  0.133874  0.10282  0  1.009595  0
H  H33  1  0.99015847  0.71454273  0.83637508  1  0  0.101058  0  0.934725  0  0  0.104721  0  1.006755  0  0  0.108132  0  1.00204  0  0  0.133022  0.102225  0  1.010129  0
H  H34  1  0.98124087  0.09060718  0.02402675  1  0  0.101811  0  0.955935  0  0  0.11006  0  1.017806  0  0  0.112466  0  1.017303  0  0  0.112505  0.10833  0  1.01826  0
H  H35  1  0.95699853  0.40919535  0.97593375  1  0  0.100875  0  0.956944  0  0  0.109569  0  1.018334  0  0  0.111921  0  1.017891  0  0  0.11196  0.107861  0  1.018769  0
H  H36  1  0.01875452  0.90939301  0.97597200  1  0  0.101774  0  0.955971  0  0  0.110021  0  1.017843  0  0  0.112427  0  1.017341  0  0  0.112493  0.108289  0  1.018302  0
H  H37  1  0.04300300  0.59080346  0.02406479  1  0  0.100896  0  0.956951  0  0  0.109585  0  1.01834  0  0  0.111936  0  1.017898  0  0  0.111954  0.107876  0  1.018769  0
H  H38  1  0.56646686  0.08526117  0.64849281  1  0  0.099619  0  0.959198  0  0  0.100171  0  1.036447  0  0  0.104196  0  1.030813  0  0  0.124143  0.097227  0  1.040442  0
H  H39  1  0.91771033  0.41449745  0.35151748  1  0  0.100553  0  0.95847  0  0  0.101289  0  1.035485  0  0  0.105292  0  1.029891  0  0  0.124721  0.098407  0  1.039434  0
H  H40  1  0.43353712  0.91473696  0.35150858  1  0  0.099642  0  0.959155  0  0  0.100144  0  1.036516  0  0  0.104178  0  1.03087  0  0  0.124132  0.097201  0  1.040522  0
H  H41  1  0.08228854  0.58549997  0.64848106  1  0  0.100553  0  0.958459  0  0  0.101274  0  1.03548  0  0  0.105279  0  1.029882  0  0  0.124708  0.098396  0  1.03943  0
C  C42  1  0.60531551  0.05370550  0.69667858  1  0  0.195714  0  3.612833  0  0  0.138166  0  3.880567  0  0  0.153042  0  3.890679  0  0  0.145409  0.128591  0  3.873392  0
C  C43  1  0.90840550  0.44606566  0.30334086  1  0  0.194769  0  3.615661  0  0  0.136806  0  3.883709  0  0  0.151693  0  3.893795  0  0  0.144433  0.127166  0  3.876541  0
C  C44  1  0.39468219  0.94629263  0.30332383  1  0  0.195714  0  3.612805  0  0  0.138174  0  3.880543  0  0  0.153044  0  3.890654  0  0  0.145382  0.128592  0  3.873384  0
C  C45  1  0.09159485  0.55393384  0.69665880  1  0  0.194715  0  3.615706  0  0  0.136792  0  3.883719  0  0  0.151676  0  3.893807  0  0  0.144452  0.127142  0  3.876557  0
C  C46  1  0.36519543  0.10341423  0.75621846  1  0  0.566682  0  3.79598  0  0  0.519119  0  4.07926  0  0  0.545454  0  4.08485  0  0  0.368453  0.501698  0  4.075211  0
C  C47  1  0.60878419  0.39639930  0.24373112  1  0  0.568032  0  3.796632  0  0  0.520539  0  4.079436  0  0  0.546866  0  4.084998  0  0  0.367405  0.503131  0  4.075398  0
C  C48  1  0.63480271  0.89658806  0.24378263  1  0  0.566706  0  3.795956  0  0  0.519211  0  4.079125  0  0  0.545554  0  4.084697  0  0  0.368466  0.50179  0  4.075081  0
C  C49  1  0.39121742  0.60360021  0.75626921  1  0  0.568068  0  3.796741  0  0  0.520553  0  4.079592  0  0  0.54688  0  4.085155  0  0  0.367437  0.503151  0  4.075544  0
C  C50  1  0.14166500  0.23072316  0.58025334  1  0  -0.036345  0  3.661224  0  0  -0.077902  0  3.925718  0  0  -0.07503  0  3.942093  0  0  -0.003584  -0.079772  0  3.91472  0
C  C51  1  0.56123333  0.26922757  0.41979148  1  0  -0.038621  0  3.65854  0  0  -0.079695  0  3.92358  0  0  -0.076758  0  3.939985  0  0  -0.003798  -0.081622  0  3.912528  0
C  C52  1  0.85833912  0.76927635  0.41974614  1  0  -0.03629  0  3.661192  0  0  -0.077867  0  3.925734  0  0  -0.074994  0  3.942106  0  0  -0.00362  -0.079742  0  3.914747  0
C  C53  1  0.43876591  0.73077333  0.58020889  1  0  -0.038562  0  3.658514  0  0  -0.079624  0  3.923528  0  0  -0.076686  0  3.939932  0  0  -0.003759  -0.081547  0  3.912471  0
C  C54  1  0.02485274  0.27884609  0.54160711  1  0  0.011809  0  3.714695  0  0  -0.01853  0  3.98254  0  0  -0.01753  0  4.001965  0  0  -0.008874  -0.019149  0  3.969343  0
C  C55  1  0.48310670  0.22112352  0.45847697  1  0  0.014827  0  3.71257  0  0  -0.015761  0  3.980309  0  0  -0.014645  0  3.999712  0  0  -0.007836  -0.016447  0  3.967145  0
C  C56  1  0.97515004  0.72115271  0.45839100  1  0  0.011574  0  3.7149  0  0  -0.018796  0  3.982745  0  0  -0.017793  0  4.002163  0  0  -0.008993  -0.019412  0  3.969549  0
C  C57  1  0.51689143  0.77887876  0.54152303  1  0  0.014789  0  3.712605  0  0  -0.015796  0  3.98033  0  0  -0.014685  0  3.999743  0  0  -0.007854  -0.016477  0  3.967161  0
C  C58  1  0.73194257  0.97433107  0.77581801  1  0  0.00273  0  3.732995  0  0  -0.0289  0  4.005181  0  0  -0.028639  0  4.025873  0  0  -0.007443  -0.029047  0  3.991058  0
C  C59  1  0.95595953  0.52557883  0.22430439  1  0  0.003833  0  3.731639  0  0  -0.028344  0  4.003449  0  0  -0.028099  0  4.024236  0  0  -0.007287  -0.028455  0  3.989265  0
C  C60  1  0.26805699  0.02567265  0.22418956  1  0  0.002901  0  3.732822  0  0  -0.028689  0  4.004979  0  0  -0.02843  0  4.025673  0  0  -0.007352  -0.028826  0  3.990834  0
C  C61  1  0.04404333  0.47442068  0.77569606  1  0  0.00368  0  3.731614  0  0  -0.0285  0  4.003454  0  0  -0.028255  0  4.024241  0  0  -0.007337  -0.028605  0  3.989262  0
C  C62  1  0.93221275  0.26638148  0.64167206  1  0  0.184806  0  3.667112  0  0  0.124636  0  3.93742  0  0  0.139466  0  3.948108  0  0  0.134524  0.115119  0  3.929699  0
C  C63  1  0.29035016  0.23353609  0.35839430  1  0  0.187193  0  3.666671  0  0  0.127172  0  3.936581  0  0  0.142069  0  3.947359  0  0  0.136767  0.117629  0  3.928845  0
C  C64  1  0.06778870  0.73361663  0.35832522  1  0  0.184857  0  3.666845  0  0  0.124651  0  3.937127  0  0  0.139469  0  3.947825  0  0  0.134563  0.115137  0  3.929407  0
C  C65  1  0.70964900  0.76646411  0.64160538  1  0  0.187127  0  3.666789  0  0  0.127108  0  3.936689  0  0  0.142012  0  3.947471  0  0  0.136708  0.117562  0  3.928961  0
C  C66  1  0.59622168  0.00822675  0.80402385  1  0  -0.025445  0  3.639123  0  0  -0.067319  0  3.899325  0  0  -0.063928  0  3.915941  0  0  0.001357  -0.069447  0  3.888026  0
C  C67  1  0.79204584  0.49163727  0.19601110  1  0  -0.028363  0  3.637378  0  0  -0.070403  0  3.897952  0  0  -0.067084  0  3.914458  0  0  -0.000157  -0.072468  0  3.886699  0
C  C68  1  0.40377914  0.99177696  0.19598219  1  0  -0.025486  0  3.639096  0  0  -0.067337  0  3.899299  0  0  -0.063945  0  3.915913  0  0  0.001385  -0.069464  0  3.887988  0
C  C69  1  0.20795563  0.50836085  0.80398893  1  0  -0.028312  0  3.637402  0  0  -0.07037  0  3.897974  0  0  -0.067049  0  3.914479  0  0  -0.00015  -0.072434  0  3.886721  0
C  C70  1  0.15724013  0.18112234  0.70284210  1  0  0.577517  0  3.774995  0  0  0.532787  0  4.052657  0  0  0.559367  0  4.057765  0  0  0.370124  0.515171  0  4.048978  0
C  C71  1  0.45419044  0.31872229  0.29713550  1  0  0.578103  0  3.773173  0  0  0.533641  0  4.050337  0  0  0.560146  0  4.055612  0  0  0.373147  0.516073  0  4.046558  0
C  C72  1  0.84276029  0.81887785  0.29715661  1  0  0.577304  0  3.775153  0  0  0.53265  0  4.052701  0  0  0.559231  0  4.05781  0  0  0.3701  0.515038  0  4.04902  0
C  C73  1  0.54580998  0.68127792  0.70286486  1  0  0.577976  0  3.77319  0  0  0.533552  0  4.050307  0  0  0.560057  0  4.055581  0  0  0.373105  0.515988  0  4.046527  0
C  C74  1  0.15008194  0.14128825  0.81251394  1  0  0.572808  0  3.795896  0  0  0.526172  0  4.075857  0  0  0.55266  0  4.081341  0  0  0.36859  0.508603  0  4.071929  0
C  C75  1  0.33734891  0.35857001  0.18746294  1  0  0.572823  0  3.794106  0  0  0.52533  0  4.075464  0  0  0.551822  0  4.080901  0  0  0.368058  0.507794  0  4.071492  0
C  C76  1  0.84991367  0.85871403  0.18748525  1  0  0.5728  0  3.796024  0  0  0.526138  0  4.076006  0  0  0.552583  0  4.081526  0  0  0.368607  0.508599  0  4.072027  0
C  C77  1  0.66265262  0.64142880  0.81253615  1  0  0.572779  0  3.794188  0  0  0.525305  0  4.075549  0  0  0.551795  0  4.08099  0  0  0.368016  0.507772  0  4.071575  0
C  C78  1  0.11576921  0.09730266  0.93213988  1  0  -0.035856  0  3.644064  0  0  -0.074799  0  3.90069  0  0  -0.072088  0  3.917896  0  0  0.00626  -0.076487  0  3.889049  0
C  C79  1  0.18340302  0.40260118  0.06787359  1  0  -0.037953  0  3.641775  0  0  -0.07712  0  3.898325  0  0  -0.074479  0  3.915583  0  0  0.004944  -0.078785  0  3.886671  0
C  C80  1  0.88422618  0.90269753  0.06785832  1  0  -0.035851  0  3.643899  0  0  -0.074784  0  3.900506  0  0  -0.072093  0  3.917703  0  0  0.006235  -0.076482  0  3.888884  0
C  C81  1  0.81659851  0.59739763  0.93212604  1  0  -0.037816  0  3.641721  0  0  -0.076983  0  3.898274  0  0  -0.07434  0  3.915531  0  0  0.00494  -0.078652  0  3.886618  0
C  C82  1  0.91380049  0.17760584  0.87709981  1  0  0.195185  0  3.62716  0  0  0.133029  0  3.898805  0  0  0.148169  0  3.909936  0  0  0.14878  0.123284  0  3.890854  0
C  C83  1  0.03641311  0.32235162  0.12294395  1  0  0.195604  0  3.625398  0  0  0.133412  0  3.897322  0  0  0.148586  0  3.908409  0  0  0.149721  0.123624  0  3.889395  0
C  C84  1  0.08619763  0.82239644  0.12289964  1  0  0.195303  0  3.627129  0  0  0.13313  0  3.89879  0  0  0.148254  0  3.909907  0  0  0.148827  0.123386  0  3.890834  0
C  C85  1  0.96358731  0.67764858  0.87705585  1  0  0.195511  0  3.625519  0  0  0.133314  0  3.897442  0  0  0.148487  0  3.90853  0  0  0.149683  0.12353  0  3.889517  0
C  C86  1  0.99092971  0.11195521  0.97235620  1  0  -0.005244  0  3.73985  0  0  -0.034739  0  4.000443  0  0  -0.034335  0  4.021875  0  0  -0.004434  -0.034975  0  3.985863  0
C  C87  1  0.01829295  0.38799808  0.02768882  1  0  -0.003769  0  3.739842  0  0  -0.033781  0  4.000512  0  0  -0.033321  0  4.02198  0  0  -0.003702  -0.034036  0  3.985895  0
C  C88  1  0.00906575  0.88804568  0.02764270  1  0  -0.005127  0  3.73972  0  0  -0.034619  0  4.0003  0  0  -0.034218  0  4.021737  0  0  -0.004375  -0.034854  0  3.985726  0
C  C89  1  0.98170732  0.61200073  0.97231014  1  0  -0.003979  0  3.739925  0  0  -0.033994  0  4.000606  0  0  -0.033534  0  4.022076  0  0  -0.003758  -0.034242  0  3.985975  0
I  I90  1  0.14630624  0.86692516  0.69268171  1  0  -0.318743  0  1.178617  0  0  -0.278141  0  1.520786  0  0  -0.296079  0  1.503604  0  0  -0.18244  -0.265945  0  1.532561  0
I  I91  1  0.45334253  0.63296790  0.30722760  1  0  -0.319163  0  1.178697  0  0  -0.278545  0  1.521085  0  0  -0.296491  0  1.503921  0  0  -0.18278  -0.266278  0  1.532767  0
I  I92  1  0.85369293  0.13307504  0.30731852  1  0  -0.318774  0  1.178622  0  0  -0.278174  0  1.520792  0  0  -0.296112  0  1.503612  0  0  -0.182454  -0.265977  0  1.532562  0
I  I93  1  0.54666270  0.36703023  0.69277336  1  0  -0.319183  0  1.178709  0  0  -0.278589  0  1.521107  0  0  -0.296533  0  1.503941  0  0  -0.182797  -0.26633  0  1.532804  0
I  I94  1  0.75180063  0.03468614  0.50358513  1  0  -0.319733  0  1.272376  0  0  -0.2808  0  1.639005  0  0  -0.301015  0  1.622963  0  0  -0.159178  -0.267185  0  1.650267  0
I  I95  1  0.24838228  0.46546732  0.49655131  1  0  -0.319555  0  1.272355  0  0  -0.28057  0  1.638903  0  0  -0.300805  0  1.622866  0  0  -0.159276  -0.266944  0  1.650197  0
I  I96  1  0.24819611  0.96531477  0.49641719  1  0  -0.319733  0  1.27238  0  0  -0.280812  0  1.639043  0  0  -0.301025  0  1.622997  0  0  -0.159178  -0.267202  0  1.650311  0
I  I97  1  0.75161319  0.53453357  0.50344869  1  0  -0.319531  0  1.272334  0  0  -0.280536  0  1.638873  0  0  -0.30077  0  1.622835  0  0  -0.159262  -0.266911  0  1.650168  0
I  I98  1  0.51534582  0.35027082  0.90039505  1  0  -0.350643  0  1.117941  0  0  -0.30633  0  1.445387  0  0  -0.323569  0  1.425669  0  0  -0.200141  -0.294765  0  1.458852  0
I  I99  1  0.61488111  0.14956035  0.09953594  1  0  -0.350797  0  1.118758  0  0  -0.306448  0  1.446369  0  0  -0.323678  0  1.426598  0  0  -0.200149  -0.294884  0  1.459863  0
I  I100  1  0.48464795  0.64972591  0.09960393  1  0  -0.350663  0  1.117883  0  0  -0.30636  0  1.445335  0  0  -0.323601  0  1.425619  0  0  -0.200154  -0.294799  0  1.458792  0
I  I101  1  0.38511790  0.85043846  0.90046289  1  0  -0.350803  0  1.118745  0  0  -0.306459  0  1.446361  0  0  -0.323689  0  1.42659  0  0  -0.200154  -0.294896  0  1.459858  0
N  N102  1  0.73621525  0.00358526  0.70949159  1  0  -0.329888  0  3.166682  0  0  -0.271417  0  3.447004  0  0  -0.289813  0  3.466875  0  0  -0.333838  -0.2588  0  3.433055  0
N  N103  1  0.02650136  0.49627139  0.29061520  1  0  -0.329228  0  3.168852  0  0  -0.270284  0  3.448869  0  0  -0.28868  0  3.46873  0  0  -0.331286  -0.257666  0  3.434924  0
N  N104  1  0.26378504  0.99641358  0.29051287  1  0  -0.329992  0  3.166767  0  0  -0.27151  0  3.447067  0  0  -0.289908  0  3.466945  0  0  -0.333877  -0.258895  0  3.43312  0
N  N105  1  0.97350165  0.50372951  0.70938445  1  0  -0.329176  0  3.168822  0  0  -0.270262  0  3.448852  0  0  -0.288657  0  3.468714  0  0  -0.331325  -0.257639  0  3.434902  0
N  N106  1  0.51533838  0.05927367  0.75345910  1  0  -0.151257  0  3.538788  0  0  -0.061639  0  3.753445  0  0  -0.080914  0  3.776026  0  0  -0.21623  -0.048731  0  3.73768  0
N  N107  1  0.76170310  0.44051949  0.24651701  1  0  -0.150944  0  3.540037  0  0  -0.061612  0  3.754905  0  0  -0.080861  0  3.777485  0  0  -0.217426  -0.048734  0  3.739164  0
N  N108  1  0.48466108  0.94072932  0.24654282  1  0  -0.151249  0  3.538729  0  0  -0.061674  0  3.753366  0  0  -0.080951  0  3.775945  0  0  -0.21623  -0.048771  0  3.737609  0
N  N109  1  0.23829844  0.55947932  0.75348262  1  0  -0.150852  0  3.540018  0  0  -0.061506  0  3.754852  0  0  -0.080756  0  3.777434  0  0  -0.217348  -0.048626  0  3.739107  0
N  N110  1  0.86663189  0.16153525  0.93725867  1  0  -0.325585  0  3.220387  0  0  -0.259813  0  3.496803  0  0  -0.279257  0  3.517636  0  0  -0.330687  -0.246536  0  3.482173  0
N  N111  1  0.92905981  0.33846268  0.06280851  1  0  -0.324866  0  3.220106  0  0  -0.258879  0  3.496538  0  0  -0.278306  0  3.517328  0  0  -0.33042  -0.245616  0  3.481938  0
N  N112  1  0.13336609  0.83846565  0.06274103  1  0  -0.325699  0  3.220319  0  0  -0.259916  0  3.496737  0  0  -0.279361  0  3.517575  0  0  -0.330717  -0.246643  0  3.48211  0
N  N113  1  0.07094069  0.66153821  0.93719089  1  0  -0.324686  0  3.220088  0  0  -0.258685  0  3.496482  0  0  -0.278111  0  3.517274  0  0  -0.330338  -0.245426  0  3.481881  0
N  N114  1  0.89581743  0.30078215  0.58068980  1  0  -0.325301  0  3.149333  0  0  -0.260273  0  3.418825  0  0  -0.278617  0  3.437758  0  0  -0.329972  -0.247677  0  3.405449  0
N  N115  1  0.31495829  0.19916904  0.41939910  1  0  -0.326506  0  3.150747  0  0  -0.261664  0  3.420348  0  0  -0.279974  0  3.439161  0  0  -0.330801  -0.24909  0  3.407043  0
N  N116  1  0.10418654  0.69921596  0.41930719  1  0  -0.325164  0  3.149101  0  0  -0.260128  0  3.418609  0  0  -0.278471  0  3.437548  0  0  -0.329926  -0.247537  0  3.405243  0
N  N117  1  0.68503969  0.80083186  0.58060060  1  0  -0.326438  0  3.150788  0  0  -0.261604  0  3.420397  0  0  -0.279913  0  3.439204  0  0  -0.330736  -0.249031  0  3.407093  0
N  N118  1  0.29657911  0.10084195  0.81592569  1  0  -0.523693  0  2.981013  0  0  -0.493871  0  3.260937  0  0  -0.513943  0  3.267164  0  0  -0.31765  -0.480902  0  3.256785  0
N  N119  1  0.48044275  0.39900684  0.18402856  1  0  -0.523719  0  2.981946  0  0  -0.493524  0  3.261984  0  0  -0.513627  0  3.268296  0  0  -0.315628  -0.480546  0  3.25774  0
N  N120  1  0.70341636  0.89915895  0.18407431  1  0  -0.523665  0  2.980954  0  0  -0.493852  0  3.260858  0  0  -0.513919  0  3.267096  0  0  -0.317635  -0.480892  0  3.25669  0
N  N121  1  0.51955871  0.60099128  0.81597147  1  0  -0.523707  0  2.982002  0  0  -0.493525  0  3.262047  0  0  -0.513626  0  3.268354  0  0  -0.315609  -0.480544  0  3.257797  0
N  N122  1  0.30381434  0.14281339  0.69822421  1  0  -0.507263  0  2.964418  0  0  -0.477085  0  3.241578  0  0  -0.496948  0  3.248119  0  0  -0.310206  -0.464402  0  3.23735  0
N  N123  1  0.60541443  0.35698315  0.30171481  1  0  -0.509702  0  2.965274  0  0  -0.479018  0  3.241732  0  0  -0.498843  0  3.248301  0  0  -0.310942  -0.466363  0  3.237488  0
N  N124  1  0.69618622  0.85718820  0.30177534  1  0  -0.507228  0  2.964511  0  0  -0.477066  0  3.24159  0  0  -0.496932  0  3.248128  0  0  -0.310222  -0.46439  0  3.237374  0
N  N125  1  0.39458489  0.64301846  0.69828681  1  0  -0.509692  0  2.965304  0  0  -0.478999  0  3.241756  0  0  -0.498826  0  3.248323  0  0  -0.310935  -0.466349  0  3.237513  0
N  N126  1  0.07302839  0.18266206  0.75837189  1  0  -0.524839  0  2.963361  0  0  -0.492672  0  3.234284  0  0  -0.513825  0  3.241571  0  0  -0.314183  -0.479088  0  3.229529  0
N  N127  1  0.31443516  0.31721522  0.24162001  1  0  -0.525121  0  2.960983  0  0  -0.492998  0  3.232539  0  0  -0.514109  0  3.239866  0  0  -0.316377  -0.479458  0  3.227735  0
N  N128  1  0.92697211  0.81733883  0.24162696  1  0  -0.524757  0  2.96351  0  0  -0.49261  0  3.234404  0  0  -0.513758  0  3.241712  0  0  -0.31417  -0.479032  0  3.229628  0
N  N129  1  0.68556503  0.68278289  0.75837880  1  0  -0.525029  0  2.961009  0  0  -0.492942  0  3.232567  0  0  -0.514054  0  3.239896  0  0  -0.316364  -0.479405  0  3.227764  0
N  N130  1  0.08239083  0.22313233  0.64465445  1  0  -0.153773  0  3.555359  0  0  -0.063938  0  3.76758  0  0  -0.083371  0  3.790469  0  0  -0.216782  -0.050919  0  3.751628  0
N  N131  1  0.43753843  0.27677222  0.35537448  1  0  -0.153998  0  3.55459  0  0  -0.064998  0  3.767644  0  0  -0.084457  0  3.790622  0  0  -0.219428  -0.051958  0  3.751645  0
N  N132  1  0.91761070  0.77686648  0.35534464  1  0  -0.1537  0  3.555237  0  0  -0.06388  0  3.767444  0  0  -0.083314  0  3.790338  0  0  -0.216735  -0.050858  0  3.751493  0
N  N133  1  0.56246074  0.72322798  0.64462520  1  0  -0.154031  0  3.554659  0  0  -0.065058  0  3.76773  0  0  -0.084515  0  3.790704  0  0  -0.219481  -0.05202  0  3.751733  0
N  N134  1  0.06584357  0.13945246  0.87119323  1  0  -0.143034  0  3.531232  0  0  -0.053108  0  3.743486  0  0  -0.072119  0  3.765968  0  0  -0.212574  -0.040429  0  3.727898  0
N  N135  1  0.19441220  0.36043140  0.12880439  1  0  -0.142093  0  3.527815  0  0  -0.052173  0  3.740719  0  0  -0.071189  0  3.76321  0  0  -0.211688  -0.039466  0  3.725058  0
N  N136  1  0.93415314  0.86054843  0.12880525  1  0  -0.143184  0  3.531169  0  0  -0.053256  0  3.743473  0  0  -0.072198  0  3.76589  0  0  -0.212668  -0.040582  0  3.727868  0
N  N137  1  0.80558808  0.63956741  0.87119512  1  0  -0.142108  0  3.527818  0  0  -0.052184  0  3.740717  0  0  -0.071199  0  3.763207  0  0  -0.211679  -0.039482  0  3.725062  0
