# generated using pymatgen
data_Pr2H10C14N4O15
_symmetry_space_group_name_H-M   'P 1'
_cell_length_a   11.03874347
_cell_length_b   12.09464629
_cell_length_c   19.38642544
_cell_angle_alpha   90.00007089
_cell_angle_beta   90.00000757
_cell_angle_gamma   89.99983455
_symmetry_Int_Tables_number   1
_chemical_formula_structural   Pr2H10C14N4O15
_chemical_formula_sum   'Pr8 H40 C56 N16 O60'
_cell_volume   2588.27580091
_cell_formula_units_Z   4
loop_
 _symmetry_equiv_pos_site_id
 _symmetry_equiv_pos_as_xyz
  1  'x, y, z'
loop_
 _atom_site_type_symbol
 _atom_site_label
 _atom_site_symmetry_multiplicity
 _atom_site_fract_x
 _atom_site_fract_y
 _atom_site_fract_z
 _atom_site_occupancy
 _atom_site_pbe_bader_charge
 _atom_site_pbe_bader_spin_density
 _atom_site_pbe_cm5_charge
 _atom_site_pbe_ddec_charge
 _atom_site_pbe_ddec_spin_density
 _atom_site_pbe_ddec_sum_bond_order
 _atom_site_pbe_magmom
Pr  Pr0  1  0.86332645  0.66420330  0.64690603  1  2.240943  0  1.477608  1.99484  0  2.215102  0
Pr  Pr1  1  0.13667356  0.33579565  0.14690447  1  2.240793  0  1.477599  1.994813  0  2.215177  0
Pr  Pr2  1  0.36332538  0.83579674  0.14690467  1  2.240881  0  1.477584  1.994719  0  2.215311  0
Pr  Pr3  1  0.63667464  0.16420303  0.64690428  1  2.240902  0  1.477573  1.994671  0  2.215385  0
Pr  Pr4  1  0.38230644  0.48194831  0.86617071  1  2.261494  0  1.474976  2.020438  0  2.175909  0
Pr  Pr5  1  0.61769362  0.51805190  0.36617036  1  2.261512  0  1.475004  2.020436  0  2.175915  0
Pr  Pr6  1  0.88231149  0.01805181  0.36617121  1  2.261446  0  1.474999  2.020481  0  2.17576  0
Pr  Pr7  1  0.11768858  0.98194922  0.86617141  1  2.261473  0  1.475016  2.020461  0  2.175889  0
H  H8  1  0.64382347  0.51000820  0.75047276  1  0.127378  0  0.142235  0.083253  0  1.004575  0
H  H9  1  0.35617748  0.48999096  0.25047185  1  0.127359  0  0.142233  0.083206  0  1.004577  0
H  H10  1  0.14382190  0.98999015  0.25047307  1  0.127382  0  0.142231  0.083249  0  1.004621  0
H  H11  1  0.85617814  0.01000900  0.75047361  1  0.127396  0  0.142241  0.083268  0  1.004568  0
H  H12  1  0.78883869  0.75916636  0.92939187  1  0.154008  0  0.133216  0.160399  0  0.967803  0
H  H13  1  0.21116139  0.24083481  0.42938973  1  0.154113  0  0.133165  0.160324  0  0.967835  0
H  H14  1  0.28885150  0.74083692  0.42938992  1  0.153995  0  0.133176  0.16037  0  0.967876  0
H  H15  1  0.71114948  0.25916507  0.92939013  1  0.153973  0  0.13319  0.16042  0  0.96786  0
H  H16  1  0.14262224  0.61355219  0.75173243  1  0.162262  0  0.144158  0.090885  0  0.987161  0
H  H17  1  0.85737689  0.38644779  0.25173045  1  0.162258  0  0.144164  0.090894  0  0.987146  0
H  H18  1  0.64261978  0.88644699  0.25172908  1  0.162223  0  0.144152  0.090895  0  0.98715  0
H  H19  1  0.35738116  0.11355300  0.75173018  1  0.162265  0  0.144154  0.090892  0  0.987141  0
H  H20  1  0.98997290  0.23650491  0.74946475  1  0.114224  0  0.127376  0.146626  0  1.000433  0
H  H21  1  0.01002895  0.76349424  0.24946506  1  0.114203  0  0.127395  0.146653  0  1.000409  0
H  H22  1  0.48997386  0.26349552  0.24946385  1  0.114232  0  0.127384  0.146639  0  1.000406  0
H  H23  1  0.51002618  0.73650280  0.74946183  1  0.114175  0  0.127375  0.146658  0  1.00038  0
H  H24  1  0.10739448  0.60834234  0.59134752  1  0.62175  0  0.330869  0.409746  0  0.869942  0
H  H25  1  0.89260461  0.39165650  0.09134709  1  0.621744  0  0.330876  0.409742  0  0.869952  0
H  H26  1  0.60739654  0.89165579  0.09134676  1  0.621742  0  0.330873  0.409757  0  0.869943  0
H  H27  1  0.39260346  0.10834635  0.59134631  1  0.621764  0  0.330876  0.409708  0  0.869947  0
H  H28  1  0.09781529  0.73500334  0.57829514  1  0.656811  0  0.295532  0.407194  0  0.928725  0
H  H29  1  0.90218380  0.26499630  0.07829513  1  0.656812  0  0.295522  0.407149  0  0.928786  0
H  H30  1  0.59781050  0.76499396  0.07829479  1  0.656761  0  0.295519  0.407144  0  0.928793  0
H  H31  1  0.40219040  0.23500733  0.57829392  1  0.656738  0  0.295533  0.407188  0  0.928759  0
H  H32  1  0.91408824  0.86390719  0.54250007  1  0.632595  0  0.300609  0.404703  0  0.925727  0
H  H33  1  0.08591084  0.13609155  0.04249990  1  0.632592  0  0.300626  0.404727  0  0.925696  0
H  H34  1  0.41408146  0.63609416  0.04249752  1  0.632582  0  0.300633  0.404739  0  0.925664  0
H  H35  1  0.58591944  0.36390541  0.54249780  1  0.632588  0  0.300631  0.404724  0  0.925687  0
H  H36  1  0.83021542  0.90310901  0.60657326  1  0.646795  0  0.302127  0.398032  0  0.932709  0
H  H37  1  0.16978458  0.09688903  0.10657255  1  0.64686  0  0.302139  0.398048  0  0.932689  0
H  H38  1  0.33021328  0.59688939  0.10657275  1  0.646841  0  0.302118  0.397984  0  0.932763  0
H  H39  1  0.66978762  0.40310948  0.60657306  1  0.646771  0  0.302139  0.397969  0  0.932774  0
H  H40  1  0.46694122  0.38044861  0.73021111  1  0.662837  0  0.302288  0.395591  0  0.943842  0
H  H41  1  0.53305972  0.61955133  0.23021031  1  0.662853  0  0.302263  0.395543  0  0.943907  0
H  H42  1  0.96694232  0.11955185  0.23021323  1  0.662825  0  0.302287  0.395582  0  0.943852  0
H  H43  1  0.03305681  0.88044726  0.73021386  1  0.662855  0  0.302269  0.395551  0  0.943896  0
H  H44  1  0.40379256  0.48392584  0.69315583  1  0.644434  0  0.341734  0.432549  0  0.840672  0
H  H45  1  0.59620656  0.51607485  0.19315445  1  0.644478  0  0.341673  0.432478  0  0.840754  0
H  H46  1  0.90379217  0.01607553  0.19315788  1  0.644451  0  0.341732  0.432547  0  0.840689  0
H  H47  1  0.09620694  0.98392268  0.69315860  1  0.644528  0  0.341706  0.432513  0  0.840747  0
C  C48  1  0.67590312  0.56679530  0.79014075  1  1.085907  0  0.199489  0.270023  0  3.955744  0
C  C49  1  0.32409693  0.43320476  0.29013979  1  1.086408  0  0.199528  0.270089  0  3.955771  0
C  C50  1  0.17590445  0.93320552  0.29014050  1  1.085936  0  0.199512  0.270044  0  3.955796  0
C  C51  1  0.82409650  0.06679702  0.79014056  1  1.08596  0  0.199477  0.269977  0  3.955815  0
C  C52  1  0.64931031  0.64387831  0.89691859  1  0.515223  0  0.146992  0.164812  0  3.936606  0
C  C53  1  0.35068885  0.35612279  0.39691706  1  0.515539  0  0.147014  0.164867  0  3.936621  0
C  C54  1  0.14932004  0.85612362  0.39692034  1  0.515483  0  0.147015  0.16508  0  3.936569  0
C  C55  1  0.85068184  0.14387830  0.89692046  1  0.515349  0  0.146946  0.164978  0  3.93664  0
C  C56  1  0.75584498  0.70460668  0.88896563  1  0.037003  0  -0.048734  -0.15764  0  3.828606  0
C  C57  1  0.24415509  0.29539357  0.38896353  1  0.036809  0  -0.048695  -0.1576  0  3.828697  0
C  C58  1  0.25585581  0.79539826  0.38896527  1  0.036976  0  -0.04872  -0.157797  0  3.828804  0
C  C59  1  0.74414698  0.20460365  0.88896595  1  0.036974  0  -0.048691  -0.157817  0  3.828721  0
C  C60  1  0.81475387  0.69586548  0.82587354  1  0.499529  0  0.14328  0.163378  0  3.922416  0
C  C61  1  0.18524619  0.30413547  0.32587247  1  0.499514  0  0.143275  0.163336  0  3.922475  0
C  C62  1  0.31475832  0.80413669  0.32587112  1  0.499495  0  0.143381  0.163612  0  3.922518  0
C  C63  1  0.68524445  0.19586674  0.82587076  1  0.500083  0  0.143346  0.163562  0  3.922241  0
C  C64  1  0.91758610  0.77314332  0.80727551  1  1.611102  0  0.241035  0.589955  0  4.164449  0
C  C65  1  0.08241395  0.22685760  0.30727386  1  1.610859  0  0.241083  0.590066  0  4.164436  0
C  C66  1  0.41759352  0.72686103  0.30727200  1  1.610682  0  0.240909  0.589699  0  4.164749  0
C  C67  1  0.58240834  0.27314155  0.80727221  1  1.610816  0  0.240904  0.589783  0  4.164543  0
C  C68  1  0.57500203  0.65314621  0.96229268  1  1.649038  0  0.229595  0.566054  0  4.2217  0
C  C69  1  0.42499715  0.34685419  0.46229115  1  1.649484  0  0.229428  0.565873  0  4.221791  0
C  C70  1  0.07501269  0.84685439  0.46229546  1  1.650364  0  0.229421  0.565604  0  4.222152  0
C  C71  1  0.92498740  0.15314683  0.96229508  1  1.650339  0  0.229433  0.565672  0  4.222054  0
C  C72  1  0.10883592  0.52892306  0.75125577  1  1.054189  0  0.207956  0.285934  0  3.91462  0
C  C73  1  0.89116412  0.47107693  0.25125489  1  1.054182  0  0.20795  0.28592  0  3.914635  0
C  C74  1  0.60883319  0.97107621  0.25125404  1  1.054228  0  0.207932  0.285785  0  3.914711  0
C  C75  1  0.39116594  0.02892294  0.75125353  1  1.054199  0  0.20797  0.285884  0  3.914601  0
C  C76  1  0.13142573  0.34768750  0.78355975  1  0.493496  0  0.147476  0.161512  0  3.918082  0
C  C77  1  0.86857431  0.65231172  0.28355900  1  0.493473  0  0.147438  0.161489  0  3.918059  0
C  C78  1  0.63142583  0.15231229  0.28355726  1  0.493439  0  0.147491  0.161644  0  3.918034  0
C  C79  1  0.36857331  0.84768858  0.78355634  1  0.493794  0  0.147413  0.16151  0  3.918196  0
C  C80  1  0.02378762  0.32076660  0.75024003  1  0.05265  0  -0.053324  -0.157426  0  3.843238  0
C  C81  1  0.97621333  0.67923255  0.25024086  1  0.052591  0  -0.053306  -0.157408  0  3.843188  0
C  C82  1  0.52378762  0.17923258  0.25024013  1  0.052643  0  -0.053313  -0.157457  0  3.843182  0
C  C83  1  0.47621423  0.82076657  0.75023766  1  0.05242  0  -0.053181  -0.157372  0  3.843028  0
C  C84  1  0.96142409  0.40635692  0.71809131  1  0.496642  0  0.14317  0.158133  0  3.943918  0
C  C85  1  0.03857685  0.59364216  0.21809149  1  0.496772  0  0.143175  0.158132  0  3.943921  0
C  C86  1  0.46142377  0.09364435  0.21808977  1  0.49663  0  0.143202  0.158143  0  3.943843  0
C  C87  1  0.53857626  0.90635640  0.71808788  1  0.496589  0  0.143133  0.158111  0  3.943858  0
C  C88  1  0.83958597  0.38666735  0.68466224  1  1.624412  0  0.242393  0.594692  0  4.179009  0
C  C89  1  0.16041677  0.61333250  0.18466296  1  1.624407  0  0.242394  0.59477  0  4.179002  0
C  C90  1  0.33958559  0.11333500  0.18466071  1  1.624094  0  0.242381  0.594638  0  4.179146  0
C  C91  1  0.66041624  0.88666484  0.68466036  1  1.624138  0  0.242402  0.594688  0  4.179046  0
C  C92  1  0.20619888  0.25999822  0.82011984  1  1.649259  0  0.239973  0.604782  0  4.194343  0
C  C93  1  0.79380298  0.74000107  0.32011967  1  1.649217  0  0.239999  0.604793  0  4.19426  0
C  C94  1  0.70619869  0.23999814  0.32011844  1  1.649354  0  0.239931  0.604539  0  4.194482  0
C  C95  1  0.29380226  0.76000364  0.82011849  1  1.649227  0  0.239911  0.60455  0  4.194488  0
C  C96  1  0.32074786  0.38474007  0.01888090  1  1.594008  0  0.213403  0.503038  0  4.228347  0
C  C97  1  0.67925212  0.61525945  0.51888189  1  1.594016  0  0.213471  0.50318  0  4.228107  0
C  C98  1  0.82074909  0.11526531  0.51887809  1  1.594194  0  0.213288  0.502922  0  4.228511  0
C  C99  1  0.17924636  0.88473421  0.01887954  1  1.594259  0  0.21345  0.503062  0  4.228314  0
C  C100  1  0.19631254  0.43111379  0.99277525  1  1.594089  0  0.214016  0.512605  0  4.219007  0
C  C101  1  0.80368846  0.56888419  0.49277650  1  1.593186  0  0.21402  0.512454  0  4.219082  0
C  C102  1  0.69631652  0.06888625  0.49277475  1  1.594555  0  0.213999  0.512536  0  4.219072  0
C  C103  1  0.30368086  0.93111256  0.99277596  1  1.594549  0  0.213942  0.512428  0  4.219107  0
N  N104  1  0.77689369  0.62408001  0.77718996  1  -1.223777  0  -0.349352  -0.369286  0  3.447038  0
N  N105  1  0.22310635  0.37592085  0.27718844  1  -1.223922  0  -0.349391  -0.369328  0  3.447037  0
N  N106  1  0.27689792  0.87592300  0.27718760  1  -1.223976  0  -0.349452  -0.369388  0  3.44704  0
N  N107  1  0.72310303  0.12407868  0.77718770  1  -1.224518  0  -0.349423  -0.369365  0  3.447022  0
N  N108  1  0.60751127  0.57710580  0.84688148  1  -1.225147  0  -0.339682  -0.36445  0  3.420014  0
N  N109  1  0.39248879  0.42289355  0.34687949  1  -1.22569  0  -0.339664  -0.364411  0  3.420047  0
N  N110  1  0.10751807  0.92289449  0.34688277  1  -1.225213  0  -0.339671  -0.364537  0  3.420106  0
N  N111  1  0.89248199  0.07710651  0.84688285  1  -1.225106  0  -0.339633  -0.364434  0  3.42005  0
N  N112  1  0.00492738  0.51022811  0.71717728  1  -1.185073  0  -0.337766  -0.371683  0  3.412784  0
N  N113  1  0.99507265  0.48977098  0.21717693  1  -1.1851  0  -0.337787  -0.371711  0  3.412847  0
N  N114  1  0.50492640  0.98977302  0.21717504  1  -1.185115  0  -0.337799  -0.371592  0  3.412813  0
N  N115  1  0.49507453  0.01022772  0.71717452  1  -1.185133  0  -0.337818  -0.371656  0  3.412764  0
N  N116  1  0.17333070  0.45228331  0.78496026  1  -1.212166  0  -0.322969  -0.347841  0  3.39749  0
N  N117  1  0.82667025  0.54771591  0.28495994  1  -1.212159  0  -0.322921  -0.347771  0  3.397438  0
N  N118  1  0.67332931  0.04771472  0.28495871  1  -1.212102  0  -0.3229  -0.347752  0  3.397332  0
N  N119  1  0.32667073  0.95228533  0.78495839  1  -1.21209  0  -0.322898  -0.347756  0  3.397404  0
O  O120  1  0.96232127  0.76312886  0.74655312  1  -1.186308  0  -0.36034  -0.627742  0  2.319097  0
O  O121  1  0.03767604  0.23687112  0.24655199  1  -1.1861  0  -0.360371  -0.627761  0  2.319134  0
O  O122  1  0.46232232  0.73687278  0.24654756  1  -1.186014  0  -0.360264  -0.627551  0  2.31919  0
O  O123  1  0.53767953  0.26313050  0.74654724  1  -1.18608  0  -0.36024  -0.627571  0  2.31916  0
O  O124  1  0.94716998  0.84412598  0.85127952  1  -1.167699  0  -0.344586  -0.573735  0  2.269524  0
O  O125  1  0.05283008  0.15587420  0.35127730  1  -1.167611  0  -0.344589  -0.573788  0  2.269487  0
O  O126  1  0.44717490  0.65587260  0.35127390  1  -1.16755  0  -0.344563  -0.57368  0  2.269558  0
O  O127  1  0.55282788  0.34413006  0.85127416  1  -1.167601  0  -0.344581  -0.57375  0  2.269531  0
O  O128  1  0.46534648  0.61951246  0.95908062  1  -1.184397  0  -0.34016  -0.61091  0  2.24475  0
O  O129  1  0.53465360  0.38048711  0.45908016  1  -1.184379  0  -0.340126  -0.61086  0  2.244785  0
O  O130  1  0.96535763  0.88049041  0.45908243  1  -1.184896  0  -0.340154  -0.610776  0  2.245036  0
O  O131  1  0.03464245  0.11951081  0.95908299  1  -1.184905  0  -0.340153  -0.61079  0  2.245004  0
O  O132  1  0.62999271  0.69253204  0.01334829  1  -1.176146  0  -0.303626  -0.528358  0  2.165459  0
O  O133  1  0.37000636  0.30746829  0.51334644  1  -1.176628  0  -0.303566  -0.528318  0  2.165453  0
O  O134  1  0.13000452  0.80746339  0.51334869  1  -1.176968  0  -0.3035  -0.528157  0  2.165515  0
O  O135  1  0.86999636  0.19253529  0.01334862  1  -1.17696  0  -0.303501  -0.528159  0  2.165468  0
O  O136  1  0.79176156  0.46685906  0.65174491  1  -1.186603  0  -0.356155  -0.62819  0  2.315258  0
O  O137  1  0.20823936  0.53313990  0.15174402  1  -1.186602  0  -0.356157  -0.628208  0  2.315233  0
O  O138  1  0.29176053  0.03314501  0.15174228  1  -1.186582  0  -0.35612  -0.628155  0  2.315262  0
O  O139  1  0.70824039  0.96685726  0.65174303  1  -1.186614  0  -0.356132  -0.628164  0  2.315195  0
O  O140  1  0.79323483  0.29301524  0.69392281  1  -1.189381  0  -0.361465  -0.597691  0  2.331366  0
O  O141  1  0.20676700  0.70698298  0.19392515  1  -1.189394  0  -0.36146  -0.597765  0  2.331405  0
O  O142  1  0.29323325  0.20698560  0.19392290  1  -1.189106  0  -0.361509  -0.59771  0  2.331428  0
O  O143  1  0.70676677  0.79301344  0.69392248  1  -1.189127  0  -0.361528  -0.597737  0  2.331385  0
O  O144  1  0.30212732  0.29097878  0.84926705  1  -1.173135  0  -0.354796  -0.591719  0  2.258029  0
O  O145  1  0.69787455  0.70902140  0.34926685  1  -1.173095  0  -0.354826  -0.591766  0  2.258009  0
O  O146  1  0.80212814  0.20901904  0.34926512  1  -1.173086  0  -0.354832  -0.591675  0  2.258057  0
O  O147  1  0.19787101  0.79098444  0.84926415  1  -1.173001  0  -0.354835  -0.591679  0  2.258073  0
O  O148  1  0.16586020  0.16179780  0.81681181  1  -1.20251  0  -0.396864  -0.661493  0  2.302426  0
O  O149  1  0.83413985  0.83820149  0.31681121  1  -1.202478  0  -0.396871  -0.661478  0  2.302386  0
O  O150  1  0.66586605  0.33820114  0.31681049  1  -1.202537  0  -0.396833  -0.661393  0  2.302461  0
O  O151  1  0.33413491  0.66179980  0.81681150  1  -1.202534  0  -0.396801  -0.661368  0  2.30236  0
O  O152  1  0.40962855  0.39261381  0.97824910  1  -1.16573  0  -0.385106  -0.578044  0  2.259692  0
O  O153  1  0.59037154  0.60738745  0.47825088  1  -1.165688  0  -0.38516  -0.578119  0  2.259558  0
O  O154  1  0.90962787  0.10739225  0.47824812  1  -1.165801  0  -0.385042  -0.577964  0  2.259826  0
O  O155  1  0.09036588  0.89260984  0.97824980  1  -1.165874  0  -0.385136  -0.578024  0  2.259699  0
O  O156  1  0.32268746  0.34435036  0.07922929  1  -1.182058  0  -0.399926  -0.600597  0  2.251385  0
O  O157  1  0.67730982  0.65564928  0.57923032  1  -1.1821  0  -0.399948  -0.600656  0  2.25129  0
O  O158  1  0.82268947  0.15564935  0.57922807  1  -1.182083  0  -0.399898  -0.600562  0  2.251411  0
O  O159  1  0.17730871  0.84434698  0.07922793  1  -1.182179  0  -0.399921  -0.60058  0  2.251364  0
O  O160  1  0.19748650  0.48324506  0.93612481  1  -1.184139  0  -0.389848  -0.601739  0  2.243106  0
O  O161  1  0.80251268  0.51675446  0.43612550  1  -1.184107  0  -0.389826  -0.601688  0  2.243149  0
O  O162  1  0.69748883  0.01675569  0.43612478  1  -1.184827  0  -0.389831  -0.601712  0  2.243135  0
O  O163  1  0.30250672  0.98324218  0.93612603  1  -1.184735  0  -0.389808  -0.601676  0  2.243275  0
O  O164  1  0.10446957  0.41354650  0.03048180  1  -1.190363  0  -0.394324  -0.617271  0  2.244555  0
O  O165  1  0.89553041  0.58645139  0.53048485  1  -1.189467  0  -0.394367  -0.617213  0  2.244568  0
O  O166  1  0.60447090  0.08645203  0.53047794  1  -1.190271  0  -0.394291  -0.617205  0  2.244561  0
O  O167  1  0.39552909  0.91354421  0.03047891  1  -1.190255  0  -0.394333  -0.617225  0  2.244524  0
O  O168  1  0.08560386  0.67642871  0.61514048  1  -1.258941  0  -0.632801  -0.826981  0  2.000554  0
O  O169  1  0.91439524  0.32357183  0.11514052  1  -1.258932  0  -0.632796  -0.826934  0  2.000603  0
O  O170  1  0.58560069  0.82357117  0.11513915  1  -1.258891  0  -0.632803  -0.82694  0  2.000619  0
O  O171  1  0.41440113  0.17643185  0.61513876  1  -1.258906  0  -0.632834  -0.826948  0  2.000613  0
O  O172  1  0.89184390  0.84859140  0.59158234  1  -1.285991  0  -0.651758  -0.856445  0  2.024114  0
O  O173  1  0.10815429  0.15140578  0.09158322  1  -1.285903  0  -0.651787  -0.856472  0  2.024024  0
O  O174  1  0.39183978  0.65140763  0.09158136  1  -1.285963  0  -0.651773  -0.856394  0  2.024129  0
O  O175  1  0.60816113  0.34859121  0.59158111  1  -1.285941  0  -0.651785  -0.856346  0  2.024191  0
O  O176  1  0.43538406  0.45770184  0.73688849  1  -1.302528  0  -0.617887  -0.849919  0  2.045437  0
O  O177  1  0.56461778  0.54229894  0.23688763  1  -1.302579  0  -0.6178  -0.849773  0  2.045511  0
O  O178  1  0.93538631  0.04229788  0.23689003  1  -1.302497  0  -0.617882  -0.849898  0  2.045462  0
O  O179  1  0.06461372  0.95770125  0.73689073  1  -1.302614  0  -0.617846  -0.849835  0  2.04554  0
