# generated using pymatgen
data_ZnH16C14(NO4)2
_symmetry_space_group_name_H-M   'P 1'
_cell_length_a   5.35122954
_cell_length_b   7.10025099
_cell_length_c   9.90560810
_cell_angle_alpha   86.42046556
_cell_angle_beta   85.18080889
_cell_angle_gamma   74.82409631
_symmetry_Int_Tables_number   1
_chemical_formula_structural   ZnH16C14(NO4)2
_chemical_formula_sum   'Zn1 H16 C14 N2 O8'
_cell_volume   361.63493075
_cell_formula_units_Z   1
loop_
 _symmetry_equiv_pos_site_id
 _symmetry_equiv_pos_as_xyz
  1  'x, y, z'
loop_
 _atom_site_type_symbol
 _atom_site_label
 _atom_site_symmetry_multiplicity
 _atom_site_fract_x
 _atom_site_fract_y
 _atom_site_fract_z
 _atom_site_occupancy
 _atom_site_pbe_bader_spin_density
 _atom_site_pbe_cm5_charge
 _atom_site_pbe_ddec_charge
 _atom_site_pbe_ddec_spin_density
 _atom_site_pbe_ddec_sum_bond_order
 _atom_site_pbe_magmom
Zn  Zn0  1  0.99990924  0.99988011  0.00002022  1  0  0.658809  0.966769  0  2.207821  0
H  H1  1  0.52846221  0.18153627  0.75163962  1  0  0.130329  0.127676  0  1.040291  0
H  H2  1  0.47155998  0.81846272  0.24835360  1  0  0.130311  0.127611  0  1.04027  0
H  H3  1  0.43343639  0.30404969  0.51367991  1  0  0.111448  0.116458  0  1.044455  0
H  H4  1  0.56655167  0.69596065  0.48633048  1  0  0.111344  0.116352  0  1.044253  0
H  H5  1  0.66814120  0.62097932  0.67440799  1  0  0.114801  0.132041  0  1.030401  0
H  H6  1  0.33188573  0.37900653  0.32558964  1  0  0.114769  0.132103  0  1.030329  0
H  H7  1  0.79779740  0.48117894  0.90291185  1  0  0.133537  0.129692  0  1.011649  0
H  H8  1  0.20219307  0.51876251  0.09708234  1  0  0.133509  0.129603  0  1.011673  0
H  H9  1  0.82440364  0.17785795  0.57037868  1  0  0.093665  0.099398  0  1.043558  0
H  H10  1  0.17551360  0.82218239  0.42960933  1  0  0.093663  0.099344  0  1.043666  0
H  H11  1  0.65684509  0.20702607  0.14879358  1  0  0.281452  0.368779  0  0.982446  0
H  H12  1  0.34316648  0.79293468  0.85123212  1  0  0.281422  0.368694  0  0.982548  0
H  H13  1  0.50053674  0.21362640  0.01162542  1  0  0.288086  0.379638  0  0.962173  0
H  H14  1  0.49947143  0.78640616  0.98838005  1  0  0.288093  0.3796  0  0.962214  0
H  H15  1  0.74655357  0.95488201  0.56211117  1  0  0.100236  0.119066  0  0.992905  0
H  H16  1  0.25344680  0.04512553  0.43786145  1  0  0.100232  0.119183  0  0.992846  0
C  C17  1  0.34350162  0.28008396  0.72520198  1  0  0.044368  -0.025768  0  3.82648  0
C  C18  1  0.65653182  0.71992542  0.27478825  1  0  0.04432  -0.02582  0  3.82662  0
C  C19  1  0.28413110  0.35025734  0.59541839  1  0  -0.07574  -0.146712  0  3.942777  0
C  C20  1  0.71587554  0.64972241  0.40457134  1  0  -0.075519  -0.146582  0  3.942205  0
C  C21  1  0.03628640  0.46917296  0.56943886  1  0  0.005791  0.082966  0  3.972968  0
C  C22  1  0.96373864  0.53081287  0.43056794  1  0  0.005821  0.083243  0  3.972556  0
C  C23  1  0.86110959  0.52362816  0.68321977  1  0  -0.07394  -0.147102  0  3.927247  0
C  C24  1  0.13891280  0.47635470  0.31677719  1  0  -0.073867  -0.147141  0  3.926754  0
C  C25  1  0.92598532  0.45115404  0.81156870  1  0  0.051293  0.000372  0  3.81426  0
C  C26  1  0.07401441  0.54883443  0.18842600  1  0  0.051435  0.000603  0  3.814024  0
C  C27  1  0.04066701  0.94962272  0.69561919  1  0  0.2071  0.625222  0  4.14383  0
C  C28  1  0.95934018  0.05043329  0.30438932  1  0  0.207021  0.625352  0  4.144512  0
C  C29  1  0.91139945  0.02038998  0.56389121  1  0  -0.174639  -0.285886  0  3.958712  0
C  C30  1  0.08857626  0.97965980  0.43609576  1  0  -0.174484  -0.285926  0  3.959234  0
N  N31  1  0.16142180  0.32532366  0.83056330  1  0  -0.113492  0.324623  0  3.932158  0
N  N32  1  0.83860737  0.67468714  0.16943110  1  0  -0.113669  0.324628  0  3.932365  0
O  O33  1  0.20832908  0.23949879  0.95189038  1  0  -0.219667  -0.480658  0  2.086444  0
O  O34  1  0.79171126  0.76057960  0.04812774  1  0  -0.219637  -0.480776  0  2.087544  0
O  O35  1  0.89630603  0.00835149  0.80313084  1  0  -0.330624  -0.57814  0  2.309769  0
O  O36  1  0.10366979  0.99172910  0.19686687  1  0  -0.330578  -0.578139  0  2.310018  0
O  O37  1  0.27143588  0.84333129  0.69317011  1  0  -0.3215  -0.55722  0  2.172598  0
O  O38  1  0.72851102  0.15665805  0.30682894  1  0  -0.321626  -0.557473  0  2.172644  0
O  O39  1  0.66699233  0.22181798  0.04650084  1  0  -0.581976  -0.767918  0  2.166421  0
O  O40  1  0.33305705  0.77812120  0.95351806  1  0  -0.581898  -0.767754  0  2.166293  0
