# generated using pymatgen
data_CuMoAsH8C12N2O6F
_symmetry_space_group_name_H-M   'P 1'
_cell_length_a   8.52523485
_cell_length_b   8.56974126
_cell_length_c   11.11843712
_cell_angle_alpha   68.93783666
_cell_angle_beta   89.35190635
_cell_angle_gamma   68.33470480
_symmetry_Int_Tables_number   1
_chemical_formula_structural   CuMoAsH8C12N2O6F
_chemical_formula_sum   'Cu2 Mo2 As2 H16 C24 N4 O12 F2'
_cell_volume   697.55097272
_cell_formula_units_Z   2
loop_
 _symmetry_equiv_pos_site_id
 _symmetry_equiv_pos_as_xyz
  1  'x, y, z'
loop_
 _atom_site_type_symbol
 _atom_site_label
 _atom_site_symmetry_multiplicity
 _atom_site_fract_x
 _atom_site_fract_y
 _atom_site_fract_z
 _atom_site_occupancy
 _atom_site_hle17_ddec_charge
 _atom_site_hle17_ddec_spin_density
 _atom_site_hle17_ddec_sum_bond_order
 _atom_site_hle17_magmom
 _atom_site_hse06_10hf_ddec_charge
 _atom_site_hse06_10hf_ddec_spin_density
 _atom_site_hse06_10hf_ddec_sum_bond_order
 _atom_site_hse06_10hf_magmom
 _atom_site_hse06_ddec_charge
 _atom_site_hse06_ddec_spin_density
 _atom_site_hse06_ddec_sum_bond_order
 _atom_site_hse06_magmom
 _atom_site_pbe_cm5_charge
 _atom_site_pbe_ddec_charge
 _atom_site_pbe_ddec_spin_density
 _atom_site_pbe_ddec_sum_bond_order
 _atom_site_pbe_magmom
Cu  Cu0  1  0.91018910  0.47217798  0.78635972  1  0.913427  -0.685578  1.812628  -0.508  0.880752  -0.766706  2.225709  -0.618  0.969701  -0.830081  2.151099  -0.699  0.754039  0.824487  -0.721101  2.279697  -0.564
Cu  Cu1  1  0.08980826  0.52782466  0.21364061  1  0.913458  -0.685588  1.812669  -0.508  0.880778  -0.76671  2.225755  -0.618  0.969726  -0.830086  2.151133  -0.699  0.754049  0.824527  -0.721102  2.279725  -0.564
Mo  Mo2  1  0.51847817  0.27128178  0.09223929  1  2.195226  -0.000359  4.050882  -0.001  2.187016  -0.001173  4.596165  -0.002  2.281101  -0.000638  4.563463  -0.001  1.528793  2.120426  -0.002007  4.622382  -0.003
Mo  Mo3  1  0.48152371  0.72871814  0.90776087  1  2.195122  -0.000362  4.050882  -0.001  2.186916  -0.001177  4.596163  -0.002  2.281009  -0.000631  4.563458  -0.001  1.528753  2.12033  -0.002007  4.622379  -0.003
As  As4  1  0.14972866  0.59952610  0.91353081  1  1.801056  0.000588  4.026817  -0.001  1.751085  -0.010249  4.508342  -0.008  1.821093  -0.007157  4.461428  -0.007  0.658569  1.70126  -0.013083  4.540556  -0.009
As  As5  1  0.85027105  0.40047653  0.08646860  1  1.800974  0.000598  4.026875  -0.001  1.750989  -0.010243  4.508415  -0.008  1.820994  -0.007158  4.461502  -0.007  0.658507  1.70116  -0.013082  4.540628  -0.009
H  H6  1  0.87138420  0.10935674  0.94453951  1  0.094485  -0.001445  0.936189  -0.003  0.099947  -0.001158  1.002937  -0.002  0.101828  -0.000801  1.000191  -0.002  0.123863  0.098408  -0.001467  1.005122  -0.002
H  H7  1  0.12861550  0.89064590  0.05546260  1  0.094567  -0.001446  0.936162  -0.003  0.100012  -0.001158  1.002922  -0.002  0.1019  -0.000801  1.000173  -0.002  0.123867  0.098474  -0.001467  1.005108  -0.002
H  H8  1  0.76301104  0.91036118  0.88234563  1  0.132819  -0.000765  0.945777  -0.001  0.139474  -0.000674  1.007511  -0.001  0.142929  -0.000489  1.00602  0.0  0.115085  0.136932  -0.000845  1.008733  -0.001
H  H9  1  0.23699753  0.08963329  0.11765510  1  0.132749  -0.000766  0.945848  -0.001  0.139503  -0.000674  1.007472  -0.001  0.142957  -0.000489  1.00598  0.0  0.115072  0.136959  -0.000845  1.008701  -0.001
H  H10  1  0.65501866  0.00021956  0.64976925  1  0.114799  -0.000268  0.95034  -0.001  0.127546  -1.7e-05  1.007945  0.0  0.13022  3.4e-05  1.005958  0.0  0.109664  0.125591  -7.7e-05  1.009507  0.0
H  H11  1  0.34499010  0.99977762  0.35022892  1  0.114771  -0.000268  0.950444  -0.001  0.127553  -1.7e-05  1.007987  0.0  0.130227  3.4e-05  1.006  0.0  0.109683  0.125599  -7.7e-05  1.009552  0.0
H  H12  1  0.59542565  0.23973923  0.41078733  1  0.11742  -0.000366  0.944849  0.0  0.130492  -0.000257  1.001439  0.0  0.133041  -0.000169  1.000716  0.0  0.106738  0.128694  -0.000363  1.002034  0.0
H  H13  1  0.40457957  0.76025797  0.58921446  1  0.117406  -0.000368  0.944833  0.0  0.130444  -0.000257  1.001486  0.0  0.132992  -0.000169  1.000765  0.0  0.106714  0.128651  -0.000363  1.002071  0.0
H  H14  1  0.60181180  0.52791008  0.26076548  1  0.120282  -0.000428  0.950165  -0.001  0.128507  -0.000295  1.011466  0.0  0.131601  -0.000192  1.009305  0.0  0.107189  0.126145  -0.000351  1.01309  0.0
H  H15  1  0.39819461  0.47208710  0.73923271  1  0.120303  -0.000429  0.950287  -0.001  0.128533  -0.000294  1.011561  0.0  0.131627  -0.000192  1.009401  0.0  0.107227  0.126169  -0.000351  1.013184  0.0
H  H16  1  0.68758856  0.80082503  0.22254246  1  0.130785  -0.000286  0.940075  -0.001  0.141953  5.2e-05  0.997424  0.0  0.145062  0.000108  0.99495  0.0  0.117345  0.139501  -1e-06  0.9998  0.0
H  H17  1  0.31241130  0.19917081  0.77745884  1  0.130809  -0.000287  0.940056  -0.001  0.141954  5.2e-05  0.997445  0.0  0.145064  0.000108  0.994969  0.0  0.117323  0.139506  -1e-06  0.999821  0.0
H  H18  1  0.80926922  0.95849567  0.32177111  1  0.122446  -0.000497  0.95191  -0.001  0.131659  -0.000489  1.01046  -0.001  0.135039  -0.000362  1.009724  0.0  0.111263  0.129192  -0.000593  1.011148  -0.001
H  H19  1  0.19072530  0.04150834  0.67822796  1  0.122466  -0.000497  0.951936  -0.001  0.131678  -0.000489  1.010479  -0.001  0.135057  -0.000362  1.009746  0.0  0.111295  0.12921  -0.000593  1.011169  -0.001
H  H20  1  0.90936638  0.81891022  0.56399357  1  0.099531  -0.001514  0.926428  -0.003  0.111537  -0.001191  0.982006  -0.002  0.113829  -0.000809  0.979879  -0.002  0.124901  0.10977  -0.001526  0.983593  -0.003
H  H21  1  0.09063099  0.18109242  0.43600406  1  0.099535  -0.001514  0.926441  -0.003  0.111529  -0.001192  0.98203  -0.002  0.11382  -0.000809  0.979903  -0.002  0.124885  0.109763  -0.001526  0.983617  -0.003
C  C22  1  0.82653304  0.14284539  0.84372174  1  0.177352  0.010686  3.6222  0.007  0.146204  0.002506  3.880502  0.002  0.158766  0.004311  3.895402  0.003  0.06853  0.137821  0.001323  3.870772  0.001
C  C23  1  0.17347002  0.85715452  0.15627841  1  0.177198  0.010685  3.622314  0.007  0.146055  0.002506  3.880629  0.002  0.158608  0.004309  3.895536  0.003  0.068509  0.137671  0.001322  3.870899  0.001
C  C24  1  0.76415768  0.03330498  0.80717709  1  -0.087464  -0.009594  3.65771  -0.011  -0.101055  -0.004547  3.909801  -0.005  -0.107669  -0.003779  3.927905  -0.005  -0.069245  -0.096759  -0.005236  3.897807  -0.006
C  C25  1  0.23585009  0.96669492  0.19281944  1  -0.08732  -0.00959  3.657533  -0.011  -0.100979  -0.004547  3.90956  -0.005  -0.107601  -0.003778  3.927684  -0.005  -0.069185  -0.096679  -0.005236  3.897555  -0.006
C  C26  1  0.70597484  0.08369405  0.67773204  1  -0.04103  0.011403  3.65023  0.007  -0.065541  0.004175  3.894438  0.002  -0.062102  0.004836  3.911164  0.003  -0.058499  -0.067817  0.003741  3.88315  0.002
C  C27  1  0.29403556  0.91630178  0.32227099  1  -0.041026  0.011401  3.650109  0.007  -0.065543  0.004176  3.894287  0.002  -0.062104  0.004833  3.911014  0.003  -0.058535  -0.067823  0.003741  3.883005  0.002
C  C28  1  0.70921029  0.24529841  0.58368813  1  0.023691  -0.004624  3.804729  -0.005  0.040299  -0.002206  4.033777  -0.003  0.037634  -0.001743  4.058441  -0.002  -0.000602  0.042088  -0.002616  4.01692  -0.003
C  C29  1  0.29079326  0.75470014  0.41631240  1  0.023575  -0.004623  3.804944  -0.005  0.040178  -0.002205  4.033963  -0.003  0.037506  -0.001743  4.058637  -0.002  -0.000625  0.041967  -0.002616  4.017108  -0.003
C  C30  1  0.64802978  0.31513017  0.44748190  1  -0.091329  -0.001957  3.683906  -0.002  -0.113366  -0.000878  3.936689  -0.001  -0.116668  -0.000711  3.958813  -0.001  -0.079821  -0.111025  -0.001137  3.921605  -0.001
C  C31  1  0.35197263  0.68487790  0.55251689  1  -0.091185  -0.001953  3.683523  -0.002  -0.113218  -0.000879  3.936339  -0.001  -0.116516  -0.000713  3.958462  -0.001  -0.079748  -0.110882  -0.001137  3.921253  -0.001
C  C32  1  0.65205240  0.47547756  0.36339235  1  -0.07568  -0.001123  3.685115  -0.001  -0.101332  -0.000596  3.945985  -0.001  -0.103313  -0.000416  3.967329  0.0  -0.07699  -0.099961  -0.000774  3.931591  -0.001
C  C33  1  0.34795481  0.52451420  0.63661004  1  -0.075855  -0.001123  3.684908  -0.001  -0.101501  -0.000596  3.945796  -0.001  -0.103478  -0.000414  3.967126  0.0  -0.0771  -0.100133  -0.000774  3.931407  -0.001
C  C34  1  0.71959324  0.57879480  0.40761146  1  0.029012  -0.005042  3.788385  -0.006  0.043934  -0.002226  4.023947  -0.003  0.040921  -0.001835  4.048294  -0.002  0.001734  0.045857  -0.002649  4.007726  -0.003
C  C35  1  0.28041081  0.42120240  0.59238944  1  0.029126  -0.00504  3.78831  -0.006  0.044039  -0.002227  4.023887  -0.003  0.041025  -0.001835  4.048239  -0.002  0.00177  0.045963  -0.002648  4.007664  -0.003
C  C36  1  0.77364339  0.34688726  0.62957035  1  0.115957  0.002238  3.805084  0.001  0.111871  -0.000161  4.043419  -0.001  0.116104  0.000999  4.068791  0.001  0.111081  0.109312  -0.001205  4.026097  -0.002
C  C37  1  0.22635966  0.65311265  0.37043070  1  0.116144  0.00224  3.804999  0.001  0.112075  -0.000162  4.0433  -0.001  0.116312  0.001001  4.068667  0.001  0.111192  0.109513  -0.001204  4.025979  -0.002
C  C38  1  0.77905728  0.51311484  0.54162794  1  0.120042  0.003499  3.792111  0.002  0.115016  0.000498  4.028706  0.0  0.120255  0.001677  4.052837  0.001  0.112988  0.111837  -0.000425  4.012233  -0.001
C  C39  1  0.22094459  0.48688509  0.45837491  1  0.120016  0.003494  3.792068  0.002  0.114992  0.000498  4.028662  0.0  0.120231  0.001677  4.052793  0.001  0.11296  0.111817  -0.000425  4.012192  -0.001
C  C40  1  0.73153490  0.74320538  0.32690038  1  -0.042398  0.013956  3.63923  0.008  -0.074822  0.005839  3.903001  0.003  -0.07174  0.006475  3.918594  0.003  -0.05559  -0.077557  0.005377  3.893683  0.003
C  C41  1  0.26846698  0.25679454  0.67310158  1  -0.042469  0.013962  3.639118  0.008  -0.074886  0.005841  3.902889  0.003  -0.071805  0.006477  3.918481  0.003  -0.05558  -0.077624  0.005378  3.893577  0.003
C  C42  1  0.79831897  0.83158413  0.38166025  1  -0.115488  -0.009966  3.701052  -0.011  -0.130452  -0.004504  3.961309  -0.006  -0.13831  -0.00382  3.981735  -0.005  -0.080395  -0.125308  -0.005058  3.947923  -0.006
C  C43  1  0.20167892  0.16841714  0.61833596  1  -0.115501  -0.009964  3.701214  -0.011  -0.130458  -0.004504  3.961453  -0.006  -0.138317  -0.003821  3.98188  -0.005  -0.080429  -0.125314  -0.005058  3.948066  -0.006
C  C44  1  0.85352772  0.75672853  0.51621884  1  0.152813  0.011571  3.647892  0.008  0.123962  0.002656  3.900628  0.002  0.135862  0.004539  3.916332  0.003  0.060268  0.116267  0.001342  3.890138  0.001
C  C45  1  0.14647317  0.24327410  0.48378057  1  0.152776  0.011564  3.648187  0.008  0.123938  0.002655  3.900909  0.002  0.135841  0.00454  3.916613  0.003  0.06028  0.116247  0.001341  3.890422  0.001
N  N46  1  0.83136364  0.29515072  0.75673077  1  -0.327328  -0.079415  3.339002  -0.102  -0.286192  -0.055114  3.639808  -0.076  -0.318205  -0.044913  3.660651  -0.066  -0.345097  -0.266191  -0.061339  3.627369  -0.08
N  N47  1  0.16863607  0.70485192  0.24326955  1  -0.327408  -0.079416  3.339008  -0.102  -0.286294  -0.055114  3.639833  -0.076  -0.318304  -0.044913  3.660673  -0.066  -0.345186  -0.266289  -0.06134  3.627393  -0.08
N  N48  1  0.84358941  0.60153070  0.59358038  1  -0.321276  -0.078679  3.330887  -0.101  -0.275065  -0.056507  3.625548  -0.077  -0.305898  -0.046695  3.645838  -0.069  -0.342994  -0.256219  -0.061924  3.61378  -0.081
N  N49  1  0.15640964  0.39847057  0.40641852  1  -0.321267  -0.078676  3.330847  -0.101  -0.275052  -0.056506  3.625486  -0.077  -0.305885  -0.046695  3.645773  -0.069  -0.342986  -0.256219  -0.061922  3.613731  -0.081
O  O50  1  0.44859796  0.21536548  0.24178947  1  -0.697443  0.000101  1.438895  -0.001  -0.710749  0.000342  1.704674  -0.001  -0.735439  0.000558  1.694748  0.0  -0.520803  -0.694022  0.000163  1.712256  -0.001
O  O51  1  0.55139924  0.78463443  0.75820892  1  -0.697407  0.000101  1.438874  -0.001  -0.710696  0.000343  1.704625  -0.001  -0.735386  0.000556  1.694697  0.0  -0.520791  -0.693968  0.000163  1.712202  -0.001
O  O52  1  0.59725438  0.07382097  0.06595668  1  -0.6368  -7e-05  1.430535  0.0  -0.628824  -8e-05  1.664999  0.0  -0.652673  1.6e-05  1.65786  0.0  -0.495837  -0.612491  -0.000152  1.670615  0.0
O  O53  1  0.40274417  0.92618167  0.93404185  1  -0.636747  -6.6e-05  1.43054  0.0  -0.628776  -7.7e-05  1.665009  0.0  -0.652641  1.1e-05  1.657882  0.0  -0.495807  -0.612452  -0.000152  1.670629  0.0
O  O54  1  0.29940203  0.37532838  0.97802089  1  -0.851559  0.004009  1.824937  0.002  -0.83399  0.002602  2.110899  0.001  -0.86804  0.002716  2.096082  0.001  -0.441664  -0.809844  0.002247  2.121297  0.001
O  O55  1  0.70059953  0.62467561  0.02197904  1  -0.851544  0.004006  1.824962  0.002  -0.833955  0.0026  2.110892  0.001  -0.868008  0.002717  2.09608  0.001  -0.441649  -0.809807  0.002247  2.121284  0.001
O  O56  1  0.02140446  0.63252360  0.78299507  1  -0.811327  -0.094  1.761313  -0.125  -0.798664  -0.058047  2.072481  -0.083  -0.845075  -0.0434  2.053461  -0.067  -0.421709  -0.766046  -0.068743  2.085676  -0.093
O  O57  1  0.97859408  0.36747904  0.21700345  1  -0.81132  -0.094  1.761367  -0.125  -0.798659  -0.058048  2.072555  -0.083  -0.845067  -0.043399  2.053528  -0.067  -0.421685  -0.766043  -0.068742  2.08575  -0.093
O  O58  1  0.03643521  0.66237757  0.02743508  1  -0.835267  -0.075359  1.795165  -0.102  -0.817894  -0.04631  2.106146  -0.067  -0.86145  -0.034759  2.083408  -0.054  -0.417873  -0.787379  -0.054657  2.121948  -0.074
O  O59  1  0.96356716  0.33762099  0.97256635  1  -0.835238  -0.075361  1.795106  -0.102  -0.817868  -0.04631  2.1061  -0.067  -0.861422  -0.034761  2.083363  -0.054  -0.41787  -0.787353  -0.054659  2.121901  -0.074
O  O60  1  0.25955347  0.73922191  0.84369889  1  -0.857963  -0.007419  1.795816  -0.009  -0.834273  -0.006026  2.068972  -0.008  -0.867311  -0.004285  2.053444  -0.006  -0.448856  -0.810639  -0.007453  2.07973  -0.01
O  O61  1  0.74044723  0.26077801  0.15630128  1  -0.857963  -0.007418  1.795823  -0.009  -0.834271  -0.006027  2.068983  -0.008  -0.867308  -0.004285  2.053457  -0.006  -0.448854  -0.810637  -0.007453  2.079742  -0.01
F  F62  1  0.57515362  0.44289182  0.91682012  1  -0.668764  0.000705  0.980305  0.0  -0.639024  0.000742  1.183987  0.0  -0.661076  0.000788  1.170879  0.0  -0.356066  -0.622318  0.000588  1.192853  0.0
F  F63  1  0.42484926  0.55710537  0.08317989  1  -0.668773  0.000705  0.980311  0.0  -0.639022  0.000742  1.183983  0.0  -0.661072  0.000788  1.170874  0.0  -0.356065  -0.622316  0.000588  1.19285  0.0
