# generated using pymatgen
data_CdH44C42(N6Cl)2
_symmetry_space_group_name_H-M   'P 1'
_cell_length_a   7.87245543
_cell_length_b   12.51781819
_cell_length_c   24.61362040
_cell_angle_alpha   103.07717998
_cell_angle_beta   90.00000612
_cell_angle_gamma   89.99997996
_symmetry_Int_Tables_number   1
_chemical_formula_structural   CdH44C42(N6Cl)2
_chemical_formula_sum   'Cd2 H88 C84 N24 Cl4'
_cell_volume   2362.66857431
_cell_formula_units_Z   2
loop_
 _symmetry_equiv_pos_site_id
 _symmetry_equiv_pos_as_xyz
  1  'x, y, z'
loop_
 _atom_site_type_symbol
 _atom_site_label
 _atom_site_symmetry_multiplicity
 _atom_site_fract_x
 _atom_site_fract_y
 _atom_site_fract_z
 _atom_site_occupancy
 _atom_site_pbe_bader_charge
 _atom_site_pbe_bader_spin_density
 _atom_site_pbe_cm5_charge
 _atom_site_pbe_ddec_charge
 _atom_site_pbe_ddec_spin_density
 _atom_site_pbe_ddec_sum_bond_order
 _atom_site_pbe_magmom
Cd  Cd0  1  0.99999903  0.99999981  0.00000005  1  1.168075  0  0.672316  0.694227  0  2.415231  0
Cd  Cd1  1  0.00000122  0.49999994  0.50000039  1  1.168104  0  0.672316  0.694227  0  2.415209  0
H  H2  1  0.18273444  0.58456356  0.00054378  1  0.112658  0  0.106261  0.116404  0  1.026093  0
H  H3  1  0.18273189  0.91543460  0.49945484  1  0.112687  0  0.106289  0.116408  0  1.026114  0
H  H4  1  0.81726984  0.41543537  0.99945447  1  0.112671  0  0.106278  0.116429  0  1.02611  0
H  H5  1  0.81727366  0.08456436  0.50054828  1  0.112657  0  0.106283  0.116433  0  1.026079  0
H  H6  1  0.01951738  0.73882973  0.97637654  1  0.122823  0  0.101614  0.081313  0  1.048308  0
H  H7  1  0.01951730  0.76116842  0.52362282  1  0.12285  0  0.10163  0.081365  0  1.048241  0
H  H8  1  0.98048310  0.26116920  0.02362293  1  0.12284  0  0.101622  0.081346  0  1.048235  0
H  H9  1  0.98048826  0.23882971  0.47637900  1  0.122889  0  0.1016  0.081325  0  1.048248  0
H  H10  1  0.32984220  0.97127258  0.07345355  1  0.160189  0  0.097867  0.074855  0  1.076646  0
H  H11  1  0.32984492  0.52872637  0.42654598  1  0.160147  0  0.097867  0.074822  0  1.076694  0
H  H12  1  0.67015701  0.02872718  0.92654601  1  0.160168  0  0.097878  0.074863  0  1.076674  0
H  H13  1  0.67015683  0.47127339  0.57345439  1  0.160173  0  0.097878  0.074889  0  1.07665  0
H  H14  1  0.50180892  0.82890104  0.10519179  1  0.080366  0  0.10601  0.117371  0  1.010005  0
H  H15  1  0.50181028  0.67109870  0.39480783  1  0.080333  0  0.105987  0.117333  0  1.010035  0
H  H16  1  0.49819283  0.17109871  0.89480695  1  0.080342  0  0.105991  0.117336  0  1.010014  0
H  H17  1  0.49819273  0.32890189  0.60519345  1  0.080329  0  0.105988  0.117327  0  1.010011  0
H  H18  1  0.20325288  0.41207584  0.11041714  1  0.083739  0  0.096884  0.141485  0  1.037383  0
H  H19  1  0.20325175  0.08792240  0.38958184  1  0.083717  0  0.096876  0.141475  0  1.037379  0
H  H20  1  0.79675013  0.58792392  0.88958323  1  0.083735  0  0.096895  0.141505  0  1.037368  0
H  H21  1  0.79675000  0.91207571  0.61041712  1  0.08371  0  0.09688  0.141483  0  1.037388  0
H  H22  1  0.18826390  0.40614686  0.03790207  1  0.071872  0  0.095192  0.142595  0  1.010945  0
H  H23  1  0.18826279  0.09385303  0.46209710  1  0.07189  0  0.095193  0.142597  0  1.010955  0
H  H24  1  0.81173530  0.59385454  0.96209849  1  0.071865  0  0.095177  0.142578  0  1.010946  0
H  H25  1  0.81173133  0.90614755  0.53790215  1  0.071893  0  0.095201  0.142603  0  1.010926  0
H  H26  1  0.12626924  0.52720671  0.08662573  1  0.047833  0  0.096176  0.140348  0  1.004403  0
H  H27  1  0.12626790  0.97279229  0.41337339  1  0.047799  0  0.096175  0.14034  0  1.004466  0
H  H28  1  0.87373123  0.47279552  0.91337493  1  0.04784  0  0.096203  0.14041  0  1.004463  0
H  H29  1  0.87373003  0.02720582  0.58662557  1  0.047843  0  0.096181  0.140348  0  1.004418  0
H  H30  1  0.89063555  0.65291488  0.07538726  1  0.051005  0  0.090932  0.129718  0  1.020463  0
H  H31  1  0.89063556  0.84708642  0.42461296  1  0.050999  0  0.090925  0.129723  0  1.020451  0
H  H32  1  0.10936619  0.34708569  0.92461199  1  0.051037  0  0.090938  0.129774  0  1.020398  0
H  H33  1  0.10936619  0.15291663  0.57538819  1  0.05105  0  0.090945  0.129757  0  1.020399  0
H  H34  1  0.76409813  0.75758033  0.11658058  1  0.042801  0  0.090629  0.129825  0  0.999204  0
H  H35  1  0.76409945  0.74242017  0.38341915  1  0.042808  0  0.090632  0.129827  0  0.999193  0
H  H36  1  0.23590107  0.24241942  0.88341858  1  0.042777  0  0.090658  0.129879  0  0.999265  0
H  H37  1  0.23590229  0.25758206  0.61658191  1  0.042751  0  0.090639  0.129851  0  0.999254  0
H  H38  1  0.74220026  0.72741795  0.04327969  1  0.070484  0  0.089542  0.132893  0  1.025889  0
H  H39  1  0.74220159  0.77258173  0.45672035  1  0.070487  0  0.089547  0.132896  0  1.025874  0
H  H40  1  0.25780148  0.27258180  0.95671947  1  0.070508  0  0.089541  0.132869  0  1.02594  0
H  H41  1  0.25780015  0.22742049  0.54328071  1  0.070509  0  0.089539  0.132875  0  1.025936  0
H  H42  1  0.43241902  0.29458798  0.08855746  1  0.187516  0  0.121578  0.113083  0  1.019468  0
H  H43  1  0.43241783  0.20541186  0.41144293  1  0.187488  0  0.12157  0.113037  0  1.019482  0
H  H44  1  0.56758145  0.70541178  0.91144292  1  0.187502  0  0.121575  0.113076  0  1.019457  0
H  H45  1  0.56757756  0.79458789  0.58855703  1  0.187528  0  0.121594  0.113103  0  1.01944  0
H  H46  1  0.65943587  0.30613906  0.09219982  1  0.099998  0  0.130557  0.094205  0  1.000552  0
H  H47  1  0.65943468  0.19385991  0.40779967  1  0.099699  0  0.130549  0.094179  0  1.000515  0
H  H48  1  0.34056588  0.69386071  0.90780055  1  0.099685  0  0.130544  0.094181  0  1.000587  0
H  H49  1  0.34056071  0.80613984  0.59219949  1  0.099648  0  0.130595  0.094243  0  1.000444  0
H  H50  1  0.89414152  0.43321094  0.17450755  1  0.08183  0  0.099237  0.144386  0  0.995697  0
H  H51  1  0.89414038  0.06678962  0.32549253  1  0.081801  0  0.099258  0.144415  0  0.995748  0
H  H52  1  0.10585641  0.56679046  0.82549301  1  0.081826  0  0.099266  0.144435  0  0.995714  0
H  H53  1  0.10585628  0.93321014  0.67450703  1  0.081823  0  0.099265  0.144426  0  0.995714  0
H  H54  1  0.85835603  0.29075724  0.15101066  1  0.064971  0  0.100096  0.144637  0  0.999076  0
H  H55  1  0.85835354  0.20924333  0.34898943  1  0.064969  0  0.100088  0.144611  0  0.999054  0
H  H56  1  0.14164318  0.70924416  0.84898950  1  0.064944  0  0.100093  0.144646  0  0.999123  0
H  H57  1  0.14164185  0.79075643  0.65101054  1  0.064947  0  0.10008  0.144612  0  0.999108  0
H  H58  1  0.92122332  0.34344562  0.22077012  1  0.069328  0  0.098386  0.141613  0  1.012224  0
H  H59  1  0.92121830  0.15655411  0.27922906  1  0.069301  0  0.098383  0.141551  0  1.01219  0
H  H60  1  0.07877842  0.65655496  0.77922994  1  0.069281  0  0.098364  0.141563  0  1.012238  0
H  H61  1  0.07877582  0.84344564  0.72077010  1  0.069322  0  0.098385  0.141615  0  1.012219  0
H  H62  1  0.24667522  0.34894427  0.30960786  1  0.071681  0  0.09427  0.139285  0  1.014401  0
H  H63  1  0.24667652  0.15105643  0.19039222  1  0.071696  0  0.094252  0.139249  0  1.014433  0
H  H64  1  0.75332145  0.65105631  0.69039342  1  0.071745  0  0.09426  0.139262  0  1.014423  0
H  H65  1  0.75332395  0.84894497  0.80960672  1  0.071754  0  0.094268  0.139291  0  1.014419  0
H  H66  1  0.14522654  0.42078640  0.26405149  1  0.044631  0  0.092622  0.12908  0  1.032223  0
H  H67  1  0.14522155  0.07921350  0.23594727  1  0.044588  0  0.092599  0.129074  0  1.032192  0
H  H68  1  0.85477394  0.57921336  0.73594848  1  0.044627  0  0.092635  0.12912  0  1.032183  0
H  H69  1  0.85477258  0.92078789  0.76405125  1  0.044626  0  0.092634  0.129138  0  1.032199  0
H  H70  1  0.27956073  0.49183849  0.31871063  1  0.013872  0  0.091279  0.128718  0  1.012233  0
H  H71  1  0.27955830  0.00816221  0.18128904  1  0.013864  0  0.091271  0.128698  0  1.012216  0
H  H72  1  0.72043975  0.50816127  0.68128934  1  0.013866  0  0.091273  0.128711  0  1.012175  0
H  H73  1  0.72043710  0.99184001  0.81870998  1  0.013854  0  0.091291  0.128736  0  1.012157  0
H  H74  1  0.47202041  0.36875434  0.35950317  1  0.110724  0  0.104367  0.11883  0  1.040533  0
H  H75  1  0.47201917  0.13124632  0.14049813  1  0.110682  0  0.104363  0.118796  0  1.040632  0
H  H76  1  0.52797879  0.63124788  0.64049830  1  0.110688  0  0.104355  0.118787  0  1.040613  0
H  H77  1  0.52798003  0.86875263  0.85950256  1  0.110671  0  0.104353  0.118774  0  1.040616  0
H  H78  1  0.89006147  0.50672674  0.28364619  1  0.077653  0  0.107313  0.11523  0  1.011777  0
H  H79  1  0.89006133  0.99327455  0.21635362  1  0.077631  0  0.107291  0.115207  0  1.011782  0
H  H80  1  0.10993900  0.49327794  0.71635393  1  0.077663  0  0.107302  0.115247  0  1.011773  0
H  H81  1  0.10993915  0.00672439  0.78364625  1  0.077647  0  0.107305  0.115236  0  1.011767  0
H  H82  1  0.62521658  0.41988750  0.44853728  1  0.107458  0  0.11054  0.082283  0  1.016555  0
H  H83  1  0.62521280  0.08011394  0.05146289  1  0.107473  0  0.110565  0.082312  0  1.016495  0
H  H84  1  0.37479024  0.58011390  0.55146287  1  0.107451  0  0.110532  0.082244  0  1.016558  0
H  H85  1  0.37478640  0.91988664  0.94853758  1  0.107431  0  0.110549  0.082293  0  1.016501  0
H  H86  1  0.03277241  0.54314150  0.37570720  1  0.082734  0  0.110902  0.075637  0  1.024437  0
H  H87  1  0.03277098  0.95686162  0.12429239  1  0.082757  0  0.110873  0.075582  0  1.024467  0
H  H88  1  0.96722934  0.45686154  0.62429233  1  0.082771  0  0.110883  0.075567  0  1.024477  0
H  H89  1  0.96722949  0.04314059  0.87570745  1  0.082757  0  0.110894  0.075598  0  1.024451  0
C  C90  1  0.35605900  0.69249316  0.05645368  1  0.013457  0  0.013534  0.162498  0  4.008713  0
C  C91  1  0.35605776  0.80750660  0.44354554  1  0.013567  0  0.013535  0.162429  0  4.008685  0
C  C92  1  0.64394402  0.30750659  0.94354507  1  0.01337  0  0.013461  0.162401  0  4.008609  0
C  C93  1  0.64394399  0.19249317  0.55645606  1  0.013348  0  0.013488  0.162468  0  4.008527  0
C  C94  1  0.21697787  0.66886591  0.01965765  1  -0.081615  0  -0.090366  -0.191704  0  3.950205  0
C  C95  1  0.21697790  0.83113225  0.48034098  1  -0.081488  0  -0.090402  -0.191633  0  3.950201  0
C  C96  1  0.78302388  0.33113302  0.98034060  1  -0.081377  0  -0.090352  -0.191692  0  3.950272  0
C  C97  1  0.78303020  0.16886753  0.51966183  1  -0.081292  0  -0.090441  -0.191745  0  3.950041  0
C  C98  1  0.12779093  0.75367132  0.00492767  1  0.484829  0  0.036914  0.084354  0  3.973116  0
C  C99  1  0.12779228  0.74632604  0.49507167  1  0.484772  0  0.036914  0.084278  0  3.973114  0
C  C100  1  0.87220955  0.24632679  0.99507129  1  0.484868  0  0.036918  0.084316  0  3.973118  0
C  C101  1  0.87221200  0.25367373  0.50492952  1  0.484793  0  0.03695  0.084382  0  3.972874  0
C  C102  1  0.30161087  0.88393226  0.05936722  1  0.385293  0  0.032549  0.072053  0  3.995974  0
C  C103  1  0.30161355  0.61606588  0.44063222  1  0.38515  0  0.032547  0.072081  0  3.995949  0
C  C104  1  0.69838833  0.11606667  0.94063184  1  0.385165  0  0.032513  0.071969  0  3.996015  0
C  C105  1  0.69838946  0.38393307  0.55936888  1  0.385171  0  0.032504  0.071936  0  3.996062  0
C  C106  1  0.39699537  0.80407102  0.07623621  1  -0.025922  0  -0.088199  -0.181674  0  3.933424  0
C  C107  1  0.39699673  0.69592710  0.42376283  1  -0.025922  0  -0.088179  -0.181614  0  3.933323  0
C  C108  1  0.60300510  0.19592791  0.92376245  1  -0.025929  0  -0.088152  -0.181556  0  3.93329  0
C  C109  1  0.60300883  0.30407185  0.57623908  1  -0.025925  0  -0.088103  -0.181515  0  3.933302  0
C  C110  1  0.45451496  0.60624670  0.07239011  1  -0.07048  0  -0.040628  -0.193901  0  4.035202  0
C  C111  1  0.45451367  0.89375222  0.42760860  1  -0.070488  0  -0.040654  -0.1939  0  4.035267  0
C  C112  1  0.54548678  0.39375223  0.92760813  1  -0.070306  0  -0.040631  -0.193856  0  4.035125  0
C  C113  1  0.54548680  0.10624837  0.57239308  1  -0.070308  0  -0.040674  -0.193938  0  4.035084  0
C  C114  1  0.39435587  0.50494362  0.07958615  1  0.462366  0  0.107901  0.177165  0  3.935169  0
C  C115  1  0.39435325  0.99505450  0.42041248  1  0.462341  0  0.107946  0.177162  0  3.935266  0
C  C116  1  0.60564714  0.49505613  0.92041301  1  0.462297  0  0.107956  0.177202  0  3.935168  0
C  C117  1  0.60564468  0.00494445  0.57958821  1  0.462363  0  0.107966  0.177196  0  3.935147  0
C  C118  1  0.21890872  0.46002549  0.07853744  1  -0.065336  0  -0.23588  -0.43561  0  3.96241  0
C  C119  1  0.21890762  0.03997275  0.42146114  1  -0.065319  0  -0.235887  -0.435602  0  3.962487  0
C  C120  1  0.78109303  0.53997509  0.92146263  1  -0.065323  0  -0.235908  -0.435699  0  3.962513  0
C  C121  1  0.78109031  0.96002537  0.57853823  1  -0.065319  0  -0.235899  -0.435643  0  3.962451  0
C  C122  1  0.63345024  0.60517441  0.08252298  1  0.525162  0  0.096968  0.218232  0  4.034042  0
C  C123  1  0.63345022  0.89482448  0.41747655  1  0.52514  0  0.096976  0.218221  0  4.03406  0
C  C124  1  0.36655150  0.39482370  0.91747558  1  0.524812  0  0.096963  0.218248  0  4.034046  0
C  C125  1  0.36655025  0.10517692  0.58252442  1  0.524802  0  0.096978  0.218239  0  4.034111  0
C  C126  1  0.76379710  0.69008961  0.07910903  1  -0.08556  0  -0.237948  -0.425785  0  3.962523  0
C  C127  1  0.76379712  0.80991089  0.42089110  1  -0.085565  0  -0.237945  -0.425789  0  3.962534  0
C  C128  1  0.23620592  0.30991014  0.92089013  1  -0.085443  0  -0.237978  -0.425893  0  3.96268  0
C  C129  1  0.23620589  0.19009133  0.57910996  1  -0.085457  0  -0.237964  -0.425839  0  3.96263  0
C  C130  1  0.53957872  0.34591843  0.10764705  1  0.645364  0  0.061855  -0.019249  0  3.875164  0
C  C131  1  0.53957628  0.15408139  0.39235335  1  0.645687  0  0.061886  -0.019125  0  3.875023  0
C  C132  1  0.46042176  0.65408216  0.89235383  1  0.645672  0  0.061862  -0.019221  0  3.87519  0
C  C133  1  0.46041912  0.84591918  0.60764631  1  0.645681  0  0.06185  -0.019236  0  3.875098  0
C  C134  1  0.66207291  0.37547904  0.20467758  1  0.3741  0  0.1056  0.167354  0  3.942522  0
C  C135  1  0.66206918  0.12451911  0.29532222  1  0.374062  0  0.105623  0.167323  0  3.942612  0
C  C136  1  0.33792757  0.62452072  0.79532320  1  0.37411  0  0.105651  0.167423  0  3.942503  0
C  C137  1  0.33792621  0.87547819  0.70467706  1  0.374107  0  0.1056  0.167393  0  3.942577  0
C  C138  1  0.84304313  0.36044545  0.18690207  1  -0.064268  0  -0.232063  -0.433247  0  3.977858  0
C  C139  1  0.84303813  0.13955266  0.31309773  1  -0.064184  0  -0.232111  -0.433225  0  3.977943  0
C  C140  1  0.15695607  0.63955513  0.81309881  1  -0.064257  0  -0.23208  -0.433294  0  3.97792  0
C  C141  1  0.15695472  0.86044464  0.68690155  1  -0.064268  0  -0.232083  -0.433288  0  3.97795  0
C  C142  1  0.58578413  0.40034178  0.25763672  1  -0.007944  0  -0.039326  -0.192973  0  4.023794  0
C  C143  1  0.58578040  0.09965639  0.24236349  1  -0.007622  0  -0.039296  -0.192903  0  4.023858  0
C  C144  1  0.41421507  0.59965880  0.74236375  1  -0.007582  0  -0.039327  -0.192916  0  4.023838  0
C  C145  1  0.41421372  0.90034009  0.75763611  1  -0.00794  0  -0.039368  -0.193002  0  4.023744  0
C  C146  1  0.40680694  0.39502226  0.24706865  1  0.511346  0  0.101006  0.227041  0  4.022986  0
C  C147  1  0.40680448  0.10497758  0.25293133  1  0.511231  0  0.100987  0.227006  0  4.023025  0
C  C148  1  0.59319354  0.60497586  0.75293194  1  0.511351  0  0.100969  0.226963  0  4.02307  0
C  C149  1  0.59319219  0.89502217  0.74706782  1  0.511366  0  0.100951  0.227045  0  4.022967  0
C  C150  1  0.26234502  0.41498815  0.28716751  1  -0.023886  0  -0.238196  -0.428434  0  3.960188  0
C  C151  1  0.26234510  0.08501172  0.21283166  1  -0.023797  0  -0.238175  -0.428384  0  3.960142  0
C  C152  1  0.73765418  0.58501079  0.71283277  1  -0.023904  0  -0.238211  -0.428446  0  3.960176  0
C  C153  1  0.73765410  0.91498885  0.78716678  1  -0.02388  0  -0.238226  -0.428542  0  3.960179  0
C  C154  1  0.66968680  0.42896293  0.31161876  1  -0.030439  0  0.012825  0.161749  0  4.009905  0
C  C155  1  0.66968434  0.07103686  0.18838204  1  -0.030443  0  0.012822  0.161712  0  4.009942  0
C  C156  1  0.33031113  0.57104011  0.68838199  1  -0.030422  0  0.012806  0.161656  0  4.010083  0
C  C157  1  0.33031360  0.92896126  0.81161855  1  -0.030409  0  0.012815  0.161704  0  4.009929  0
C  C158  1  0.59568957  0.40781769  0.36027919  1  -0.019848  0  -0.090034  -0.189349  0  3.921198  0
C  C159  1  0.59568581  0.09218212  0.13972161  1  -0.019843  0  -0.090009  -0.189276  0  3.921192  0
C  C160  1  0.40431090  0.59218453  0.63972146  1  -0.019854  0  -0.089981  -0.189246  0  3.921153  0
C  C161  1  0.40431212  0.90781519  0.86027889  1  -0.01988  0  -0.089974  -0.189194  0  3.921203  0
C  C162  1  0.82876422  0.48191317  0.31845141  1  -0.003542  0  -0.090941  -0.198159  0  3.953913  0
C  C163  1  0.82876432  0.01808822  0.18154917  1  -0.003541  0  -0.090939  -0.198194  0  3.953876  0
C  C164  1  0.17123371  0.51809151  0.68154912  1  -0.003575  0  -0.090929  -0.198241  0  3.953981  0
C  C165  1  0.17123488  0.98191072  0.81845111  1  -0.003548  0  -0.090931  -0.198233  0  3.953898  0
C  C166  1  0.68233979  0.43544598  0.41067486  1  0.455758  0  0.040577  0.088798  0  3.974648  0
C  C167  1  0.68233730  0.06455545  0.08932532  1  0.455882  0  0.040556  0.088769  0  3.974484  0
C  C168  1  0.31766068  0.56455706  0.58932467  1  0.456365  0  0.040555  0.088838  0  3.974621  0
C  C169  1  0.31766190  0.93544431  0.91067465  1  0.455918  0  0.04055  0.088759  0  3.974534  0
C  C170  1  0.90797966  0.50440268  0.37017025  1  0.442387  0  0.041589  0.097203  0  3.986891  0
C  C171  1  0.90797948  0.99559943  0.12982966  1  0.442401  0  0.041624  0.097319  0  3.986883  0
C  C172  1  0.09202208  0.49560118  0.62983019  1  0.442372  0  0.041647  0.097422  0  3.986827  0
C  C173  1  0.09202099  0.00440115  0.87016999  1  0.442366  0  0.041629  0.097357  0  3.986865  0
N  N174  1  0.16827128  0.85986736  0.02445380  1  -1.254111  0  -0.33838  -0.240421  0  3.51369  0
N  N175  1  0.16827269  0.64013163  0.47554614  1  -1.254153  0  -0.338361  -0.240403  0  3.513712  0
N  N176  1  0.83172792  0.14013158  0.97554567  1  -1.254152  0  -0.338364  -0.240393  0  3.513749  0
N  N177  1  0.83173033  0.35986895  0.52445514  1  -1.254149  0  -0.338346  -0.240432  0  3.513714  0
N  N178  1  0.53391717  0.45076880  0.09208882  1  -0.832762  0  -0.148717  0.081502  0  3.767692  0
N  N179  1  0.53391480  0.04923102  0.40791157  1  -0.832754  0  -0.148769  0.081462  0  3.767741  0
N  N180  1  0.46608457  0.54923178  0.90791164  1  -0.832807  0  -0.148768  0.081445  0  3.767864  0
N  N181  1  0.46608060  0.95076874  0.59208840  1  -0.832803  0  -0.148735  0.081542  0  3.767609  0
N  N182  1  0.68022729  0.51019320  0.09413637  1  -0.696655  0  -0.24614  -0.323105  0  3.136873  0
N  N183  1  0.68022721  0.98980732  0.40586417  1  -0.696614  0  -0.246122  -0.323085  0  3.13679  0
N  N184  1  0.31977445  0.48980656  0.90586320  1  -0.696585  0  -0.246124  -0.323098  0  3.136846  0
N  N185  1  0.31977199  0.01019325  0.59413549  1  -0.696623  0  -0.246133  -0.323119  0  3.136828  0
N  N186  1  0.53108963  0.35843331  0.16749930  1  -0.832681  0  -0.150674  0.075337  0  3.784186  0
N  N187  1  0.53108591  0.14156569  0.33250059  1  -0.832624  0  -0.150739  0.075273  0  3.784062  0
N  N188  1  0.46890957  0.64156645  0.83250148  1  -0.832694  0  -0.150723  0.075289  0  3.784142  0
N  N189  1  0.46890821  0.85843325  0.66749847  1  -0.832715  0  -0.150639  0.075269  0  3.784198  0
N  N190  1  0.37535169  0.37134995  0.19242161  1  -0.699301  0  -0.240239  -0.306357  0  3.128254  0
N  N191  1  0.37534797  0.12864909  0.30757829  1  -0.699346  0  -0.240151  -0.306258  0  3.128127  0
N  N192  1  0.62465005  0.62864900  0.80757908  1  -0.699323  0  -0.240141  -0.30624  0  3.128137  0
N  N193  1  0.62464616  0.87135067  0.69242087  1  -0.699289  0  -0.240221  -0.306333  0  3.128171  0
N  N194  1  0.83804088  0.48089169  0.41584462  1  -1.218774  0  -0.334812  -0.244813  0  3.518275  0
N  N195  1  0.83803715  0.01911052  0.08415605  1  -1.218854  0  -0.33484  -0.24487  0  3.518338  0
N  N196  1  0.16196467  0.51911053  0.58415563  1  -1.219329  0  -0.334857  -0.244945  0  3.518415  0
N  N197  1  0.16196206  0.98089006  0.91584441  1  -1.218864  0  -0.334856  -0.244918  0  3.518336  0
Cl  Cl198  1  0.22387675  0.14743167  0.05220038  1  -0.727258  0  -0.377186  -0.589387  0  0.99582  0
Cl  Cl199  1  0.22387676  0.35256658  0.44779942  1  -0.727258  0  -0.377189  -0.589395  0  0.995832  0
Cl  Cl200  1  0.77612372  0.85256727  0.94779949  1  -0.72725  0  -0.377189  -0.589382  0  0.995827  0
Cl  Cl201  1  0.77612371  0.64743236  0.55220046  1  -0.72726  0  -0.377194  -0.589396  0  0.99581  0
