# generated using pymatgen
data_SrZrCdH8(C2O5)4
_symmetry_space_group_name_H-M   'P 1'
_cell_length_a   8.56625693
_cell_length_b   9.12458804
_cell_length_c   9.12459335
_cell_angle_alpha   77.25246242
_cell_angle_beta   61.97772066
_cell_angle_gamma   61.97770586
_symmetry_Int_Tables_number   1
_chemical_formula_structural   SrZrCdH8(C2O5)4
_chemical_formula_sum   'Sr1 Zr1 Cd1 H8 C8 O20'
_cell_volume   555.78651358
_cell_formula_units_Z   1
loop_
 _symmetry_equiv_pos_site_id
 _symmetry_equiv_pos_as_xyz
  1  'x, y, z'
loop_
 _atom_site_type_symbol
 _atom_site_label
 _atom_site_symmetry_multiplicity
 _atom_site_fract_x
 _atom_site_fract_y
 _atom_site_fract_z
 _atom_site_occupancy
 _atom_site_hle17_bader_spin_density
 _atom_site_hle17_ddec_charge
 _atom_site_hle17_ddec_spin_density
 _atom_site_hle17_ddec_sum_bond_order
 _atom_site_hle17_magmom
 _atom_site_hse06_10hf_bader_spin_density
 _atom_site_hse06_10hf_ddec_charge
 _atom_site_hse06_10hf_ddec_spin_density
 _atom_site_hse06_10hf_ddec_sum_bond_order
 _atom_site_hse06_10hf_magmom
 _atom_site_hse06_bader_spin_density
 _atom_site_hse06_ddec_charge
 _atom_site_hse06_ddec_spin_density
 _atom_site_hse06_ddec_sum_bond_order
 _atom_site_hse06_magmom
 _atom_site_pbe_bader_spin_density
 _atom_site_pbe_cm5_charge
 _atom_site_pbe_ddec_charge
 _atom_site_pbe_ddec_spin_density
 _atom_site_pbe_ddec_sum_bond_order
 _atom_site_pbe_magmom
Sr  Sr0  1  0.50003383  0.99998299  0.99998180  1  0  1.660751  0  1.062611  0  0  1.518603  0  1.438332  0  0  1.553396  0  1.390162  0  0  0.945643  1.49274  0  1.472851  0
Zr  Zr1  1  0.24997791  0.49999641  0.49999525  1  0  2.287862  0  2.393467  0  0  2.185562  0  2.805191  0  0  2.280141  0  2.751182  0  0  1.613569  2.119358  0  2.84116  0
Cd  Cd2  1  0.00018581  0.99987174  0.99987217  1  0  1.221894  0  1.563698  0  0  1.03094  0  1.999055  0  0  1.091309  0  1.946395  0  0  0.798101  0.987414  0  2.035193  0
H  H3  1  0.54732344  0.72145795  0.27854645  1  0  0.44297  0  0.837736  0  0  0.414674  0  0.894664  0  0  0.425065  0  0.879121  0  0  0.308005  0.407241  0  0.905803  0
H  H4  1  0.17395209  0.27852785  0.27852954  1  0  0.441952  0  0.839242  0  0  0.414383  0  0.895074  0  0  0.424719  0  0.879599  0  0  0.307598  0.406975  0  0.906196  0
H  H5  1  0.54732398  0.27854757  0.72145697  1  0  0.442982  0  0.837717  0  0  0.414685  0  0.894647  0  0  0.425076  0  0.879104  0  0  0.307993  0.407251  0  0.905787  0
H  H6  1  0.73110502  0.72148791  0.72148729  1  0  0.441989  0  0.838951  0  0  0.414227  0  0.895107  0  0  0.424643  0  0.879528  0  0  0.307428  0.406778  0  0.906267  0
H  H7  1  0.72245477  0.77091575  0.22908432  1  0  0.438104  0  0.851551  0  0  0.407314  0  0.912768  0  0  0.41865  0  0.895949  0  0  0.297464  0.399218  0  0.924791  0
H  H8  1  0.04831771  0.22906024  0.22906147  1  0  0.438342  0  0.851263  0  0  0.407796  0  0.912089  0  0  0.419122  0  0.895287  0  0  0.29814  0.39971  0  0.924088  0
H  H9  1  0.72245614  0.22908431  0.77091555  1  0  0.438087  0  0.851574  0  0  0.407298  0  0.912788  0  0  0.418634  0  0.89597  0  0  0.297455  0.399202  0  0.924812  0
H  H10  1  0.50648862  0.77096084  0.77095765  1  0  0.436926  0  0.853129  0  0  0.405921  0  0.914681  0  0  0.417249  0  0.897882  0  0  0.297175  0.397832  0  0.926694  0
C  C11  1  0.23447907  0.72223594  0.72223581  1  0  0.555195  0  3.914089  0  0  0.507868  0  4.216101  0  0  0.539249  0  4.207915  0  0  0.221478  0.4865  0  4.221098  0
C  C12  1  0.04331083  0.72250791  0.27773642  1  0  0.554286  0  3.916343  0  0  0.507753  0  4.217554  0  0  0.539187  0  4.209297  0  0  0.220738  0.486341  0  4.222598  0
C  C13  1  0.67907484  0.27744107  0.27744131  1  0  0.55014  0  3.918437  0  0  0.503169  0  4.21981  0  0  0.534574  0  4.211535  0  0  0.217749  0.481774  0  4.224866  0
C  C14  1  0.04331014  0.27773716  0.72250659  1  0  0.554421  0  3.916301  0  0  0.507878  0  4.2175  0  0  0.539314  0  4.20924  0  0  0.220794  0.486467  0  4.222543  0
C  C15  1  0.01952920  0.76787174  0.76787209  1  0  0.573422  0  3.874761  0  0  0.526799  0  4.171137  0  0  0.558246  0  4.162871  0  0  0.235602  0.505315  0  4.176155  0
C  C16  1  0.21266669  0.76800578  0.23225822  1  0  0.574245  0  3.873566  0  0  0.527763  0  4.169827  0  0  0.559187  0  4.161599  0  0  0.236702  0.506308  0  4.174792  0
C  C17  1  0.55515020  0.23203863  0.23203786  1  0  0.577187  0  3.877232  0  0  0.531833  0  4.171648  0  0  0.563307  0  4.163333  0  0  0.238868  0.510346  0  4.176672  0
C  C18  1  0.21266445  0.23225958  0.76800645  1  0  0.574252  0  3.873625  0  0  0.527813  0  4.169806  0  0  0.559237  0  4.161578  0  0  0.236722  0.506359  0  4.174772  0
O  O19  1  0.88560153  0.87529417  0.87529502  1  0  -0.573472  0  2.08804  0  0  -0.507963  0  2.328946  0  0  -0.535407  0  2.32119  0  0  -0.295808  -0.488729  0  2.333764  0
O  O20  1  0.23929172  0.87534352  0.12482093  1  0  -0.572475  0  2.086021  0  0  -0.507857  0  2.327502  0  0  -0.535256  0  2.319719  0  0  -0.295987  -0.488656  0  2.332334  0
O  O21  1  0.63599373  0.12464612  0.12464739  1  0  -0.573271  0  2.087582  0  0  -0.509019  0  2.328307  0  0  -0.536444  0  2.320518  0  0  -0.296177  -0.489806  0  2.333146  0
O  O22  1  0.23929007  0.12482410  0.87534491  1  0  -0.572507  0  2.086038  0  0  -0.507905  0  2.327493  0  0  -0.535304  0  2.319708  0  0  -0.296005  -0.488705  0  2.332327  0
O  O23  1  0.99804972  0.68576102  0.68576305  1  0  -0.666412  0  2.102038  0  0  -0.621203  0  2.345076  0  0  -0.652912  0  2.337492  0  0  -0.349991  -0.599122  0  2.349569  0
O  O24  1  0.31620534  0.68576840  0.31443375  1  0  -0.666735  0  2.101479  0  0  -0.621124  0  2.344099  0  0  -0.652844  0  2.336534  0  0  -0.350098  -0.599035  0  2.348572  0
O  O25  1  0.36935713  0.31429478  0.31429573  1  0  -0.668169  0  2.103266  0  0  -0.623462  0  2.346021  0  0  -0.655174  0  2.338351  0  0  -0.35122  -0.601382  0  2.350573  0
O  O26  1  0.31620276  0.31443591  0.68576973  1  0  -0.666756  0  2.101501  0  0  -0.621148  0  2.344094  0  0  -0.652871  0  2.336529  0  0  -0.350105  -0.599061  0  2.348568  0
O  O27  1  0.27294702  0.79444477  0.79444500  1  0  -0.560935  0  2.061216  0  0  -0.49884  0  2.292052  0  0  -0.526752  0  2.282157  0  0  -0.27637  -0.479342  0  2.29833  0
O  O28  1  0.93273973  0.79464564  0.20535947  1  0  -0.560738  0  2.06084  0  0  -0.499106  0  2.291586  0  0  -0.527031  0  2.281658  0  0  -0.276101  -0.479595  0  2.297883  0
O  O29  1  0.86206547  0.20517168  0.20517358  1  0  -0.560072  0  2.06225  0  0  -0.498395  0  2.292993  0  0  -0.526341  0  2.283076  0  0  -0.275953  -0.478878  0  2.29929  0
O  O30  1  0.93274024  0.20535975  0.79464429  1  0  -0.560811  0  2.060757  0  0  -0.499186  0  2.291515  0  0  -0.527109  0  2.281584  0  0  -0.276137  -0.479676  0  2.297814  0
O  O31  1  0.35696851  0.61076067  0.61076130  1  0  -0.601509  0  2.065239  0  0  -0.56468  0  2.307322  0  0  -0.591674  0  2.296994  0  0  -0.341634  -0.546074  0  2.313922  0
O  O32  1  0.03221197  0.61105796  0.38921692  1  0  -0.600473  0  2.066162  0  0  -0.564036  0  2.308179  0  0  -0.591054  0  2.297847  0  0  -0.340576  -0.545397  0  2.314772  0
O  O33  1  0.57863911  0.38891737  0.38891904  1  0  -0.598445  0  2.065288  0  0  -0.561974  0  2.307506  0  0  -0.588994  0  2.297175  0  0  -0.33911  -0.54333  0  2.314092  0
O  O34  1  0.03221083  0.38921717  0.61105516  1  0  -0.600515  0  2.066149  0  0  -0.564073  0  2.308165  0  0  -0.591093  0  2.297832  0  0  -0.340574  -0.545435  0  2.314757  0
O  O35  1  0.61108486  0.79235666  0.20767491  1  0  -0.901  0  1.772479  0  0  -0.848368  0  1.936697  0  0  -0.866316  0  1.901984  0  0  -0.638796  -0.835508  0  1.961177  0
O  O36  1  0.18110803  0.20764274  0.20764463  1  0  -0.900505  0  1.773756  0  0  -0.84869  0  1.936699  0  0  -0.86656  0  1.902096  0  0  -0.639421  -0.83588  0  1.961118  0
O  O37  1  0.61108591  0.20767578  0.79235652  1  0  -0.900981  0  1.772466  0  0  -0.84835  0  1.93668  0  0  -0.866298  0  1.901967  0  0  -0.638773  -0.83549  0  1.961161  0
O  O38  1  0.59639439  0.79239787  0.79239261  1  0  -0.899225  0  1.774347  0  0  -0.846899  0  1.93814  0  0  -0.864872  0  1.903393  0  0  -0.638388  -0.834029  0  1.962643  0
