# generated using pymatgen
data_Mg2H30C38N4O11
_symmetry_space_group_name_H-M   'P 1'
_cell_length_a   11.85008523
_cell_length_b   18.50346461
_cell_length_c   18.91083907
_cell_angle_alpha   55.10271632
_cell_angle_beta   84.23121192
_cell_angle_gamma   70.81255115
_symmetry_Int_Tables_number   1
_chemical_formula_structural   Mg2H30C38N4O11
_chemical_formula_sum   'Mg4 H60 C76 N8 O22'
_cell_volume   3191.41082774
_cell_formula_units_Z   2
loop_
 _symmetry_equiv_pos_site_id
 _symmetry_equiv_pos_as_xyz
  1  'x, y, z'
loop_
 _atom_site_type_symbol
 _atom_site_label
 _atom_site_symmetry_multiplicity
 _atom_site_fract_x
 _atom_site_fract_y
 _atom_site_fract_z
 _atom_site_occupancy
 _atom_site_pbe_bader_charge
 _atom_site_pbe_bader_spin_density
 _atom_site_pbe_cm5_charge
 _atom_site_pbe_ddec_charge
 _atom_site_pbe_ddec_spin_density
 _atom_site_pbe_ddec_sum_bond_order
 _atom_site_pbe_magmom
Mg  Mg0  1  0.90050624  0.84030240  0.34744242  1  1.689413  0  0.808693  1.324397  0  1.44502  0
Mg  Mg1  1  0.09948011  0.15971185  0.65254386  1  1.689554  0  0.80873  1.324678  0  1.44461  0
Mg  Mg2  1  0.61230860  0.84740065  0.30842094  1  1.686203  0  0.805204  1.325688  0  1.452555  0
Mg  Mg3  1  0.38768759  0.15258950  0.69157231  1  1.686328  0  0.805282  1.325924  0  1.452314  0
H  H4  1  0.02132791  0.86538445  0.11392236  1  0.076311  0  0.10153  0.101187  0  1.018424  0
H  H5  1  0.97866036  0.13460974  0.88609545  1  0.076389  0  0.10153  0.101253  0  1.01836  0
H  H6  1  0.05693273  0.91272408  0.96347796  1  0.064087  0  0.104862  0.110918  0  0.989121  0
H  H7  1  0.94308903  0.08725116  0.03655055  1  0.064292  0  0.10485  0.110855  0  0.989179  0
H  H8  1  0.68332997  0.96458383  0.90807026  1  0.06312  0  0.100473  0.112314  0  1.016474  0
H  H9  1  0.31669233  0.03539736  0.09192964  1  0.061459  0  0.100442  0.112292  0  1.016541  0
H  H10  1  0.64920543  0.91904727  0.05852086  1  0.101191  0  0.107367  0.11422  0  0.993095  0
H  H11  1  0.35080267  0.08093565  0.94147885  1  0.101423  0  0.1074  0.114247  0  0.993074  0
H  H12  1  0.96146501  0.07925847  0.81670983  1  0.106412  0  0.112339  0.082924  0  1.048569  0
H  H13  1  0.03852868  0.92073805  0.18329728  1  0.106352  0  0.112327  0.082836  0  1.048582  0
H  H14  1  0.96009770  0.07878915  0.59922286  1  0.121145  0  0.113894  0.082157  0  1.058093  0
H  H15  1  0.03988405  0.92121581  0.40077027  1  0.12101  0  0.113904  0.082127  0  1.058273  0
H  H16  1  0.04774504  0.94523045  0.60393490  1  0.078834  0  0.098745  0.09595  0  1.063548  0
H  H17  1  0.95225551  0.05478714  0.39603567  1  0.078672  0  0.098778  0.09606  0  1.063546  0
H  H18  1  0.03469196  0.87668717  0.52606598  1  0.07978  0  0.102061  0.101188  0  1.027033  0
H  H19  1  0.96530629  0.12331122  0.47392862  1  0.080005  0  0.102068  0.101126  0  1.027016  0
H  H20  1  0.70346067  0.84038345  0.62796980  1  0.115923  0  0.102863  0.103743  0  1.050158  0
H  H21  1  0.29657773  0.15957239  0.37204778  1  0.11541  0  0.102791  0.103675  0  1.050151  0
H  H22  1  0.71128357  0.91278312  0.70323160  1  0.073913  0  0.104345  0.108036  0  1.011956  0
H  H23  1  0.28875035  0.08719277  0.29676634  1  0.077296  0  0.104365  0.108234  0  1.01178  0
H  H24  1  0.53764255  0.95590509  0.62440203  1  0.073538  0  0.101432  0.097243  0  1.046878  0
H  H25  1  0.46236473  0.04409174  0.37560478  1  0.074897  0  0.101405  0.097111  0  1.046983  0
H  H26  1  0.56513270  0.87083982  0.55524867  1  0.114002  0  0.101193  0.105803  0  1.054994  0
H  H27  1  0.43486612  0.12913948  0.44477442  1  0.114285  0  0.10114  0.105777  0  1.054901  0
H  H28  1  0.21283738  0.84779294  0.61284031  1  0.052215  0  0.097969  0.095981  0  1.049472  0
H  H29  1  0.78714624  0.15221045  0.38717257  1  0.052163  0  0.098016  0.095997  0  1.049633  0
H  H30  1  0.18774719  0.93249476  0.68191958  1  0.103158  0  0.102684  0.103181  0  1.027329  0
H  H31  1  0.81225836  0.06752269  0.31808402  1  0.103183  0  0.102618  0.103157  0  1.02741  0
H  H32  1  0.49318869  0.89948379  0.43331399  1  0.092793  0  0.116418  0.084057  0  1.049469  0
H  H33  1  0.50685153  0.10051694  0.56671335  1  0.092809  0  0.116423  0.084094  0  1.049703  0
H  H34  1  0.47420560  0.69659975  0.40738339  1  0.071614  0  0.10958  0.077697  0  1.046559  0
H  H35  1  0.52577110  0.30345332  0.59257282  1  0.072359  0  0.109635  0.077722  0  1.046796  0
H  H36  1  0.19628878  0.68413394  0.46409376  1  0.082694  0  0.103947  0.11389  0  1.012028  0
H  H37  1  0.80368922  0.31589029  0.53589863  1  0.083031  0  0.104004  0.114013  0  1.012089  0
H  H38  1  0.14843997  0.54400725  0.50771127  1  0.11703  0  0.103153  0.110684  0  1.024536  0
H  H39  1  0.85151848  0.45603662  0.49226461  1  0.116546  0  0.103073  0.110443  0  1.024518  0
H  H40  1  0.47252298  0.36597200  0.68417159  1  0.085159  0  0.098419  0.09522  0  1.015812  0
H  H41  1  0.52741194  0.63404192  0.31583633  1  0.084958  0  0.098411  0.095287  0  1.015543  0
H  H42  1  0.52422883  0.50600014  0.63913800  1  0.075252  0  0.101919  0.1066  0  0.993345  0
H  H43  1  0.47571956  0.49399405  0.36088489  1  0.07542  0  0.101901  0.106499  0  0.993212  0
H  H44  1  0.83562826  0.82229854  0.81792921  1  0.458819  0  0.310981  0.306557  0  0.956883  0
H  H45  1  0.16440828  0.17766279  0.18209574  1  0.4585  0  0.311012  0.306422  0  0.957051  0
H  H46  1  0.83354974  0.82801185  0.90664130  1  0.447078  0  0.313218  0.30936  0  0.946432  0
H  H47  1  0.16650685  0.17196055  0.09337239  1  0.447343  0  0.313247  0.30932  0  0.946222  0
H  H48  1  0.32128516  0.70596644  0.68278486  1  0.464791  0  0.311168  0.307295  0  0.955206  0
H  H49  1  0.67874483  0.29402770  0.31721766  1  0.464365  0  0.311209  0.307339  0  0.955265  0
H  H50  1  0.31169241  0.62480436  0.66616102  1  0.47368  0  0.313185  0.311168  0  0.945609  0
H  H51  1  0.68831936  0.37520457  0.33383642  1  0.473463  0  0.313282  0.311276  0  0.945618  0
H  H52  1  0.75309873  0.78189429  0.45589420  1  0.650594  0  0.294378  0.391467  0  0.953243  0
H  H53  1  0.24689395  0.21810394  0.54411741  1  0.650701  0  0.294364  0.391424  0  0.953314  0
H  H54  1  0.78453743  0.71402819  0.41805790  1  0.645553  0  0.29578  0.378465  0  0.975162  0
H  H55  1  0.21546668  0.28595524  0.58194772  1  0.645719  0  0.295823  0.378517  0  0.97506  0
H  H56  1  0.49159079  0.82414931  0.22993216  1  0.64851  0  0.330315  0.410006  0  0.881751  0
H  H57  1  0.50832259  0.17587099  0.77002765  1  0.646667  0  0.330154  0.4101  0  0.88208  0
H  H58  1  0.38868901  0.87714889  0.25824468  1  0.61959  0  0.3301  0.400861  0  0.884443  0
H  H59  1  0.61136222  0.12289243  0.74176099  1  0.619441  0  0.330186  0.401136  0  0.883956  0
H  H60  1  0.95934290  0.65848981  0.40770560  1  0.641003  0  0.316152  0.408998  0  0.90139  0
H  H61  1  0.04065609  0.34151184  0.59228829  1  0.641244  0  0.316119  0.409029  0  0.901347  0
H  H62  1  0.00939557  0.72095693  0.32428085  1  0.639533  0  0.317947  0.397727  0  0.910974  0
H  H63  1  0.99059533  0.27904821  0.67570927  1  0.639686  0  0.317993  0.39789  0  0.910784  0
C  C64  1  0.80854527  0.86951727  0.18369097  1  1.61585  0  0.228955  0.631925  0  4.175839  0
C  C65  1  0.19145910  0.13047035  0.81631085  1  1.6153  0  0.229013  0.632172  0  4.175092  0
C  C66  1  0.83265041  0.89024377  0.09539143  1  -0.027368  0  -0.020092  -0.044961  0  3.965335  0
C  C67  1  0.16735322  0.10972417  0.90463029  1  -0.02973  0  -0.020082  -0.044969  0  3.965029  0
C  C68  1  0.94761014  0.88731732  0.06845341  1  -0.050227  0  -0.087227  -0.090972  0  4.004052  0
C  C69  1  0.05238211  0.11266333  0.93156690  1  -0.049621  0  -0.087252  -0.091124  0  4.004452  0
C  C70  1  0.96757126  0.91337403  0.98437689  1  -0.051008  0  -0.09292  -0.14103  0  3.988939  0
C  C71  1  0.03245097  0.08658911  0.01564677  1  -0.050107  0  -0.09286  -0.14086  0  3.989254  0
C  C72  1  0.87279294  0.94188214  0.92536057  1  -0.012583  0  -0.011827  0.079549  0  4.031827  0
C  C73  1  0.12724946  0.05807793  0.07465763  1  -0.013029  0  -0.01178  0.079556  0  4.032048  0
C  C74  1  0.75830608  0.94125866  0.95352935  1  -0.084349  0  -0.098281  -0.156442  0  3.994839  0
C  C75  1  0.24171402  0.05872288  0.04647692  1  -0.082322  0  -0.098324  -0.156556  0  3.994975  0
C  C76  1  0.73855581  0.91647805  0.03730269  1  -0.025655  0  -0.083176  -0.081215  0  3.98105  0
C  C77  1  0.26145435  0.08350448  0.96270022  1  -0.025072  0  -0.083261  -0.081214  0  3.981114  0
C  C78  1  0.89263560  0.97675816  0.83409511  1  -0.00474  0  -0.022064  -0.102972  0  4.00858  0
C  C79  1  0.10739517  0.02321704  0.16591567  1  -0.005693  0  -0.022085  -0.102953  0  4.008749  0
C  C80  1  0.93973076  0.04932497  0.78642632  1  0.471493  0  0.038279  0.051791  0  3.997538  0
C  C81  1  0.06029334  0.95065809  0.21358199  1  0.472854  0  0.038359  0.052026  0  3.997572  0
C  C82  1  0.93950933  0.04808227  0.66603503  1  0.440121  0  0.043026  0.061097  0  3.977324  0
C  C83  1  0.06048504  0.95190689  0.33396474  1  0.440072  0  0.043093  0.061324  0  3.97755  0
C  C84  1  0.89430156  0.97394435  0.70674734  1  0.034413  0  -0.022661  -0.105389  0  3.981682  0
C  C85  1  0.10572768  0.02602333  0.29326061  1  0.03473  0  -0.022676  -0.105508  0  3.981535  0
C  C86  1  0.87119566  0.93533201  0.79478368  1  0.459448  0  0.122236  0.261471  0  4.059024  0
C  C87  1  0.12882428  0.06464966  0.20522094  1  0.459343  0  0.122278  0.261511  0  4.058826  0
C  C88  1  0.88208911  0.93328229  0.66069582  1  0.002092  0  -0.009141  0.090453  0  4.006977  0
C  C89  1  0.11792623  0.06669939  0.33930443  1  0.002834  0  -0.009118  0.090564  0  4.00684  0
C  C90  1  0.97142677  0.92269971  0.60927389  1  -0.022615  0  -0.095238  -0.144852  0  3.977324  0
C  C91  1  0.02858885  0.07728782  0.39071744  1  -0.02333  0  -0.095436  -0.145227  0  3.97781  0
C  C92  1  0.96380336  0.88482764  0.56484737  1  -0.082813  0  -0.085818  -0.088707  0  3.989822  0
C  C93  1  0.03619728  0.11516211  0.43514676  1  -0.082849  0  -0.085699  -0.0884  0  3.98976  0
C  C94  1  0.86608569  0.85608669  0.56980771  1  -0.001638  0  -0.017978  -0.033421  0  3.954529  0
C  C95  1  0.13392250  0.14389023  0.43019354  1  -0.001355  0  -0.017957  -0.033428  0  3.95449  0
C  C96  1  0.77820342  0.86434747  0.62249387  1  -0.053468  0  -0.084361  -0.085412  0  3.975786  0
C  C97  1  0.22181665  0.13563307  0.37750815  1  -0.052488  0  -0.084299  -0.085242  0  3.975921  0
C  C98  1  0.78476012  0.90305386  0.66646652  1  -0.129867  0  -0.098135  -0.157654  0  3.984031  0
C  C99  1  0.21525294  0.09695007  0.33351752  1  -0.133981  0  -0.098281  -0.158188  0  3.984162  0
C  C100  1  0.84996875  0.82345746  0.51567215  1  1.571782  0  0.215236  0.591203  0  4.189209  0
C  C101  1  0.15002842  0.17653897  0.48432357  1  1.571945  0  0.215198  0.59109  0  4.188898  0
C  C102  1  0.33772549  0.00832321  0.69151235  1  1.599975  0  0.225432  0.629774  0  4.178494  0
C  C103  1  0.66227544  0.99169053  0.30848405  1  1.600446  0  0.225232  0.629731  0  4.178543  0
C  C104  1  0.36122401  0.94872383  0.65816024  1  -0.019576  0  -0.021044  -0.043983  0  3.963455  0
C  C105  1  0.63876873  0.05129281  0.34184067  1  -0.018914  0  -0.02105  -0.0441  0  3.963169  0
C  C106  1  0.46733380  0.93115414  0.62235405  1  -0.048381  0  -0.084505  -0.084875  0  3.978392  0
C  C107  1  0.53266066  0.06886070  0.37765189  1  -0.051529  0  -0.084711  -0.085031  0  3.978424  0
C  C108  1  0.48247400  0.88416917  0.58342211  1  -0.060322  0  -0.091377  -0.139162  0  3.956054  0
C  C109  1  0.51752845  0.11583568  0.41659631  1  -0.059356  0  -0.091167  -0.13878  0  3.955965  0
C  C110  1  0.39182958  0.85250599  0.57984992  1  -0.035917  0  -0.006678  0.095469  0  4.008123  0
C  C111  1  0.60815954  0.14750779  0.42014909  1  -0.036618  0  -0.00658  0.09543  0  4.008574  0
C  C112  1  0.28592501  0.86916065  0.61702563  1  -0.086202  0  -0.102368  -0.162719  0  4.002412  0
C  C113  1  0.71407249  0.13083908  0.38298742  1  -0.085486  0  -0.102534  -0.162933  0  4.002933  0
C  C114  1  0.27081242  0.91694234  0.65518099  1  -0.0614  0  -0.086172  -0.083829  0  3.990854  0
C  C115  1  0.72919230  0.08306158  0.34482976  1  -0.061594  0  -0.08602  -0.08358  0  3.990627  0
C  C116  1  0.40898689  0.80590635  0.53531489  1  0.026659  0  -0.018679  -0.092143  0  3.975665  0
C  C117  1  0.59099789  0.19410722  0.46468249  1  0.02704  0  -0.018654  -0.091973  0  3.975275  0
C  C118  1  0.46499791  0.83905725  0.45941849  1  0.512  0  0.045027  0.072975  0  3.968822  0
C  C119  1  0.53499213  0.16096338  0.54058428  1  0.512084  0  0.044857  0.072512  0  3.969563  0
C  C120  1  0.45335631  0.72747132  0.44395246  1  0.48248  0  0.032007  0.038881  0  4.01869  0
C  C121  1  0.54661208  0.27256446  0.55603474  1  0.48219  0  0.032023  0.039103  0  4.019333  0
C  C122  1  0.39723155  0.68768039  0.51862647  1  0.045166  0  -0.019197  -0.088676  0  4.001488  0
C  C123  1  0.60274507  0.31234367  0.48136985  1  0.044534  0  -0.019091  -0.088704  0  4.001777  0
C  C124  1  0.37493420  0.72626817  0.56741770  1  0.430483  0  0.122652  0.260003  0  4.064071  0
C  C125  1  0.62506487  0.27375560  0.43256832  1  0.44124  0  0.122633  0.259914  0  4.063663  0
C  C126  1  0.36444145  0.60435874  0.54806566  1  -0.040675  0  -0.009131  0.082764  0  4.026356  0
C  C127  1  0.63556039  0.39564136  0.45193780  1  -0.039435  0  -0.009206  0.082697  0  4.026678  0
C  C128  1  0.25754482  0.61464231  0.51221941  1  -0.066471  0  -0.089729  -0.136086  0  3.96172  0
C  C129  1  0.74244049  0.38537741  0.48777365  1  -0.066874  0  -0.089771  -0.136163  0  3.961912  0
C  C130  1  0.22970600  0.53619692  0.53709734  1  0.00092  0  -0.081737  -0.073534  0  3.969809  0
C  C131  1  0.77025822  0.46383544  0.46287823  1  0.001723  0  -0.081763  -0.073384  0  3.969766  0
C  C132  1  0.30700603  0.44629030  0.59865245  1  -0.012196  0  -0.023888  -0.052713  0  3.985476  0
C  C133  1  0.69295503  0.55373714  0.40133127  1  -0.012134  0  -0.023766  -0.052578  0  3.985708  0
C  C134  1  0.41234268  0.43595998  0.63621068  1  -0.103608  0  -0.090352  -0.091455  0  4.017928  0
C  C135  1  0.58761547  0.56405097  0.36378722  1  -0.122091  0  -0.090331  -0.091513  0  4.017389  0
C  C136  1  0.44089349  0.51417688  0.61128124  1  -0.058138  0  -0.096851  -0.151877  0  4.004652  0
C  C137  1  0.55908120  0.48581868  0.38873175  1  -0.039968  0  -0.096841  -0.15182  0  4.004486  0
C  C138  1  0.28051819  0.36263988  0.61905470  1  1.563909  0  0.218668  0.608245  0  4.173119  0
C  C139  1  0.71946412  0.63736527  0.38093511  1  1.563874  0  0.21844  0.607855  0  4.173924  0
N  N140  1  0.96425204  0.08558569  0.70371421  1  -1.314102  0  -0.370419  -0.349002  0  3.490556  0
N  N141  1  0.03574406  0.91440606  0.29628404  1  -1.315202  0  -0.370434  -0.349104  0  3.491033  0
N  N142  1  0.83433587  0.85941327  0.84186614  1  -1.252813  0  -0.578935  -0.590866  0  3.373924  0
N  N143  1  0.16570404  0.14055772  0.15814815  1  -1.252512  0  -0.579078  -0.590675  0  3.373806  0
N  N144  1  0.48876912  0.80186947  0.41362913  1  -1.317223  0  -0.374401  -0.371519  0  3.529881  0
N  N145  1  0.51123402  0.19816440  0.58635761  1  -1.317804  0  -0.374361  -0.371342  0  3.530644  0
N  N146  1  0.32309832  0.68653321  0.64227070  1  -1.286615  0  -0.578199  -0.594125  0  3.37619  0
N  N147  1  0.67692888  0.31347651  0.35771809  1  -1.297576  0  -0.578345  -0.59429  0  3.376148  0
O  O148  1  0.70103469  0.88067127  0.20118865  1  -1.234697  0  -0.349202  -0.624172  0  2.250774  0
O  O149  1  0.29897184  0.11931603  0.79880626  1  -1.23423  0  -0.349207  -0.624256  0  2.250587  0
O  O150  1  0.89871406  0.84336139  0.23480497  1  -1.259273  0  -0.357193  -0.675918  0  2.297283  0
O  O151  1  0.10128736  0.15664397  0.76518941  1  -1.259101  0  -0.357247  -0.67621  0  2.297148  0
O  O152  1  0.75776055  0.79946856  0.52379161  1  -1.174008  0  -0.317398  -0.539463  0  2.153617  0
O  O153  1  0.24223402  0.20053229  0.47620891  1  -1.173983  0  -0.317431  -0.539427  0  2.153347  0
O  O154  1  0.92692283  0.82527972  0.46262063  1  -1.239378  0  -0.361902  -0.648916  0  2.231608  0
O  O155  1  0.07304311  0.17473746  0.53735530  1  -1.239487  0  -0.361794  -0.648862  0  2.231479  0
O  O156  1  0.76044327  0.78073534  0.40103551  1  -1.387447  0  -0.629639  -0.929531  0  2.227332  0
O  O157  1  0.23956243  0.21925234  0.59897305  1  -1.387823  0  -0.629702  -0.929617  0  2.227699  0
O  O158  1  0.45837967  0.88259239  0.22581648  1  -1.257241  0  -0.563391  -0.757082  0  1.998519  0
O  O159  1  0.54164224  0.11742061  0.77415939  1  -1.255336  0  -0.563412  -0.757581  0  1.998262  0
O  O160  1  0.01134748  0.69750491  0.38580845  1  -1.284174  0  -0.575904  -0.774314  0  1.987687  0
O  O161  1  0.98864215  0.30250436  0.61418015  1  -1.284624  0  -0.575932  -0.774506  0  1.987445  0
O  O162  1  0.23113442  0.03405670  0.70792013  1  -1.249476  0  -0.366818  -0.659066  0  2.267628  0
O  O163  1  0.76886410  0.96597346  0.29205942  1  -1.249484  0  -0.366696  -0.659013  0  2.267508  0
O  O164  1  0.42323688  0.03295498  0.69747833  1  -1.237378  0  -0.363788  -0.645423  0  2.192323  0
O  O165  1  0.57676750  0.96705312  0.30252020  1  -1.237416  0  -0.363615  -0.645285  0  2.192319  0
O  O166  1  0.18694660  0.37698968  0.57857581  1  -1.187029  0  -0.325375  -0.568347  0  2.147495  0
O  O167  1  0.81304567  0.62301140  0.42140570  1  -1.187157  0  -0.325312  -0.568217  0  2.14746  0
O  O168  1  0.35661166  0.28204036  0.67262404  1  -1.24964  0  -0.360553  -0.668856  0  2.285473  0
O  O169  1  0.64336684  0.71796075  0.32738040  1  -1.249884  0  -0.360533  -0.668629  0  2.285912  0
