# generated using pymatgen
data_UH10C6(NO4)2
_symmetry_space_group_name_H-M   'P 1'
_cell_length_a   6.98887816
_cell_length_b   11.14051036
_cell_length_c   14.49340000
_cell_angle_alpha   92.03726777
_cell_angle_beta   90.00000000
_cell_angle_gamma   90.00000000
_symmetry_Int_Tables_number   1
_chemical_formula_structural   UH10C6(NO4)2
_chemical_formula_sum   'U4 H40 C24 N8 O32'
_cell_volume   1127.73805739
_cell_formula_units_Z   4
loop_
 _symmetry_equiv_pos_site_id
 _symmetry_equiv_pos_as_xyz
  1  'x, y, z'
loop_
 _atom_site_type_symbol
 _atom_site_label
 _atom_site_symmetry_multiplicity
 _atom_site_fract_x
 _atom_site_fract_y
 _atom_site_fract_z
 _atom_site_occupancy
 _atom_site_hle17_bader_spin_density
 _atom_site_hle17_ddec_charge
 _atom_site_hle17_ddec_spin_density
 _atom_site_hle17_ddec_sum_bond_order
 _atom_site_hle17_magmom
 _atom_site_hse06_10hf_bader_spin_density
 _atom_site_hse06_10hf_ddec_charge
 _atom_site_hse06_10hf_ddec_spin_density
 _atom_site_hse06_10hf_ddec_sum_bond_order
 _atom_site_hse06_10hf_magmom
 _atom_site_hse06_bader_spin_density
 _atom_site_hse06_ddec_charge
 _atom_site_hse06_ddec_spin_density
 _atom_site_hse06_ddec_sum_bond_order
 _atom_site_hse06_magmom
 _atom_site_pbe_bader_charge
 _atom_site_pbe_bader_spin_density
 _atom_site_pbe_cm5_charge
 _atom_site_pbe_ddec_charge
 _atom_site_pbe_ddec_spin_density
 _atom_site_pbe_ddec_sum_bond_order
 _atom_site_pbe_magmom
U  U0  1  0.45604601  0.45305378  0.71986266  1  0  2.527828  0  4.096712  0  0  2.595701  0  4.741067  0  0  2.703583  0  4.704186  0  2.938415  0  2.179633  2.518245  0  4.769017  0
U  U1  1  0.95603899  0.04695212  0.78012440  1  0  2.527527  0  4.09731  0  0  2.59554  0  4.741478  0  0  2.703308  0  4.704733  0  2.938147  0  2.17955  2.51808  0  4.769427  0
U  U2  1  0.54395139  0.54694635  0.28013597  1  0  2.527771  0  4.096848  0  0  2.595634  0  4.741245  0  0  2.703496  0  4.704401  0  2.939025  0  2.179607  2.518216  0  4.76912  0
U  U3  1  0.04395841  0.95305070  0.21987706  1  0  2.527614  0  4.097164  0  0  2.595536  0  4.741477  0  0  2.703428  0  4.704558  0  2.937987  0  2.179607  2.518087  0  4.7694  0
H  H4  1  0.19041540  0.65943780  0.77331984  1  0  0.443294  0  0.852569  0  0  0.415884  0  0.911458  0  0  0.42795  0  0.893961  0  0.668105  0  0.308906  0.407259  0  0.923935  0
H  H5  1  0.69041123  0.84056194  0.72667670  1  0  0.443312  0  0.852577  0  0  0.415902  0  0.911473  0  0  0.427967  0  0.893976  0  0.668191  0  0.308894  0.407279  0  0.923947  0
H  H6  1  0.80958201  0.34056143  0.22667876  1  0  0.443297  0  0.852561  0  0  0.415864  0  0.911484  0  0  0.42793  0  0.893987  0  0.668108  0  0.308909  0.40724  0  0.923959  0
H  H7  1  0.30959046  0.15943818  0.27332330  1  0  0.443313  0  0.852589  0  0  0.415905  0  0.911478  0  0  0.427971  0  0.893981  0  0.668415  0  0.308907  0.407282  0  0.923954  0
H  H8  1  0.36685430  0.72255469  0.71536427  1  0  0.44019  0  0.862382  0  0  0.409994  0  0.92487  0  0  0.423874  0  0.90494  0  0.656535  0  0.301228  0.40009  0  0.939053  0
H  H9  1  0.86685443  0.77745043  0.78463104  1  0  0.44029  0  0.862234  0  0  0.410141  0  0.924651  0  0  0.424017  0  0.904727  0  0.65691  0  0.301295  0.400231  0  0.938846  0
H  H10  1  0.63314596  0.27744543  0.28463435  1  0  0.440163  0  0.862412  0  0  0.41001  0  0.92484  0  0  0.423891  0  0.904908  0  0.656874  0  0.301236  0.400104  0  0.939027  0
H  H11  1  0.13314440  0.22254879  0.21536756  1  0  0.440206  0  0.862334  0  0  0.410028  0  0.924799  0  0  0.423906  0  0.904872  0  0.656861  0  0.301266  0.400117  0  0.938994  0
H  H12  1  0.29504020  0.43251301  0.48957335  1  0  0.332256  0  0.897316  0  0  0.317615  0  0.95335  0  0  0.325193  0  0.946575  0  0.524019  0  0.323883  0.312345  0  0.958252  0
H  H13  1  0.79503604  0.06748840  0.01042392  1  0  0.33229  0  0.897314  0  0  0.317649  0  0.953349  0  0  0.325229  0  0.946569  0  0.524082  0  0.323892  0.312377  0  0.958254  0
H  H14  1  0.70496006  0.56748712  0.51042458  1  0  0.332256  0  0.897348  0  0  0.31761  0  0.953388  0  0  0.325188  0  0.94661  0  0.524045  0  0.323878  0.312339  0  0.958292  0
H  H15  1  0.20496136  0.93251172  0.98957470  1  0  0.332278  0  0.897318  0  0  0.317629  0  0.953359  0  0  0.325209  0  0.946577  0  0.524046  0  0.323879  0.312357  0  0.958263  0
H  H16  1  0.84420845  0.29238417  0.63071852  1  0  0.328393  0  0.899023  0  0  0.309458  0  0.961424  0  0  0.317596  0  0.954644  0  0.530355  0  0.328328  0.303693  0  0.966321  0
H  H17  1  0.34420546  0.20761544  0.86928078  1  0  0.328496  0  0.899122  0  0  0.309573  0  0.961474  0  0  0.317715  0  0.954687  0  0.530329  0  0.328346  0.303807  0  0.966373  0
H  H18  1  0.15579467  0.70761326  0.36928072  1  0  0.328478  0  0.89913  0  0  0.309545  0  0.961503  0  0  0.317683  0  0.95472  0  0.530278  0  0.328367  0.303779  0  0.966403  0
H  H19  1  0.65579481  0.79238558  0.13071856  1  0  0.328396  0  0.899072  0  0  0.309468  0  0.961462  0  0  0.31761  0  0.954672  0  0.530356  0  0.328321  0.303702  0  0.96636  0
H  H20  1  0.81443543  0.46476711  0.93751614  1  0  0.15624  0  0.892896  0  0  0.174414  0  0.939601  0  0  0.177486  0  0.938081  0  0.087129  0  0.129374  0.172407  0  0.940636  0
H  H21  1  0.31443244  0.03523610  0.56248326  1  0  0.156255  0  0.892827  0  0  0.174441  0  0.939524  0  0  0.177513  0  0.938004  0  0.087119  0  0.129376  0.172435  0  0.940559  0
H  H22  1  0.18556769  0.53523392  0.06248665  1  0  0.156256  0  0.892934  0  0  0.174458  0  0.939599  0  0  0.177532  0  0.938075  0  0.087184  0  0.129384  0.172451  0  0.940633  0
H  H23  1  0.68556639  0.96476492  0.43751815  1  0  0.156246  0  0.892806  0  0  0.174429  0  0.939509  0  0  0.1775  0  0.937991  0  0.087086  0  0.129392  0.172423  0  0.940541  0
H  H24  1  0.05316018  0.46344407  0.89486886  1  0  0.159665  0  0.930599  0  0  0.171044  0  0.987151  0  0  0.175093  0  0.984199  0  0.092591  0  0.118434  0.168323  0  0.989279  0
H  H25  1  0.55316317  0.03655914  0.60512984  1  0  0.159695  0  0.930616  0  0  0.17109  0  0.987136  0  0  0.175119  0  0.984207  0  0.092565  0  0.118469  0.168369  0  0.989264  0
H  H26  1  0.94683722  0.53655695  0.10513254  1  0  0.159685  0  0.930673  0  0  0.171072  0  0.987216  0  0  0.175116  0  0.984273  0  0.092601  0  0.11844  0.168349  0  0.989345  0
H  H27  1  0.44683709  0.96344278  0.39487090  1  0  0.159658  0  0.930635  0  0  0.171052  0  0.98716  0  0  0.175083  0  0.98423  0  0.092554  0  0.11844  0.168331  0  0.989289  0
H  H28  1  0.16335526  0.24200814  0.40529378  1  0  0.068449  0  0.926899  0  0  0.082482  0  0.986945  0  0  0.08326  0  0.986195  0  0.053756  0  0.1082  0.081851  0  0.987608  0
H  H29  1  0.66335539  0.25799327  0.09470488  1  0  0.068459  0  0.926917  0  0  0.082496  0  0.986951  0  0  0.083277  0  0.986201  0  0.053737  0  0.1082  0.081867  0  0.987613  0
H  H30  1  0.83664644  0.75799199  0.59470553  1  0  0.068477  0  0.926889  0  0  0.0825  0  0.986934  0  0  0.083281  0  0.986185  0  0.053774  0  0.10821  0.081869  0  0.987597  0
H  H31  1  0.33664630  0.74200685  0.90529306  1  0  0.068427  0  0.926965  0  0  0.082487  0  0.986971  0  0  0.083267  0  0.986223  0  0.053736  0  0.108206  0.081858  0  0.987633  0
H  H32  1  0.03277636  0.36966198  0.36975733  1  0  0.077349  0  0.93997  0  0  0.090072  0  1.002509  0  0  0.091176  0  1.002224  0  0.114758  0  0.110802  0.089118  0  1.002951  0
H  H33  1  0.53277506  0.13033943  0.13024133  1  0  0.077326  0  0.94007  0  0  0.09008  0  1.002551  0  0  0.091187  0  1.002265  0  0.114799  0  0.110792  0.089124  0  1.002996  0
H  H34  1  0.96722390  0.63033725  0.63024127  1  0  0.077319  0  0.940054  0  0  0.090066  0  1.00254  0  0  0.091172  0  1.002255  0  0.114784  0  0.110787  0.089111  0  1.002984  0
H  H35  1  0.46722663  0.86966249  0.86975804  1  0  0.077363  0  0.939974  0  0  0.090081  0  1.002517  0  0  0.091188  0  1.002231  0  0.114766  0  0.110786  0.089125  0  1.002961  0
H  H36  1  0.75840212  0.31159562  0.45482111  1  0  0.074427  0  0.919246  0  0  0.086537  0  0.98189  0  0  0.087316  0  0.981499  0  0.051888  0  0.112397  0.085988  0  0.982244  0
H  H37  1  0.25839912  0.18840490  0.04517752  1  0  0.074425  0  0.919261  0  0  0.086499  0  0.981931  0  0  0.087278  0  0.98154  0  0.051879  0  0.112386  0.085958  0  0.982276  0
H  H38  1  0.24159815  0.68840541  0.54517822  1  0  0.074383  0  0.919237  0  0  0.086473  0  0.981918  0  0  0.087251  0  0.981529  0  0.051895  0  0.112384  0.085935  0  0.982259  0
H  H39  1  0.74159971  0.81159433  0.95482246  1  0  0.07442  0  0.91925  0  0  0.086507  0  0.981916  0  0  0.087286  0  0.981526  0  0.051887  0  0.112392  0.085967  0  0.982261  0
H  H40  1  0.87750135  0.17336735  0.47506523  1  0  0.065909  0  0.919819  0  0  0.082776  0  0.975788  0  0  0.082443  0  0.976397  0  0.011954  0  0.108252  0.082942  0  0.975508  0
H  H41  1  0.37750265  0.32663675  0.02493419  1  0  0.06587  0  0.919798  0  0  0.082736  0  0.975754  0  0  0.082401  0  0.976364  0  0.011896  0  0.108232  0.082903  0  0.975475  0
H  H42  1  0.12250035  0.82663187  0.52493337  1  0  0.065874  0  0.919794  0  0  0.082741  0  0.975768  0  0  0.08241  0  0.976371  0  0.011969  0  0.10824  0.082907  0  0.975489  0
H  H43  1  0.62249905  0.67336607  0.97506451  1  0  0.065888  0  0.919798  0  0  0.082753  0  0.975765  0  0  0.082419  0  0.976374  0  0.011934  0  0.108242  0.082919  0  0.975487  0
C  C44  1  0.90252110  0.46365514  0.87421212  1  0  -0.447239  0  3.629976  0  0  -0.489594  0  3.868827  0  0  -0.500959  0  3.868343  0  -0.034726  0  -0.149989  -0.481828  0  3.868849  0
C  C45  1  0.40252240  0.03634806  0.62578727  1  0  -0.447361  0  3.629989  0  0  -0.489737  0  3.868891  0  0  -0.501092  0  3.868424  0  -0.034683  0  -0.150073  -0.481971  0  3.868913  0
C  C46  1  0.09747630  0.53634498  0.12578995  1  0  -0.447379  0  3.630088  0  0  -0.489732  0  3.869009  0  0  -0.501093  0  3.868533  0  -0.034719  0  -0.150026  -0.481973  0  3.869049  0
C  C47  1  0.59747786  0.96365117  0.37421339  1  0  -0.447318  0  3.62989  0  0  -0.48968  0  3.868829  0  0  -0.501034  0  3.868354  0  -0.034686  0  -0.150056  -0.481925  0  3.868876  0
C  C48  1  0.85845537  0.34633591  0.82175838  1  0  0.78719  0  3.763642  0  0  0.755666  0  4.060418  0  0  0.795896  0  4.045201  0  1.583258  0  0.254849  0.727812  0  4.070004  0
C  C49  1  0.35845667  0.15366999  0.67823902  1  0  0.787076  0  3.763869  0  0  0.755502  0  4.060723  0  0  0.795737  0  4.0455  0  1.58341  0  0.254783  0.727648  0  4.070309  0
C  C50  1  0.14154489  0.65366421  0.17824301  1  0  0.787394  0  3.763452  0  0  0.755731  0  4.060431  0  0  0.795963  0  4.045216  0  1.583207  0  0.254886  0.727877  0  4.070016  0
C  C51  1  0.64154359  0.84632924  0.32176303  1  0  0.787178  0  3.76374  0  0  0.755556  0  4.060664  0  0  0.795793  0  4.045439  0  1.583678  0  0.254794  0.7277  0  4.070252  0
C  C52  1  0.85379940  0.57681125  0.82401716  1  0  0.762477  0  3.785156  0  0  0.71966  0  4.089009  0  0  0.756859  0  4.078251  0  1.576824  0  0.242889  0.694119  0  4.095497  0
C  C53  1  0.35379784  0.92319297  0.67598157  1  0  0.762483  0  3.785046  0  0  0.719611  0  4.088968  0  0  0.756809  0  4.078204  0  1.576798  0  0.242822  0.694081  0  4.095453  0
C  C54  1  0.14620086  0.42318618  0.17598277  1  0  0.762502  0  3.785122  0  0  0.719625  0  4.089043  0  0  0.756825  0  4.078287  0  1.576849  0  0.24285  0.694087  0  4.095525  0
C  C55  1  0.64620099  0.07680805  0.32402052  1  0  0.762513  0  3.785003  0  0  0.719636  0  4.088922  0  0  0.756838  0  4.078161  0  1.576801  0  0.242862  0.694101  0  4.095408  0
C  C56  1  0.08617406  0.37887474  0.58354627  1  0  0.73515  0  3.893965  0  0  0.672029  0  4.203895  0  0  0.709052  0  4.198564  0  1.862563  0  0.350521  0.646635  0  4.206487  0
C  C57  1  0.58617562  0.12112667  0.91645239  1  0  0.735116  0  3.893868  0  0  0.672013  0  4.203772  0  0  0.709034  0  4.198433  0  1.862709  0  0.350445  0.646618  0  4.206366  0
C  C58  1  0.91382763  0.62112359  0.41645299  1  0  0.735143  0  3.89406  0  0  0.672018  0  4.203974  0  0  0.709038  0  4.19864  0  1.862692  0  0.350486  0.646624  0  4.206566  0
C  C59  1  0.41382607  0.87887615  0.08354700  1  0  0.735163  0  3.893967  0  0  0.672034  0  4.203888  0  0  0.709056  0  4.198553  0  1.86269  0  0.350514  0.646639  0  4.206481  0
C  C60  1  0.07100138  0.31656262  0.42921547  1  0  0.050039  0  3.565197  0  0  -0.003671  0  3.8233  0  0  0.000725  0  3.833357  0  0.28091  0  -0.044431  -0.006553  0  3.816315  0
C  C61  1  0.57099865  0.18343969  0.07078322  1  0  0.050036  0  3.565294  0  0  -0.003681  0  3.823337  0  0  0.0007  0  3.833416  0  0.280337  0  -0.044384  -0.006561  0  3.816351  0
C  C62  1  0.92899888  0.68343661  0.57078313  1  0  0.050031  0  3.565242  0  0  -0.00366  0  3.823302  0  0  0.000726  0  3.83337  0  0.28087  0  -0.044406  -0.006543  0  3.816318  0
C  C63  1  0.42900018  0.81656134  0.92921543  1  0  0.05003  0  3.565252  0  0  -0.003702  0  3.82335  0  0  0.000682  0  3.833419  0  0.28086  0  -0.044428  -0.006584  0  3.816364  0
C  C64  1  0.89095272  0.27153981  0.48056223  1  0  0.056248  0  3.57176  0  0  0.000636  0  3.832435  0  0  0.005322  0  3.843768  0  0.393408  0  -0.041093  -0.0025  0  3.824419  0
C  C65  1  0.39094973  0.22846339  0.01943717  1  0  0.056366  0  3.571787  0  0  0.000793  0  3.832424  0  0  0.005486  0  3.843756  0  0.393454  0  -0.041075  -0.002351  0  3.824408  0
C  C66  1  0.10904754  0.72846031  0.51943639  1  0  0.056368  0  3.571608  0  0  0.00075  0  3.832312  0  0  0.005441  0  3.843642  0  0.393525  0  -0.041082  -0.002392  0  3.824298  0
C  C67  1  0.60904768  0.77153853  0.98056289  1  0  0.056321  0  3.571817  0  0  0.000722  0  3.832495  0  0  0.005415  0  3.843826  0  0.393447  0  -0.041087  -0.002422  0  3.824479  0
N  N68  1  0.16811425  0.39019915  0.50035495  1  0  -0.482944  0  3.241052  0  0  -0.429736  0  3.490054  0  0  -0.451323  0  3.495459  0  -1.242089  0  -0.419397  -0.414647  0  3.485672  0
N  N69  1  0.66811009  0.10980226  0.99964371  1  0  -0.482896  0  3.24097  0  0  -0.429734  0  3.490025  0  0  -0.451317  0  3.495429  0  -1.241765  0  -0.419402  -0.414646  0  3.485643  0
N  N70  1  0.83188601  0.60980097  0.49964367  1  0  -0.482944  0  3.241131  0  0  -0.429753  0  3.490142  0  0  -0.451335  0  3.49555  0  -1.242172  0  -0.419384  -0.414664  0  3.485761  0
N  N71  1  0.33188588  0.89019697  0.00035558  1  0  -0.482946  0  3.241054  0  0  -0.42973  0  3.490064  0  0  -0.451312  0  3.49547  0  -1.242119  0  -0.419386  -0.414642  0  3.485682  0
N  N72  1  0.92814324  0.31106389  0.57568436  1  0  -0.46005  0  3.241508  0  0  -0.402667  0  3.488316  0  0  -0.424276  0  3.492753  0  -1.250497  0  -0.413722  -0.387563  0  3.484885  0
N  N73  1  0.42814024  0.18893842  0.92431501  1  0  -0.460293  0  3.241641  0  0  -0.402917  0  3.488385  0  0  -0.424532  0  3.49282  0  -1.250484  0  -0.413733  -0.387809  0  3.484959  0
N  N74  1  0.07185989  0.68893265  0.42431485  1  0  -0.460152  0  3.241618  0  0  -0.402759  0  3.488415  0  0  -0.424366  0  3.492847  0  -1.250526  0  -0.41373  -0.387656  0  3.48499  0
N  N75  1  0.57185716  0.81106260  0.07568433  1  0  -0.460135  0  3.241657  0  0  -0.402737  0  3.488403  0  0  -0.424349  0  3.492837  0  -1.250482  0  -0.413732  -0.387631  0  3.484974  0
O  O76  1  0.54151896  0.49083715  0.60586482  1  0  -0.723852  0  1.549859  0  0  -0.728425  0  1.832472  0  0  -0.748114  0  1.817222  0  -0.886136  0  -0.753981  -0.716805  0  1.844235  0
O  O77  1  0.04152025  0.00916606  0.89413803  1  0  -0.723785  0  1.5495  0  0  -0.728396  0  1.832032  0  0  -0.748066  0  1.816819  0  -0.88596  0  -0.753719  -0.716775  0  1.843793  0
O  O78  1  0.45847702  0.50916567  0.39413664  1  0  -0.723827  0  1.549826  0  0  -0.728416  0  1.832468  0  0  -0.748102  0  1.817228  0  -0.886079  0  -0.753958  -0.716802  0  1.844221  0
O  O79  1  0.95847715  0.99083497  0.10586545  1  0  -0.723788  0  1.549528  0  0  -0.728388  0  1.832092  0  0  -0.748093  0  1.81687  0  -0.885895  0  -0.753766  -0.716769  0  1.843849  0
O  O80  1  0.36752393  0.42142123  0.83417967  1  0  -0.722614  0  1.534162  0  0  -0.733419  0  1.816229  0  0  -0.753701  0  1.803032  0  -0.871119  0  -0.763025  -0.721671  0  1.826579  0
O  O81  1  0.86752264  0.07858288  0.66582320  1  0  -0.722544  0  1.534826  0  0  -0.733389  0  1.816946  0  0  -0.753624  0  1.803757  0  -0.870999  0  -0.763234  -0.721649  0  1.827302  0
O  O82  1  0.63247347  0.57857800  0.16582169  1  0  -0.722622  0  1.534264  0  0  -0.733423  0  1.816355  0  0  -0.753696  0  1.803164  0  -0.871697  0  -0.763046  -0.721681  0  1.826693  0
O  O83  1  0.13247763  0.92141994  0.33417964  1  0  -0.722574  0  1.534743  0  0  -0.733369  0  1.816812  0  0  -0.753638  0  1.803602  0  -0.871  0  -0.763219  -0.721629  0  1.827164  0
O  O84  1  0.73705105  0.34560838  0.75579262  1  0  -0.697859  0  2.103493  0  0  -0.688412  0  2.387495  0  0  -0.723162  0  2.380414  0  -1.169329  0  -0.363373  -0.662896  0  2.391095  0
O  O85  1  0.23704949  0.15439663  0.74420476  1  0  -0.697807  0  2.103521  0  0  -0.688379  0  2.387552  0  0  -0.723109  0  2.380468  0  -1.169394  0  -0.363351  -0.662865  0  2.391149  0
O  O86  1  0.26294778  0.65439085  0.24420874  1  0  -0.697938  0  2.10346  0  0  -0.688462  0  2.387541  0  0  -0.723209  0  2.380462  0  -1.169328  0  -0.363412  -0.662948  0  2.391138  0
O  O87  1  0.76295220  0.84560350  0.25579732  1  0  -0.697825  0  2.103497  0  0  -0.688365  0  2.387558  0  0  -0.723115  0  2.38047  0  -1.169829  0  -0.363333  -0.66285  0  2.391157  0
O  O88  1  0.94509589  0.25346369  0.84671794  1  0  -0.641577  0  1.983074  0  0  -0.624912  0  2.238591  0  0  -0.655864  0  2.229687  0  -1.156547  0  -0.340149  -0.602228  0  2.243517  0
O  O89  1  0.44510005  0.24653772  0.65328141  1  0  -0.641533  0  1.983281  0  0  -0.624804  0  2.238794  0  0  -0.655777  0  2.229901  0  -1.156706  0  -0.340101  -0.602121  0  2.243716  0
O  O90  1  0.05490867  0.74653734  0.15328485  1  0  -0.641623  0  1.983033  0  0  -0.624898  0  2.238625  0  0  -0.655863  0  2.229715  0  -1.156534  0  -0.340146  -0.602214  0  2.243547  0
O  O91  1  0.55490308  0.75346150  0.34671995  1  0  -0.641603  0  1.983275  0  0  -0.624838  0  2.238791  0  0  -0.655812  0  2.229907  0  -1.156499  0  -0.340109  -0.602158  0  2.243712  0
O  O92  1  0.69179486  0.58394740  0.78386828  1  0  -0.681599  0  2.035937  0  0  -0.66594  0  2.30744  0  0  -0.701072  0  2.301907  0  -1.17319  0  -0.377139  -0.640351  0  2.309958  0
O  O93  1  0.19179330  0.91605594  0.71613181  1  0  -0.681485  0  2.035977  0  0  -0.665805  0  2.307455  0  0  -0.700934  0  2.301954  0  -1.173162  0  -0.377072  -0.640199  0  2.309921  0
O  O94  1  0.30820683  0.41604914  0.21613094  1  0  -0.681569  0  2.03587  0  0  -0.665904  0  2.307411  0  0  -0.701026  0  2.301864  0  -1.173225  0  -0.377085  -0.640325  0  2.309938  0
O  O95  1  0.80821126  0.08394778  0.28387312  1  0  -0.681544  0  2.035881  0  0  -0.665879  0  2.307425  0  0  -0.701  0  2.30186  0  -1.173033  0  -0.377131  -0.640272  0  2.309892  0
O  O96  1  0.97179831  0.66359014  0.82639120  1  0  -0.61683  0  1.948307  0  0  -0.55841  0  2.155977  0  0  -0.584802  0  2.143355  0  -1.177858  0  -0.289748  -0.539777  0  2.16418  0
O  O97  1  0.47179961  0.83641050  0.67360468  1  0  -0.616878  0  1.94823  0  0  -0.558358  0  2.15586  0  0  -0.584745  0  2.143233  0  -1.177834  0  -0.289703  -0.539756  0  2.164079  0
O  O98  1  0.02820624  0.33640639  0.17360594  1  0  -0.616881  0  1.948381  0  0  -0.558337  0  2.155978  0  0  -0.584723  0  2.143346  0  -1.177894  0  -0.289744  -0.539708  0  2.164185  0
O  O99  1  0.52820065  0.16358783  0.32639666  1  0  -0.616859  0  1.948301  0  0  -0.558363  0  2.155939  0  0  -0.584751  0  2.143308  0  -1.17785  0  -0.289714  -0.539749  0  2.164153  0
O  O100  1  0.14666302  0.42519903  0.66033131  1  0  -0.685996  0  2.024118  0  0  -0.67579  0  2.308119  0  0  -0.70904  0  2.302099  0  -1.183065  0  -0.386326  -0.651302  0  2.310946  0
O  O101  1  0.64666029  0.07480508  0.83966811  1  0  -0.685916  0  2.024037  0  0  -0.675735  0  2.308021  0  0  -0.708986  0  2.302047  0  -1.183071  0  -0.386308  -0.651249  0  2.310849  0
O  O102  1  0.85333724  0.57479841  0.33966862  1  0  -0.685987  0  2.02406  0  0  -0.675791  0  2.308098  0  0  -0.709058  0  2.302129  0  -1.183185  0  -0.386344  -0.651307  0  2.310921  0
O  O103  1  0.35333997  0.92520043  0.16033066  1  0  -0.685951  0  2.024031  0  0  -0.675765  0  2.308044  0  0  -0.709035  0  2.302067  0  -1.183179  0  -0.386334  -0.65128  0  2.310871  0
O  O104  1  0.30936582  0.64470294  0.73714092  1  0  -0.90449  0  1.931578  0  0  -0.882983  0  2.149946  0  0  -0.910488  0  2.116784  0  -1.281916  0  -0.635303  -0.862703  0  2.172827  0
O  O105  1  0.80936452  0.85530218  0.76285301  1  0  -0.90459  0  1.931566  0  0  -0.883135  0  2.149855  0  0  -0.91062  0  2.1167  0  -1.282372  0  -0.635342  -0.862822  0  2.172671  0
O  O106  1  0.69063158  0.35529718  0.26285771  1  0  -0.904446  0  1.931602  0  0  -0.882956  0  2.149939  0  0  -0.910461  0  2.116781  0  -1.282237  0  -0.635293  -0.86268  0  2.172819  0
O  O107  1  0.19063718  0.14469704  0.23714834  1  0  -0.904489  0  1.931605  0  0  -0.883016  0  2.149925  0  0  -0.910523  0  2.116764  0  -1.282542  0  -0.635322  -0.862703  0  2.172741  0
