# generated using pymatgen
data_KSiBH19C7N
_symmetry_space_group_name_H-M   'P 1'
_cell_length_a   5.98220251
_cell_length_b   11.38919062
_cell_length_c   15.57205646
_cell_angle_alpha   90.00093579
_cell_angle_beta   90.00061507
_cell_angle_gamma   90.00034085
_symmetry_Int_Tables_number   1
_chemical_formula_structural   KSiBH19C7N
_chemical_formula_sum   'K4 Si4 B4 H76 C28 N4'
_cell_volume   1060.96227478
_cell_formula_units_Z   4
loop_
 _symmetry_equiv_pos_site_id
 _symmetry_equiv_pos_as_xyz
  1  'x, y, z'
loop_
 _atom_site_type_symbol
 _atom_site_label
 _atom_site_symmetry_multiplicity
 _atom_site_fract_x
 _atom_site_fract_y
 _atom_site_fract_z
 _atom_site_occupancy
 _atom_site_hle17_bader_spin_density
 _atom_site_hle17_ddec_charge
 _atom_site_hle17_ddec_spin_density
 _atom_site_hle17_ddec_sum_bond_order
 _atom_site_hle17_magmom
 _atom_site_hse06_10hf_bader_spin_density
 _atom_site_hse06_10hf_ddec_charge
 _atom_site_hse06_10hf_ddec_spin_density
 _atom_site_hse06_10hf_ddec_sum_bond_order
 _atom_site_hse06_10hf_magmom
 _atom_site_hse06_bader_spin_density
 _atom_site_hse06_ddec_charge
 _atom_site_hse06_ddec_spin_density
 _atom_site_hse06_ddec_sum_bond_order
 _atom_site_hse06_magmom
 _atom_site_pbe_bader_spin_density
 _atom_site_pbe_cm5_charge
 _atom_site_pbe_ddec_charge
 _atom_site_pbe_ddec_spin_density
 _atom_site_pbe_ddec_sum_bond_order
 _atom_site_pbe_magmom
K  K0  1  0.45728430  0.19546277  0.58565928  1  0  0.939058  0  0.470054  0  0  0.896229  0  0.646772  0  0  0.906129  0  0.633649  0  0  0.751271  0.888868  0  0.656068  0
K  K1  1  0.04269528  0.80453405  0.08565580  1  0  0.939014  0  0.470052  0  0  0.896203  0  0.646762  0  0  0.906111  0  0.633643  0  0  0.751302  0.888848  0  0.656053  0
K  K2  1  0.54275095  0.69543798  0.91434029  1  0  0.939007  0  0.470079  0  0  0.896149  0  0.64682  0  0  0.906051  0  0.633705  0  0  0.751247  0.888789  0  0.656117  0
K  K3  1  0.95726989  0.30454242  0.41434742  1  0  0.93905  0  0.469997  0  0  0.896222  0  0.646745  0  0  0.906117  0  0.633624  0  0  0.751206  0.888865  0  0.656033  0
Si  Si4  1  0.87704926  0.03278877  0.71422769  1  0  1.214129  0  3.476898  0  0  1.100618  0  3.861307  0  0  1.123209  0  3.855428  0  0  0.19357  1.084336  0  3.865966  0
Si  Si5  1  0.62292942  0.96722060  0.21421616  1  0  1.214057  0  3.476649  0  0  1.100555  0  3.86112  0  0  1.123222  0  3.855113  0  0  0.193545  1.084227  0  3.866055  0
Si  Si6  1  0.12291760  0.53278070  0.78577118  1  0  1.214152  0  3.476401  0  0  1.10058  0  3.861028  0  0  1.123271  0  3.854968  0  0  0.193581  1.084251  0  3.865888  0
Si  Si7  1  0.37708241  0.46722755  0.28578133  1  0  1.214267  0  3.476545  0  0  1.100846  0  3.860872  0  0  1.123513  0  3.85483  0  0  0.19358  1.084514  0  3.865853  0
B  B8  1  0.91786762  0.10245388  0.54106286  1  0  0.261264  0  3.528312  0  0  0.128013  0  3.810414  0  0  0.139311  0  3.820885  0  0  -0.485855  0.12048  0  3.802641  0
B  B9  1  0.58214006  0.89754115  0.04106256  1  0  0.261343  0  3.528199  0  0  0.12813  0  3.810318  0  0  0.139426  0  3.820776  0  0  -0.48576  0.120624  0  3.802542  0
B  B10  1  0.08215171  0.60243629  0.95893878  1  0  0.261262  0  3.528496  0  0  0.127979  0  3.810622  0  0  0.139273  0  3.82109  0  0  -0.485839  0.12045  0  3.802845  0
B  B11  1  0.41788282  0.39756083  0.45893986  1  0  0.261215  0  3.528441  0  0  0.127992  0  3.810537  0  0  0.139277  0  3.821016  0  0  -0.485848  0.120496  0  3.802762  0
H  H12  1  0.60476740  0.92494963  0.52055820  1  0  0.030858  0  0.931672  0  0  0.048924  0  1.001086  0  0  0.049441  0  1.000394  0  0  0.091964  0.048485  0  1.001654  0
H  H13  1  0.89522284  0.07506250  0.02055851  1  0  0.030889  0  0.931769  0  0  0.048969  0  1.001097  0  0  0.049475  0  1.000414  0  0  0.092009  0.048531  0  1.001662  0
H  H14  1  0.39524997  0.42492403  0.97942295  1  0  0.030788  0  0.931516  0  0  0.048736  0  1.001009  0  0  0.049243  0  1.000327  0  0  0.091831  0.048299  0  1.001574  0
H  H15  1  0.10478195  0.57506564  0.47944578  1  0  0.030847  0  0.931715  0  0  0.048974  0  1.001032  0  0  0.049462  0  1.000372  0  0  0.092036  0.048541  0  1.001597  0
H  H16  1  0.77479072  0.13201174  0.48608229  1  0  -0.311695  0  1.05192  0  0  -0.270463  0  1.164776  0  0  -0.275605  0  1.165011  0  0  -0.009041  -0.266921  0  1.164502  0
H  H17  1  0.72523265  0.86798516  0.98607330  1  0  -0.311789  0  1.05192  0  0  -0.270544  0  1.164747  0  0  -0.275682  0  1.164976  0  0  -0.009094  -0.266999  0  1.164466  0
H  H18  1  0.22524636  0.63199543  0.01392013  1  0  -0.311695  0  1.051919  0  0  -0.270445  0  1.164721  0  0  -0.275582  0  1.164951  0  0  -0.009045  -0.266902  0  1.164445  0
H  H19  1  0.27479923  0.36799542  0.51392257  1  0  -0.311726  0  1.051993  0  0  -0.270449  0  1.164765  0  0  -0.275593  0  1.165003  0  0  -0.009061  -0.266904  0  1.164482  0
H  H20  1  0.65719764  0.85198952  0.61874269  1  0  0.031923  0  0.949612  0  0  0.05337  0  1.013635  0  0  0.053117  0  1.014238  0  0  0.094775  0.05347  0  1.013296  0
H  H21  1  0.84278938  0.14801511  0.11874115  1  0  0.03196  0  0.949676  0  0  0.053372  0  1.013706  0  0  0.053119  0  1.014307  0  0  0.094758  0.053473  0  1.013359  0
H  H22  1  0.34277725  0.35197825  0.88123565  1  0  0.031924  0  0.949665  0  0  0.053291  0  1.013693  0  0  0.053037  0  1.014293  0  0  0.094716  0.053388  0  1.013357  0
H  H23  1  0.15722613  0.64802594  0.38126531  1  0  0.031866  0  0.949659  0  0  0.053309  0  1.013702  0  0  0.053054  0  1.014303  0  0  0.094735  0.053416  0  1.01335  0
H  H24  1  0.86829630  0.75907332  0.50093912  1  0  0.057361  0  0.965344  0  0  0.075265  0  1.032135  0  0  0.075705  0  1.033001  0  0  0.085969  0.074873  0  1.031612  0
H  H25  1  0.63166817  0.24091995  0.00093101  1  0  0.057238  0  0.965422  0  0  0.075232  0  1.032124  0  0  0.075677  0  1.032982  0  0  0.085974  0.074827  0  1.031621  0
H  H26  1  0.13170445  0.25904719  0.99902653  1  0  0.057451  0  0.965311  0  0  0.075352  0  1.032088  0  0  0.075784  0  1.032962  0  0  0.08599  0.074968  0  1.031553  0
H  H27  1  0.36830308  0.74093326  0.49907401  1  0  0.057212  0  0.965404  0  0  0.075245  0  1.032111  0  0  0.075687  0  1.032975  0  0  0.085962  0.074829  0  1.03161  0
H  H28  1  0.98206745  0.19461458  0.57686740  1  0  -0.285302  0  1.02818  0  0  -0.246857  0  1.13957  0  0  -0.251352  0  1.139908  0  0  0.015859  -0.243665  0  1.139134  0
H  H29  1  0.51795821  0.80537860  0.07686001  1  0  -0.28528  0  1.028196  0  0  -0.246845  0  1.139579  0  0  -0.25134  0  1.139915  0  0  0.015888  -0.243652  0  1.139136  0
H  H30  1  0.01794273  0.69459949  0.92314436  1  0  -0.285253  0  1.028288  0  0  -0.246821  0  1.139679  0  0  -0.251316  0  1.140015  0  0  0.015889  -0.243629  0  1.139242  0
H  H31  1  0.48207550  0.30539861  0.42313360  1  0  -0.285323  0  1.028213  0  0  -0.246849  0  1.13955  0  0  -0.251351  0  1.139894  0  0  0.015878  -0.243654  0  1.139105  0
H  H32  1  0.05753799  0.82375591  0.57464210  1  0  0.052963  0  0.947935  0  0  0.07561  0  1.006555  0  0  0.076183  0  1.006912  0  0  0.085076  0.075061  0  1.006504  0
H  H33  1  0.44243953  0.17624330  0.07463350  1  0  0.052936  0  0.947788  0  0  0.075544  0  1.006493  0  0  0.076157  0  1.006796  0  0  0.085083  0.07499  0  1.006451  0
H  H34  1  0.94245836  0.32375394  0.92534040  1  0  0.052777  0  0.947892  0  0  0.07548  0  1.006472  0  0  0.076045  0  1.00684  0  0  0.085029  0.074961  0  1.006384  0
H  H35  1  0.55755451  0.67626094  0.42537202  1  0  0.052897  0  0.947846  0  0  0.075489  0  1.006626  0  0  0.076087  0  1.006951  0  0  0.085041  0.074936  0  1.006571  0
H  H36  1  0.90026862  0.93383014  0.40559059  1  0  0.050803  0  0.954436  0  0  0.078425  0  1.009284  0  0  0.077835  0  1.011549  0  0  0.0876  0.078782  0  1.007753  0
H  H37  1  0.59972851  0.06615798  0.90558370  1  0  0.050834  0  0.954536  0  0  0.078443  0  1.009349  0  0  0.077856  0  1.011614  0  0  0.087644  0.078798  0  1.007818  0
H  H38  1  0.09977132  0.43379412  0.09439815  1  0  0.050875  0  0.954359  0  0  0.078526  0  1.00921  0  0  0.07794  0  1.011462  0  0  0.087614  0.078882  0  1.007681  0
H  H39  1  0.40028547  0.56617656  0.59441879  1  0  0.050915  0  0.954439  0  0  0.078473  0  1.009321  0  0  0.077877  0  1.011583  0  0  0.087622  0.078832  0  1.00779  0
H  H40  1  0.16292978  0.86682947  0.42125237  1  0  0.040999  0  0.953039  0  0  0.061589  0  1.015404  0  0  0.062002  0  1.015925  0  0  0.078711  0.061243  0  1.015133  0
H  H41  1  0.33703823  0.13315014  0.92124381  1  0  0.041025  0  0.952972  0  0  0.061625  0  1.015279  0  0  0.062049  0  1.015783  0  0  0.078709  0.061276  0  1.01501  0
H  H42  1  0.83709615  0.36680633  0.07874775  1  0  0.040939  0  0.953007  0  0  0.061597  0  1.015345  0  0  0.062011  0  1.01586  0  0  0.078749  0.061251  0  1.015076  0
H  H43  1  0.66295298  0.63317460  0.57876206  1  0  0.040981  0  0.953042  0  0  0.06157  0  1.015349  0  0  0.061979  0  1.015865  0  0  0.078686  0.061225  0  1.015079  0
H  H44  1  0.19277321  0.08547478  0.43588030  1  0  0.03626  0  0.995989  0  0  0.051732  0  1.069455  0  0  0.053004  0  1.069306  0  0  0.073167  0.050795  0  1.069635  0
H  H45  1  0.30723042  0.91450164  0.93587213  1  0  0.036361  0  0.995765  0  0  0.051813  0  1.069297  0  0  0.053085  0  1.069142  0  0  0.073189  0.050874  0  1.069483  0
H  H46  1  0.80729686  0.58545730  0.06413632  1  0  0.036278  0  0.996001  0  0  0.051719  0  1.069454  0  0  0.052991  0  1.069298  0  0  0.073139  0.050781  0  1.069641  0
H  H47  1  0.69278016  0.41452770  0.56412302  1  0  0.036389  0  0.99593  0  0  0.051849  0  1.069371  0  0  0.05312  0  1.069229  0  0  0.073197  0.050912  0  1.069553  0
H  H48  1  0.25881880  0.01149967  0.53206699  1  0  0.035274  0  1.010561  0  0  0.054899  0  1.080174  0  0  0.055535  0  1.080854  0  0  0.068528  0.054435  0  1.079714  0
H  H49  1  0.24118898  0.98847929  0.03206314  1  0  0.03523  0  1.010536  0  0  0.05485  0  1.080185  0  0  0.055481  0  1.080863  0  0  0.068505  0.054387  0  1.079723  0
H  H50  1  0.74120302  0.51148907  0.96794896  1  0  0.035277  0  1.010486  0  0  0.054852  0  1.080139  0  0  0.055485  0  1.080815  0  0  0.068572  0.054388  0  1.079678  0
H  H51  1  0.75882974  0.48851183  0.46794424  1  0  0.035325  0  1.010571  0  0  0.054951  0  1.080142  0  0  0.055589  0  1.080825  0  0  0.068587  0.054488  0  1.079683  0
H  H52  1  0.59224948  0.17789928  0.77067283  1  0  0.130918  0  1.020666  0  0  0.146205  0  1.088996  0  0  0.148256  0  1.089145  0  0  0.085561  0.144631  0  1.089053  0
H  H53  1  0.90769943  0.82210080  0.27066747  1  0  0.13099  0  1.020646  0  0  0.146179  0  1.089126  0  0  0.148227  0  1.089279  0  0  0.085538  0.144607  0  1.089179  0
H  H54  1  0.40769200  0.67791734  0.72933230  1  0  0.130978  0  1.020646  0  0  0.146197  0  1.089103  0  0  0.148245  0  1.089259  0  0  0.085549  0.144622  0  1.089161  0
H  H55  1  0.09230268  0.32210635  0.22933532  1  0  0.131022  0  1.020633  0  0  0.146209  0  1.089113  0  0  0.148255  0  1.089268  0  0  0.085542  0.144636  0  1.089166  0
H  H56  1  0.81630680  0.24974088  0.71568986  1  0  0.138069  0  0.999499  0  0  0.15788  0  1.058656  0  0  0.159644  0  1.059312  0  0  0.091621  0.156556  0  1.058305  0
H  H57  1  0.68364853  0.75025623  0.21568231  1  0  0.138121  0  0.999538  0  0  0.157893  0  1.058742  0  0  0.159654  0  1.059402  0  0  0.091628  0.156573  0  1.058385  0
H  H58  1  0.18363537  0.74974792  0.78431999  1  0  0.138067  0  0.999564  0  0  0.15788  0  1.058725  0  0  0.159642  0  1.059386  0  0  0.091651  0.156559  0  1.05837  0
H  H59  1  0.31635791  0.25026644  0.28431641  1  0  0.138155  0  0.999462  0  0  0.157918  0  1.05866  0  0  0.15968  0  1.059318  0  0  0.091594  0.156598  0  1.058303  0
H  H60  1  0.85327305  0.19672166  0.82123057  1  0  0.155853  0  0.972741  0  0  0.177243  0  1.025327  0  0  0.179286  0  1.025447  0  0  0.094043  0.175769  0  1.025236  0
H  H61  1  0.64667764  0.80328128  0.32122290  1  0  0.155856  0  0.97299  0  0  0.177305  0  1.025445  0  0  0.179342  0  1.025575  0  0  0.094072  0.17583  0  1.02535  0
H  H62  1  0.14667195  0.69673239  0.67877607  1  0  0.155959  0  0.973007  0  0  0.177406  0  1.025463  0  0  0.179445  0  1.025588  0  0  0.0941  0.175928  0  1.025375  0
H  H63  1  0.35332094  0.30328579  0.17877388  1  0  0.15589  0  0.972969  0  0  0.17731  0  1.025464  0  0  0.179347  0  1.025594  0  0  0.094073  0.175836  0  1.025366  0
H  H64  1  0.79933856  0.91616892  0.84569405  1  0  0.149453  0  0.994867  0  0  0.165509  0  1.059226  0  0  0.168126  0  1.058444  0  0  0.093283  0.16362  0  1.059773  0
H  H65  1  0.70065312  0.08384510  0.34569516  1  0  0.14947  0  0.994876  0  0  0.165539  0  1.059222  0  0  0.168151  0  1.05845  0  0  0.093287  0.163651  0  1.059766  0
H  H66  1  0.20062356  0.41616443  0.65429470  1  0  0.149345  0  0.994987  0  0  0.165408  0  1.059329  0  0  0.16802  0  1.05856  0  0  0.093255  0.16352  0  1.059874  0
H  H67  1  0.29936680  0.58384443  0.15431245  1  0  0.149558  0  0.994808  0  0  0.165646  0  1.059101  0  0  0.16826  0  1.058326  0  0  0.093336  0.163758  0  1.059644  0
H  H68  1  0.83085835  0.82265738  0.75508828  1  0  0.142127  0  1.001673  0  0  0.162386  0  1.059178  0  0  0.163995  0  1.060129  0  0  0.091992  0.161181  0  1.058611  0
H  H69  1  0.66912846  0.17734937  0.25508915  1  0  0.14214  0  1.00166  0  0  0.162423  0  1.059132  0  0  0.164034  0  1.060081  0  0  0.091999  0.16122  0  1.058557  0
H  H70  1  0.16911626  0.32264600  0.74489612  1  0  0.14216  0  1.001553  0  0  0.162427  0  1.059064  0  0  0.164034  0  1.060018  0  0  0.092007  0.161222  0  1.058493  0
H  H71  1  0.33087730  0.67736223  0.24491831  1  0  0.142203  0  1.001611  0  0  0.162468  0  1.059086  0  0  0.164075  0  1.060038  0  0  0.091996  0.161265  0  1.058514  0
H  H72  1  0.57549988  0.90089707  0.77087498  1  0  0.139888  0  1.0078  0  0  0.156571  0  1.072578  0  0  0.158476  0  1.073129  0  0  0.090796  0.155088  0  1.072372  0
H  H73  1  0.92448247  0.09909950  0.27086989  1  0  0.139936  0  1.007873  0  0  0.156646  0  1.072613  0  0  0.158548  0  1.073169  0  0  0.090817  0.155165  0  1.072402  0
H  H74  1  0.42446712  0.40089241  0.72911102  1  0  0.139881  0  1.007937  0  0  0.156499  0  1.072801  0  0  0.158398  0  1.073359  0  0  0.090742  0.155021  0  1.072588  0
H  H75  1  0.07552755  0.59910581  0.22913534  1  0  0.140009  0  1.007725  0  0  0.156692  0  1.072517  0  0  0.158593  0  1.073073  0  0  0.090833  0.155214  0  1.072304  0
H  H76  1  0.28187950  0.97934457  0.68791358  1  0  0.147195  0  0.983846  0  0  0.165438  0  1.043953  0  0  0.167809  0  1.043562  0  0  0.094696  0.163735  0  1.044227  0
H  H77  1  0.21809031  0.02067909  0.18789793  1  0  0.147165  0  0.9841  0  0  0.16557  0  1.043959  0  0  0.167945  0  1.043561  0  0  0.094718  0.163869  0  1.044226  0
H  H78  1  0.71808656  0.47931119  0.81210226  1  0  0.147186  0  0.984046  0  0  0.165598  0  1.043885  0  0  0.167974  0  1.043484  0  0  0.094719  0.163895  0  1.044157  0
H  H79  1  0.78191563  0.52069067  0.31210314  1  0  0.14728  0  0.984043  0  0  0.165708  0  1.043839  0  0  0.168079  0  1.043445  0  0  0.094786  0.164007  0  1.044109  0
H  H80  1  0.25597944  0.12277318  0.73354908  1  0  0.111135  0  1.035256  0  0  0.129808  0  1.100644  0  0  0.131463  0  1.101267  0  0  0.07957  0.128502  0  1.100426  0
H  H81  1  0.24399031  0.87725850  0.23354325  1  0  0.111257  0  1.035186  0  0  0.129925  0  1.100596  0  0  0.131577  0  1.101223  0  0  0.07961  0.12862  0  1.100375  0
H  H82  1  0.74397489  0.62273533  0.76645666  1  0  0.111275  0  1.035252  0  0  0.129949  0  1.100641  0  0  0.131601  0  1.10127  0  0  0.079617  0.128645  0  1.100422  0
H  H83  1  0.75603071  0.37727080  0.26646086  1  0  0.111344  0  1.035341  0  0  0.130008  0  1.100731  0  0  0.131661  0  1.101357  0  0  0.079649  0.128705  0  1.100506  0
H  H84  1  0.22713583  0.99869737  0.79909482  1  0  0.152429  0  0.980862  0  0  0.176712  0  1.029722  0  0  0.1784  0  1.030572  0  0  0.095864  0.175414  0  1.029277  0
H  H85  1  0.27282286  0.00134804  0.29907974  1  0  0.152484  0  0.98069  0  0  0.176841  0  1.029508  0  0  0.178507  0  1.030386  0  0  0.095878  0.175541  0  1.029061  0
H  H86  1  0.77279865  0.49864683  0.70092126  1  0  0.152464  0  0.980703  0  0  0.176857  0  1.02947  0  0  0.178522  0  1.03035  0  0  0.095892  0.175555  0  1.029027  0
H  H87  1  0.72720798  0.50134381  0.20092302  1  0  0.152534  0  0.980593  0  0  0.176928  0  1.029365  0  0  0.178588  0  1.030248  0  0  0.095926  0.175631  0  1.028915  0
C  C88  1  0.73485407  0.90893260  0.56997695  1  0  0.09554  0  3.705477  0  0  0.038369  0  3.966705  0  0  0.043775  0  3.979482  0  0  -0.057918  0.034781  0  3.957661  0
C  C89  1  0.76514293  0.09106746  0.06997513  1  0  0.09525  0  3.705734  0  0  0.038201  0  3.966815  0  0  0.043607  0  3.979599  0  0  -0.057932  0.034638  0  3.957777  0
C  C90  1  0.26513975  0.40891334  0.93001043  1  0  0.095507  0  3.70569  0  0  0.038651  0  3.96655  0  0  0.044058  0  3.979327  0  0  -0.057796  0.035064  0  3.957511  0
C  C91  1  0.23487204  0.59107876  0.43002871  1  0  0.0953  0  3.705695  0  0  0.038197  0  3.966929  0  0  0.043596  0  3.979718  0  0  -0.058069  0.034641  0  3.95788  0
C  C92  1  0.92803434  0.84365127  0.52620871  1  0  -0.139286  0  3.674513  0  0  -0.177755  0  3.932573  0  0  -0.179508  0  3.947052  0  0  -0.165199  -0.176368  0  3.922546  0
C  C93  1  0.57195944  0.15634431  0.02620260  1  0  -0.138903  0  3.674453  0  0  -0.177518  0  3.932604  0  0  -0.17928  0  3.947084  0  0  -0.165193  -0.176134  0  3.92259  0
C  C94  1  0.07197724  0.34364017  0.97377531  1  0  -0.139064  0  3.674614  0  0  -0.177624  0  3.932722  0  0  -0.179369  0  3.947189  0  0  -0.164988  -0.176251  0  3.922691  0
C  C95  1  0.42803776  0.65635465  0.47379819  1  0  -0.138631  0  3.674396  0  0  -0.177313  0  3.932628  0  0  -0.179085  0  3.947115  0  0  -0.165018  -0.175899  0  3.922593  0
C  C96  1  0.03051281  0.91702192  0.45405611  1  0  -0.055184  0  3.688451  0  0  -0.09169  0  3.936788  0  0  -0.091973  0  3.95288  0  0  -0.163011  -0.091384  0  3.925682  0
C  C97  1  0.46948477  0.08296544  0.95405183  1  0  -0.055506  0  3.688717  0  0  -0.091899  0  3.936991  0  0  -0.092192  0  3.953085  0  0  -0.163038  -0.09158  0  3.925874  0
C  C98  1  0.96951359  0.41700117  0.04593435  1  0  -0.055254  0  3.688325  0  0  -0.09189  0  3.936761  0  0  -0.092167  0  3.952826  0  0  -0.163182  -0.091592  0  3.925672  0
C  C99  1  0.53053103  0.58297903  0.54595407  1  0  -0.055511  0  3.688566  0  0  -0.091828  0  3.936677  0  0  -0.092093  0  3.952759  0  0  -0.162955  -0.091526  0  3.925571  0
C  C100  1  0.11774302  0.03415639  0.48913231  1  0  -0.356943  0  3.778323  0  0  -0.360405  0  4.020839  0  0  -0.367247  0  4.037454  0  0  -0.201973  -0.355487  0  4.008979  0
C  C101  1  0.38226082  0.96581769  0.98913013  1  0  -0.356912  0  3.778265  0  0  -0.360324  0  4.020598  0  0  -0.367213  0  4.037341  0  0  -0.202023  -0.355404  0  4.008729  0
C  C102  1  0.88229649  0.53414065  0.01087341  1  0  -0.356996  0  3.778198  0  0  -0.360275  0  4.020514  0  0  -0.36716  0  4.037228  0  0  -0.201943  -0.355355  0  4.008664  0
C  C103  1  0.61775025  0.46584669  0.51087463  1  0  -0.357135  0  3.778502  0  0  -0.360543  0  4.020817  0  0  -0.367378  0  4.037381  0  0  -0.202061  -0.355619  0  4.008953  0
C  C104  1  0.77344341  0.17712331  0.75924494  1  0  -0.743777  0  3.634705  0  0  -0.782785  0  3.856445  0  0  -0.792346  0  3.860777  0  0  -0.306095  -0.775747  0  3.853472  0
C  C105  1  0.72650510  0.82287740  0.25923904  1  0  -0.743897  0  3.634968  0  0  -0.782818  0  3.85668  0  0  -0.792386  0  3.86102  0  0  -0.306088  -0.775763  0  3.853721  0
C  C106  1  0.22649472  0.67712866  0.74075697  1  0  -0.743897  0  3.634957  0  0  -0.782891  0  3.856644  0  0  -0.792461  0  3.860977  0  0  -0.306137  -0.775841  0  3.853695  0
C  C107  1  0.27350203  0.32288561  0.24076120  1  0  -0.744035  0  3.634858  0  0  -0.78294  0  3.856659  0  0  -0.792513  0  3.860996  0  0  -0.306052  -0.775886  0  3.853701  0
C  C108  1  0.75807992  0.90587763  0.77724632  1  0  -0.741038  0  3.626594  0  0  -0.77939  0  3.848782  0  0  -0.789067  0  3.852848  0  0  -0.300318  -0.772282  0  3.846082  0
C  C109  1  0.74189597  0.09412610  0.27724639  1  0  -0.741157  0  3.626702  0  0  -0.779525  0  3.848743  0  0  -0.789218  0  3.852809  0  0  -0.300333  -0.772406  0  3.846058  0
C  C110  1  0.24188545  0.40587480  0.72274167  1  0  -0.740997  0  3.626673  0  0  -0.779284  0  3.848828  0  0  -0.788974  0  3.8529  0  0  -0.300289  -0.77218  0  3.846136  0
C  C111  1  0.25811736  0.59413645  0.22275942  1  0  -0.741381  0  3.626582  0  0  -0.779769  0  3.848688  0  0  -0.789459  0  3.852757  0  0  -0.30038  -0.772652  0  3.846002  0
C  C112  1  0.18948513  0.03288257  0.73465811  1  0  -0.723702  0  3.602544  0  0  -0.759767  0  3.816913  0  0  -0.769587  0  3.822051  0  0  -0.299829  -0.752494  0  3.813536  0
C  C113  1  0.31047630  0.96715089  0.23464523  1  0  -0.723842  0  3.602724  0  0  -0.76014  0  3.816939  0  0  -0.769956  0  3.822095  0  0  -0.299909  -0.752851  0  3.813578  0
C  C114  1  0.81046668  0.53284231  0.76535296  1  0  -0.723858  0  3.602796  0  0  -0.760177  0  3.816983  0  0  -0.769998  0  3.822133  0  0  -0.299899  -0.752884  0  3.813595  0
C  C115  1  0.68953386  0.46715414  0.26535740  1  0  -0.724189  0  3.602913  0  0  -0.760517  0  3.817089  0  0  -0.770328  0  3.82225  0  0  -0.3001  -0.753231  0  3.813728  0
N  N116  1  0.80132605  0.02173488  0.60751263  1  0  -0.756584  0  3.265836  0  0  -0.631752  0  3.513569  0  0  -0.654084  0  3.524283  0  0  -0.454734  -0.615818  0  3.505445  0
N  N117  1  0.69867060  0.97827127  0.10750789  1  0  -0.756276  0  3.265795  0  0  -0.631595  0  3.513678  0  0  -0.653927  0  3.524387  0  0  -0.454759  -0.615743  0  3.505657  0
N  N118  1  0.19868751  0.52172415  0.89248097  1  0  -0.756515  0  3.265821  0  0  -0.631709  0  3.513342  0  0  -0.654044  0  3.52404  0  0  -0.454758  -0.615787  0  3.505256  0
N  N119  1  0.30134301  0.47828117  0.39249295  1  0  -0.756332  0  3.265588  0  0  -0.631789  0  3.51381  0  0  -0.654083  0  3.524464  0  0  -0.454701  -0.615974  0  3.505837  0
