# generated using pymatgen
data_CuH24C20S2(NO2)4
_symmetry_space_group_name_H-M   'P 1'
_cell_length_a   7.36698626
_cell_length_b   7.86346095
_cell_length_c   11.36770014
_cell_angle_alpha   100.46150927
_cell_angle_beta   100.46668021
_cell_angle_gamma   114.95210486
_symmetry_Int_Tables_number   1
_chemical_formula_structural   CuH24C20S2(NO2)4
_chemical_formula_sum   'Cu1 H24 C20 S2 N4 O8'
_cell_volume   561.96732309
_cell_formula_units_Z   1
loop_
 _symmetry_equiv_pos_site_id
 _symmetry_equiv_pos_as_xyz
  1  'x, y, z'
loop_
 _atom_site_type_symbol
 _atom_site_label
 _atom_site_symmetry_multiplicity
 _atom_site_fract_x
 _atom_site_fract_y
 _atom_site_fract_z
 _atom_site_occupancy
 _atom_site_hle17_ddec_charge
 _atom_site_hle17_ddec_spin_density
 _atom_site_hle17_ddec_sum_bond_order
 _atom_site_hle17_magmom
 _atom_site_hse06_10hf_ddec_charge
 _atom_site_hse06_10hf_ddec_spin_density
 _atom_site_hse06_10hf_ddec_sum_bond_order
 _atom_site_hse06_10hf_magmom
 _atom_site_hse06_ddec_charge
 _atom_site_hse06_ddec_spin_density
 _atom_site_hse06_ddec_sum_bond_order
 _atom_site_hse06_magmom
 _atom_site_pbe_cm5_charge
 _atom_site_pbe_ddec_charge
 _atom_site_pbe_ddec_spin_density
 _atom_site_pbe_ddec_sum_bond_order
 _atom_site_pbe_magmom
Cu  Cu0  1  0.00000057  0.49999955  0.50000024  1  0.831776  0.672399  1.764213  0.505  0.803877  0.771722  2.13845  0.627  0.887798  0.835743  2.08438  0.713  0.743373  0.751091  0.726445  2.177522  0.572
H  H1  1  0.29638920  0.56527821  0.67362246  1  0.299484  -0.000885  0.927133  -0.001  0.288922  0.000163  0.985365  0.0  0.296429  -0.000201  0.980724  -0.001  0.29012  0.28371  0.000457  0.988743  0.0
H  H2  1  0.70361074  0.43471965  0.32637791  1  0.299455  -0.000888  0.927207  -0.001  0.288923  0.000164  0.985383  0.0  0.296431  -0.000201  0.980741  -0.001  0.290126  0.283704  0.000457  0.988771  0.0
H  H3  1  0.38079131  0.57570749  0.54921654  1  0.303202  -0.00102  0.923642  -0.001  0.289309  0.000176  0.988806  0.0  0.296814  -0.000157  0.983883  0.0  0.292536  0.284054  0.000437  0.99247  0.0
H  H4  1  0.61920868  0.42429328  0.45078332  1  0.303223  -0.001019  0.92371  -0.001  0.289321  0.000176  0.988875  0.0  0.296825  -0.000158  0.983954  0.0  0.292547  0.284064  0.000437  0.992538  0.0
H  H5  1  0.48782984  0.78283360  0.94613078  1  0.095348  5.9e-05  0.942159  0.0  0.108904  6.4e-05  0.99602  0.0  0.111794  4.2e-05  0.995162  0.0  0.106205  0.106795  8.2e-05  0.996771  0.0
H  H6  1  0.51217009  0.21716426  0.05386960  1  0.095349  6.1e-05  0.942202  0.0  0.108902  6.4e-05  0.996061  0.0  0.111792  4.2e-05  0.995203  0.0  0.106204  0.106795  8.2e-05  0.996814  0.0
H  H7  1  0.19730958  0.88663278  0.73614046  1  0.051428  0.000211  0.945966  0.0  0.06218  1.7e-05  1.016759  0.0  0.062533  -6.7e-05  1.01653  0.0  0.093202  0.06214  0.000157  1.016791  0.0
H  H8  1  0.80268552  0.11336646  0.26385599  1  0.051421  0.000205  0.945967  0.0  0.062173  1.7e-05  1.016743  0.0  0.062538  -6.7e-05  1.016496  0.0  0.093182  0.062129  0.000157  1.016778  0.0
H  H9  1  0.33673620  0.08076174  0.67427300  1  0.062997  -7.4e-05  0.956721  0.0  0.07566  1.5e-05  1.024438  0.0  0.075623  -5.6e-05  1.025272  0.0  0.100869  0.075881  0.000141  1.023731  0.0
H  H10  1  0.66326378  0.91923903  0.32572686  1  0.062974  -8.8e-05  0.956778  0.0  0.075638  1.5e-05  1.024473  0.0  0.075599  -5.6e-05  1.025317  0.0  0.100856  0.07586  0.000141  1.023758  0.0
H  H11  1  0.94680624  0.98297952  0.62391503  1  0.065246  -4.6e-05  0.928006  0.0  0.077775  -1.7e-05  0.993733  0.0  0.078727  3e-06  0.992493  0.0  0.099545  0.077206  -4.6e-05  0.994543  0.0
H  H12  1  0.05319592  0.01702562  0.37608123  1  0.065257  -3.8e-05  0.927945  0.0  0.077786  -1.7e-05  0.993668  0.0  0.078746  3e-06  0.992441  0.0  0.099524  0.077215  -4.6e-05  0.994478  0.0
H  H13  1  0.80042392  0.80554845  0.47441943  1  0.080319  0.000356  0.950514  0.001  0.091008  0.000179  1.016966  0.0  0.091851  7.4e-05  1.016083  0.0  0.10397  0.090503  0.000331  1.017666  0.001
H  H14  1  0.19958035  0.19445817  0.52557726  1  0.080301  0.000363  0.950589  0.001  0.091034  0.000178  1.016989  0.0  0.091889  7.4e-05  1.016109  0.0  0.10398  0.090555  0.000331  1.017665  0.001
H  H15  1  0.54150251  0.61353158  0.10656236  1  0.115409  -7e-06  0.955492  0.0  0.121735  -1e-06  1.021882  0.0  0.125529  -3e-06  1.019126  0.0  0.109605  0.118966  3e-06  1.023982  0.0
H  H16  1  0.45849604  0.38646626  0.89343697  1  0.115409  -5e-06  0.955443  0.0  0.121735  -1e-06  1.021842  0.0  0.125532  -3e-06  1.019082  0.0  0.10959  0.118964  3e-06  1.023944  0.0
H  H17  1  0.20693303  0.88077558  0.92626853  1  0.090685  2.5e-05  0.964035  0.0  0.100297  1.7e-05  1.027561  0.0  0.103744  6e-06  1.025336  0.0  0.101592  0.09767  3.4e-05  1.029348  0.0
H  H18  1  0.79306907  0.11922667  0.07373353  1  0.090715  2.2e-05  0.964007  0.0  0.10031  1.7e-05  1.027557  0.0  0.103737  6e-06  1.025357  0.0  0.101587  0.097685  3.4e-05  1.029343  0.0
H  H19  1  0.97215455  0.81108956  0.06346486  1  0.111297  -2.5e-05  0.921899  0.0  0.123281  -2.3e-05  0.976904  0.0  0.126872  -2.1e-05  0.974454  0.0  0.112331  0.120609  -2.3e-05  0.978864  0.0
H  H20  1  0.02784682  0.18891123  0.93653780  1  0.11133  -2.6e-05  0.921894  0.0  0.123328  -2.3e-05  0.976883  0.0  0.126919  -2.1e-05  0.974432  0.0  0.112331  0.120653  -2.3e-05  0.978845  0.0
H  H21  1  0.54022140  0.89972964  0.72262081  1  0.066796  0.004921  0.927557  0.007  0.083702  0.003003  0.98835  0.004  0.08176  0.00208  0.991039  0.003  0.102744  0.085058  0.00368  0.986429  0.005
H  H22  1  0.45977369  0.10026964  0.27738180  1  0.066789  0.004921  0.927535  0.007  0.08371  0.003003  0.988324  0.004  0.081769  0.00208  0.991015  0.003  0.102746  0.085069  0.00368  0.986411  0.005
H  H23  1  0.47182636  0.88662824  0.56197221  1  0.074283  -8.5e-05  0.914837  0.0  0.091051  -0.000129  0.974212  0.0  0.091624  -9.3e-05  0.973738  0.0  0.109276  0.090434  -0.000145  0.974757  0.0
H  H24  1  0.52817640  0.11337257  0.43802974  1  0.074284  -7.9e-05  0.914834  0.0  0.091063  -0.000129  0.974212  0.0  0.091638  -9.3e-05  0.973739  0.0  0.10927  0.090448  -0.000145  0.974758  0.0
C  C25  1  0.12227638  0.66951113  0.15824300  1  -0.069181  0.003145  3.812399  0.003  -0.054949  0.002016  4.042702  0.002  -0.061153  0.001416  4.066123  0.002  -0.01235  -0.050887  0.002496  4.027208  0.003
C  C26  1  0.87772223  0.33048962  0.84175581  1  -0.069107  0.003166  3.812158  0.003  -0.054879  0.002017  4.042452  0.002  -0.061077  0.001414  4.065882  0.002  -0.012277  -0.05083  0.002497  4.026954  0.003
C  C27  1  0.28000206  0.61460098  0.16760777  1  -0.13666  0.002944  3.773786  0.003  -0.116975  0.002309  4.01497  0.002  -0.121759  0.001669  4.036231  0.002  -0.013848  -0.113992  0.002779  4.001136  0.003
C  C28  1  0.71999720  0.38539833  0.83239358  1  -0.136628  0.002924  3.773801  0.003  -0.116887  0.002305  4.014913  0.002  -0.121704  0.001673  4.036217  0.002  -0.01383  -0.113871  0.00278  4.001033  0.003
C  C29  1  0.99604707  0.60460694  0.24610155  1  0.552041  -0.001147  3.878459  -0.001  0.51099  0.000332  4.172595  0.0  0.542968  -0.00021  4.17093  0.0  0.227101  0.489437  0.000831  4.173293  0.001
C  C30  1  0.00395282  0.39538800  0.75389758  1  0.552145  -0.001138  3.878273  -0.001  0.511065  0.000332  4.172421  0.0  0.543047  -0.00021  4.170755  0.0  0.227161  0.489523  0.00083  4.173104  0.001
C  C31  1  0.38664710  0.75126867  0.00694670  1  -0.050814  0.00018  3.714644  0.0  -0.066168  0.000222  3.969744  0.0  -0.067581  8.5e-05  3.989999  0.0  -0.07971  -0.065203  0.000366  3.956107  0.0
C  C32  1  0.61335560  0.24872924  0.99305665  1  -0.050816  0.000141  3.714649  0.0  -0.066159  0.000221  3.969734  0.0  -0.067568  8.6e-05  3.989978  0.0  -0.079715  -0.065199  0.000366  3.956105  0.0
C  C33  1  0.25826715  0.92094475  0.65692266  1  0.050489  0.002287  3.641663  0.003  -0.00886  0.001679  3.913915  0.002  -0.003472  0.001018  3.922284  0.002  -0.078568  -0.012621  0.002276  3.907626  0.003
C  C34  1  0.74172795  0.07905450  0.34307555  1  0.050447  0.002322  3.641674  0.003  -0.008867  0.001678  3.913915  0.002  -0.003479  0.001019  3.922294  0.002  -0.078563  -0.012621  0.002276  3.907616  0.003
C  C35  1  0.95641706  0.92045269  0.53182735  1  0.048653  0.000281  3.616039  0.0  -0.01195  0.000199  3.889105  0.0  -0.004143  -5e-05  3.892292  0.0  -0.081936  -0.017207  0.000632  3.886421  0.0
C  C36  1  0.04358509  0.07955246  0.46816979  1  0.04853  0.00022  3.61602  0.0  -0.012074  0.000202  3.889042  0.0  -0.004332  -5.2e-05  3.892294  0.0  -0.081966  -0.01735  0.000632  3.886347  0.0
C  C37  1  0.41595859  0.65367030  0.09436927  1  -0.056145  -1.4e-05  3.714101  0.0  -0.079985  0.000241  3.965596  0.0  -0.079932  0.000161  3.983582  0.0  -0.075513  -0.080108  0.000302  3.953763  0.0
C  C38  1  0.58404207  0.34632903  0.90563137  1  -0.056178  1.1e-05  3.713979  0.0  -0.080045  0.000245  3.965483  0.0  -0.079983  0.000157  3.983475  0.0  -0.075523  -0.080173  0.000302  3.953638  0.0
C  C39  1  0.22902420  0.80770144  0.99614092  1  -0.065814  0.000275  3.734116  0.0  -0.085393  0.000207  3.996283  0.0  -0.08676  0.000113  4.015432  0.0  -0.08367  -0.08439  0.000286  3.983543  0.0
C  C40  1  0.77098001  0.19230229  0.00385893  1  -0.065823  0.000309  3.7343  0.0  -0.085389  0.000207  3.996473  0.0  -0.08674  0.000113  4.01562  0.0  -0.083662  -0.084386  0.000286  3.983735  0.0
C  C41  1  0.09538357  0.76811936  0.07200348  1  -0.045209  -1.3e-05  3.700775  0.0  -0.070339  0.00031  3.955212  0.0  -0.069181  0.000146  3.972541  0.0  -0.070835  -0.071214  0.000509  3.943701  0.001
C  C42  1  0.90461918  0.23188146  0.92800023  1  -0.045331  -4.7e-05  3.700648  0.0  -0.070485  0.000312  3.955095  0.0  -0.069325  0.000145  3.972416  0.0  -0.070885  -0.07136  0.000509  3.943592  0.001
C  C43  1  0.40802455  0.84035577  0.63749410  1  0.055924  -0.003089  3.625328  -0.004  0.000334  0.000138  3.89671  -0.001  0.006157  -0.00092  3.90945  -0.002  -0.075117  -0.003189  0.000964  3.887979  -0.001
C  C44  1  0.59197194  0.15964351  0.36250692  1  0.055961  -0.003123  3.625249  -0.004  0.000311  0.000141  3.896679  -0.001  0.00613  -0.00092  3.909432  -0.002  -0.07511  -0.003216  0.000964  3.887956  -0.001
S  S45  1  0.26364062  0.48861166  0.28283521  1  1.231397  0.003077  5.373799  0.002  1.148156  0.003583  5.879793  0.002  1.194852  0.002462  5.863599  0.002  0.557092  1.116041  0.004478  5.890257  0.003
S  S46  1  0.73635792  0.51138618  0.71716500  1  1.231521  0.003083  5.373801  0.002  1.148235  0.003584  5.879806  0.002  1.194943  0.002461  5.863619  0.002  0.557117  1.116105  0.004478  5.89028  0.003
N  N47  1  0.07021109  0.51471756  0.32052462  1  -0.688299  0.046146  2.985896  0.06  -0.65452  0.034987  3.314853  0.047  -0.690994  0.026857  3.316654  0.04  -0.401343  -0.630829  0.039777  3.314071  0.051
N  N48  1  0.92978607  0.48528026  0.67947454  1  -0.688487  0.046154  2.985998  0.06  -0.654653  0.034986  3.314919  0.047  -0.691111  0.026861  3.316668  0.04  -0.401401  -0.630957  0.03978  3.314125  0.051
N  N49  1  0.30070531  0.62375495  0.59935512  1  -0.593411  0.09779  3.153455  0.122  -0.578968  0.059067  3.437355  0.077  -0.61277  0.045696  3.439969  0.064  -0.654148  -0.558231  0.066554  3.437055  0.082
N  N50  1  0.69929257  0.37624433  0.40064430  1  -0.593434  0.097799  3.153568  0.122  -0.578984  0.059065  3.437449  0.077  -0.612783  0.045697  3.440067  0.064  -0.654148  -0.558235  0.066556  3.43715  0.082
O  O51  1  0.08768180  0.82837479  0.54420364  1  -0.3205  0.008989  2.350126  0.014  -0.249316  0.005568  2.617162  0.01  -0.271223  0.003029  2.619301  0.007  -0.233856  -0.233118  0.008839  2.615061  0.014
O  O52  1  0.91232030  0.17162743  0.45579138  1  -0.32041  0.008997  2.350059  0.014  -0.249256  0.005566  2.617109  0.01  -0.271163  0.003028  2.619282  0.007  -0.233839  -0.233048  0.008839  2.614992  0.014
O  O53  1  0.20475876  0.28408484  0.22762991  1  -0.597719  0.001186  1.868923  0.002  -0.55203  0.000512  2.099365  0.001  -0.57389  0.000243  2.088826  0.0  -0.32094  -0.53658  0.000756  2.105857  0.001
O  O54  1  0.79524256  0.71591304  0.77237152  1  -0.597735  0.001181  1.868898  0.002  -0.552048  0.000513  2.099356  0.001  -0.573911  0.000244  2.088819  0.0  -0.320935  -0.536595  0.000756  2.105852  0.001
O  O55  1  0.83969173  0.62835794  0.24878479  1  -0.538317  -0.000969  1.933141  0.0  -0.493898  -0.000389  2.154709  0.0  -0.514874  -0.000746  2.147786  0.0  -0.290665  -0.479644  -1.4e-05  2.159139  0.0
O  O56  1  0.16030533  0.37163404  0.75121188  1  -0.538357  -0.000975  1.933016  0.0  -0.493911  -0.000388  2.15457  0.0  -0.514894  -0.000748  2.147648  0.0  -0.290704  -0.479663  -1.4e-05  2.158998  0.0
O  O57  1  0.45405060  0.59591161  0.38771252  1  -0.608743  -0.000674  1.982047  0.0  -0.551855  -0.000307  2.222663  0.0  -0.57339  -0.000447  2.21091  0.0  -0.305363  -0.536806  -0.000163  2.230236  0.0
O  O58  1  0.54594794  0.40408625  0.61228945  1  -0.608764  -0.000675  1.982047  0.0  -0.551877  -0.000307  2.222684  0.0  -0.573414  -0.000448  2.210927  0.0  -0.305363  -0.536838  -0.000163  2.230286  0.0
