# generated using pymatgen
data_CdH12C16Br2(N2O)2
_symmetry_space_group_name_H-M   'P 1'
_cell_length_a   3.90647517
_cell_length_b   14.40667762
_cell_length_c   15.92312537
_cell_angle_alpha   72.60057893
_cell_angle_beta   82.94670773
_cell_angle_gamma   82.22545765
_symmetry_Int_Tables_number   1
_chemical_formula_structural   CdH12C16Br2(N2O)2
_chemical_formula_sum   'Cd2 H24 C32 Br4 N8 O4'
_cell_volume   844.05865497
_cell_formula_units_Z   2
loop_
 _symmetry_equiv_pos_site_id
 _symmetry_equiv_pos_as_xyz
  1  'x, y, z'
loop_
 _atom_site_type_symbol
 _atom_site_label
 _atom_site_symmetry_multiplicity
 _atom_site_fract_x
 _atom_site_fract_y
 _atom_site_fract_z
 _atom_site_occupancy
 _atom_site_hle17_bader_spin_density
 _atom_site_hle17_ddec_charge
 _atom_site_hle17_ddec_spin_density
 _atom_site_hle17_ddec_sum_bond_order
 _atom_site_hle17_magmom
 _atom_site_hse06_10hf_bader_spin_density
 _atom_site_hse06_10hf_ddec_charge
 _atom_site_hse06_10hf_ddec_spin_density
 _atom_site_hse06_10hf_ddec_sum_bond_order
 _atom_site_hse06_10hf_magmom
 _atom_site_hse06_bader_spin_density
 _atom_site_hse06_ddec_charge
 _atom_site_hse06_ddec_spin_density
 _atom_site_hse06_ddec_sum_bond_order
 _atom_site_hse06_magmom
 _atom_site_pbe_bader_spin_density
 _atom_site_pbe_cm5_charge
 _atom_site_pbe_ddec_charge
 _atom_site_pbe_ddec_spin_density
 _atom_site_pbe_ddec_sum_bond_order
 _atom_site_pbe_magmom
Cd  Cd0  1  0.89145623  0.75015367  0.25003906  1  0  0.862933  0  1.997699  0  0  0.702376  0  2.450919  0  0  0.752274  0  2.412715  0  0  0.536886  0.666999  0  2.477265  0
Cd  Cd1  1  0.10854037  0.24984331  0.74996580  1  0  0.862934  0  1.997641  0  0  0.702382  0  2.450827  0  0  0.752283  0  2.41263  0  0  0.536922  0.667001  0  2.477174  0
H  H2  1  0.31533758  0.56583430  0.01627506  1  0  0.312846  0  0.93472  0  0  0.2912  0  0.998587  0  0  0.301813  0  0.989891  0  0  0.304158  0.283747  0  1.004664  0
H  H3  1  0.89735641  0.93440695  0.48367657  1  0  0.312238  0  0.935215  0  0  0.290497  0  0.999299  0  0  0.301098  0  0.990613  0  0  0.30377  0.283065  0  1.005365  0
H  H4  1  0.68465074  0.43417147  0.98372480  1  0  0.312975  0  0.934473  0  0  0.291264  0  0.998446  0  0  0.30188  0  0.989749  0  0  0.304179  0.283811  0  1.004525  0
H  H5  1  0.10264862  0.06559591  0.51632128  1  0  0.312245  0  0.935221  0  0  0.290483  0  0.999306  0  0  0.301083  0  0.990624  0  0  0.303759  0.283051  0  1.005372  0
H  H6  1  0.98589893  0.67992366  0.08122470  1  0  0.067915  0  0.948799  0  0  0.076432  0  1.017099  0  0  0.079118  0  1.012524  0  0  0.119745  0.074261  0  1.020603  0
H  H7  1  0.74640788  0.82045654  0.41875045  1  0  0.068093  0  0.948806  0  0  0.076619  0  1.017105  0  0  0.079316  0  1.012511  0  0  0.119842  0.074443  0  1.020632  0
H  H8  1  0.01407993  0.32008064  0.91877783  1  0  0.067881  0  0.94889  0  0  0.076403  0  1.017175  0  0  0.079096  0  1.012605  0  0  0.1197  0.07423  0  1.020682  0
H  H9  1  0.25359064  0.17954704  0.58124832  1  0  0.068037  0  0.948811  0  0  0.076561  0  1.01712  0  0  0.079258  0  1.012525  0  0  0.119818  0.074385  0  1.020654  0
H  H10  1  0.65821915  0.29352275  0.25485812  1  0  0.097083  0  0.966108  0  0  0.104666  0  1.034055  0  0  0.107526  0  1.032373  0  0  0.104419  0.102571  0  1.03529  0
H  H11  1  0.20671426  0.20695502  0.24498303  1  0  0.095889  0  0.968437  0  0  0.103889  0  1.035956  0  0  0.106775  0  1.034253  0  0  0.104348  0.101771  0  1.037259  0
H  H12  1  0.34178203  0.70647866  0.74513673  1  0  0.097051  0  0.966158  0  0  0.104708  0  1.034007  0  0  0.107569  0  1.032334  0  0  0.104425  0.10261  0  1.035249  0
H  H13  1  0.79329178  0.79304345  0.75501658  1  0  0.095958  0  0.968411  0  0  0.103932  0  1.035961  0  0  0.106818  0  1.034259  0  0  0.104356  0.101812  0  1.037262  0
H  H14  1  0.52367395  0.25482340  0.41803510  1  0  0.094958  0  0.943331  0  0  0.104898  0  1.003061  0  0  0.107961  0  1.00196  0  0  0.099569  0.102671  0  1.004016  0
H  H15  1  0.19614850  0.24561473  0.08185860  1  0  0.094747  0  0.943014  0  0  0.104461  0  1.00316  0  0  0.107533  0  1.002032  0  0  0.099467  0.102194  0  1.004146  0
H  H16  1  0.47633027  0.74517655  0.58196020  1  0  0.094932  0  0.94333  0  0  0.104865  0  1.003062  0  0  0.10793  0  1.001958  0  0  0.099553  0.102609  0  1.004047  0
H  H17  1  0.80385252  0.75438885  0.91814025  1  0  0.09476  0  0.943035  0  0  0.104497  0  1.003153  0  0  0.10755  0  1.002047  0  0  0.099494  0.102233  0  1.004143  0
H  H18  1  0.13435928  0.37411677  0.48157502  1  0  0.089475  0  0.978095  0  0  0.098415  0  1.043112  0  0  0.101333  0  1.040808  0  0  0.084833  0.096112  0  1.045086  0
H  H19  1  0.98926886  0.12627909  0.01839171  1  0  0.089656  0  0.978022  0  0  0.098923  0  1.042746  0  0  0.101956  0  1.040288  0  0  0.084952  0.096558  0  1.044774  0
H  H20  1  0.86564660  0.62587876  0.51842660  1  0  0.089495  0  0.978135  0  0  0.098436  0  1.043146  0  0  0.101351  0  1.040849  0  0  0.084842  0.096134  0  1.045115  0
H  H21  1  0.01073744  0.87372376  0.98160748  1  0  0.089686  0  0.97798  0  0  0.098928  0  1.04274  0  0  0.101959  0  1.040281  0  0  0.084961  0.096563  0  1.044771  0
H  H22  1  0.89405517  0.53220578  0.38367988  1  0  0.105714  0  0.973147  0  0  0.113681  0  1.037807  0  0  0.117074  0  1.036048  0  0  0.090683  0.111145  0  1.039355  0
H  H23  1  0.80984647  0.96807918  0.11633466  1  0  0.105904  0  0.973208  0  0  0.113877  0  1.037984  0  0  0.117313  0  1.036139  0  0  0.090813  0.111296  0  1.039606  0
H  H24  1  0.10593650  0.46778757  0.61632184  1  0  0.105686  0  0.9731  0  0  0.113598  0  1.037861  0  0  0.117003  0  1.036065  0  0  0.090673  0.111063  0  1.039409  0
H  H25  1  0.19018377  0.03192149  0.88366256  1  0  0.105899  0  0.973206  0  0  0.113912  0  1.037937  0  0  0.117345  0  1.036109  0  0  0.090783  0.111329  0  1.039563  0
C  C26  1  0.08552005  0.61022177  0.12520591  1  0  0.323916  0  3.743908  0  0  0.25882  0  4.024348  0  0  0.279602  0  4.032867  0  0  0.174  0.245183  0  4.018159  0
C  C27  1  0.82070625  0.89013621  0.37476063  1  0  0.324132  0  3.744866  0  0  0.259074  0  4.025472  0  0  0.279848  0  4.033961  0  0  0.173724  0.245429  0  4.019291  0
C  C28  1  0.91446213  0.38978033  0.87479725  1  0  0.323709  0  3.744097  0  0  0.25861  0  4.024551  0  0  0.279382  0  4.033077  0  0  0.173857  0.244973  0  4.018347  0
C  C29  1  0.17929870  0.10986519  0.62523822  1  0  0.324298  0  3.744902  0  0  0.259217  0  4.025486  0  0  0.27999  0  4.033975  0  0  0.173793  0.245567  0  4.019316  0
C  C30  1  0.42915616  0.45634902  0.13313102  1  0  0.554499  0  3.814625  0  0  0.505608  0  4.103191  0  0  0.535732  0  4.102572  0  0  0.237989  0.485505  0  4.102997  0
C  C31  1  0.01846258  0.04405624  0.36684073  1  0  0.553526  0  3.817573  0  0  0.506198  0  4.103622  0  0  0.536245  0  4.103091  0  0  0.238588  0.486157  0  4.10337  0
C  C32  1  0.57083333  0.54365529  0.86686859  1  0  0.554709  0  3.814596  0  0  0.505763  0  4.103275  0  0  0.53589  0  4.102645  0  0  0.238021  0.485662  0  4.103081  0
C  C33  1  0.98155034  0.95594223  0.63315714  1  0  0.553553  0  3.817386  0  0  0.506183  0  4.103512  0  0  0.53623  0  4.102981  0  0  0.238621  0.486142  0  4.103256  0
C  C34  1  0.35757403  0.43417201  0.22830816  1  0  -0.152619  0  3.759618  0  0  -0.135001  0  3.995555  0  0  -0.147383  0  4.02044  0  0  -0.01834  -0.127199  0  3.979022  0
C  C35  1  0.01988836  0.06624252  0.27166674  1  0  -0.153637  0  3.758831  0  0  -0.136766  0  3.994423  0  0  -0.149125  0  4.019325  0  0  -0.019266  -0.128978  0  3.977881  0
C  C36  1  0.64243253  0.56583011  0.77169121  1  0  -0.152696  0  3.759526  0  0  -0.135143  0  3.995592  0  0  -0.147526  0  4.020477  0  0  -0.018374  -0.127339  0  3.979055  0
C  C37  1  0.98009988  0.93376179  0.72833412  1  0  -0.153496  0  3.758595  0  0  -0.136696  0  3.994329  0  0  -0.149051  0  4.019232  0  0  -0.01922  -0.128906  0  3.97778  0
C  C38  1  0.49275049  0.34474792  0.28432298  1  0  -0.054827  0  3.733151  0  0  -0.079818  0  3.985297  0  0  -0.077743  0  4.005392  0  0  -0.079509  -0.080792  0  3.971633  0
C  C39  1  0.12170894  0.15567549  0.21560604  1  0  -0.052767  0  3.731854  0  0  -0.078256  0  3.983995  0  0  -0.076179  0  4.00407  0  0  -0.078821  -0.079258  0  3.970343  0
C  C40  1  0.50725599  0.65525274  0.71567740  1  0  -0.054851  0  3.733061  0  0  -0.079863  0  3.985193  0  0  -0.077793  0  4.005291  0  0  -0.079563  -0.080834  0  3.971516  0
C  C41  1  0.87830578  0.84432152  0.78439354  1  0  -0.05299  0  3.731982  0  0  -0.078444  0  3.984186  0  0  -0.07637  0  4.004257  0  0  -0.078875  -0.079441  0  3.970527  0
C  C42  1  0.41599714  0.32379162  0.37480782  1  0  -0.059026  0  3.737771  0  0  -0.074944  0  3.994993  0  0  -0.079899  0  4.017095  0  0  -0.083519  -0.071852  0  3.98004  0
C  C43  1  0.11438636  0.17660451  0.12511567  1  0  -0.058085  0  3.736503  0  0  -0.073697  0  3.993765  0  0  -0.078637  0  4.015887  0  0  -0.083537  -0.070572  0  3.978778  0
C  C44  1  0.58400299  0.67620758  0.62518948  1  0  -0.058894  0  3.737517  0  0  -0.0748  0  3.994719  0  0  -0.079755  0  4.016822  0  0  -0.083446  -0.071685  0  3.979766  0
C  C45  1  0.88561726  0.82339542  0.87488286  1  0  -0.058124  0  3.736417  0  0  -0.073738  0  3.993661  0  0  -0.078663  0  4.015784  0  0  -0.083588  -0.07062  0  3.978685  0
C  C46  1  0.19930641  0.39145339  0.41040185  1  0  -0.022729  0  3.720636  0  0  -0.038929  0  3.969197  0  0  -0.037243  0  3.989226  0  0  -0.078481  -0.039619  0  3.955431  0
C  C47  1  0.00080621  0.10890904  0.08955213  1  0  -0.024959  0  3.725252  0  0  -0.041557  0  3.973663  0  0  -0.039973  0  3.993718  0  0  -0.07901  -0.042183  0  3.959892  0
C  C48  1  0.80068624  0.60854069  0.58959842  1  0  -0.022854  0  3.720621  0  0  -0.039039  0  3.969177  0  0  -0.037356  0  3.989207  0  0  -0.078479  -0.03972  0  3.955394  0
C  C49  1  0.99921188  0.89109235  0.91044648  1  0  -0.024802  0  3.725019  0  0  -0.041396  0  3.973452  0  0  -0.039807  0  3.993499  0  0  -0.078911  -0.042022  0  3.959687  0
C  C50  1  0.06576654  0.48025997  0.35638458  1  0  -0.133855  0  3.693215  0  0  -0.148865  0  3.938129  0  0  -0.155425  0  3.95889  0  0  -0.087796  -0.144673  0  3.924156  0
C  C51  1  0.90243328  0.02004832  0.14360235  1  0  -0.131729  0  3.694964  0  0  -0.147165  0  3.939467  0  0  -0.153723  0  3.960271  0  0  -0.087408  -0.142971  0  3.925479  0
C  C52  1  0.93421639  0.51973337  0.64361817  1  0  -0.1337  0  3.693116  0  0  -0.148739  0  3.938061  0  0  -0.155292  0  3.958828  0  0  -0.087802  -0.144547  0  3.924084  0
C  C53  1  0.09758805  0.97994942  0.85639791  1  0  -0.131879  0  3.694995  0  0  -0.14731  0  3.939513  0  0  -0.153871  0  3.960308  0  0  -0.087451  -0.143115  0  3.925523  0
C  C54  1  0.14694191  0.50393288  0.26442427  1  0  0.235836  0  3.770878  0  0  0.227809  0  4.016632  0  0  0.23709  0  4.039283  0  0  0.103672  0.221783  0  4.00126  0
C  C55  1  0.91542488  0.99641615  0.23555393  1  0  0.23469  0  3.771546  0  0  0.227798  0  4.015795  0  0  0.237069  0  4.038421  0  0  0.103226  0.221779  0  4.00042  0
C  C56  1  0.85304529  0.49606412  0.73557707  1  0  0.235673  0  3.770883  0  0  0.227725  0  4.016585  0  0  0.237005  0  4.039235  0  0  0.103627  0.221698  0  4.001212  0
C  C57  1  0.08458875  0.00358379  0.76444490  1  0  0.234787  0  3.771601  0  0  0.227855  0  4.015962  0  0  0.237125  0  4.038588  0  0  0.103244  0.221839  0  4.000583  0
Br  Br58  1  0.37022470  0.68751703  0.37783789  1  0  -0.498696  0  1.124918  0  0  -0.437683  0  1.434643  0  0  -0.459344  0  1.413769  0  0  -0.226491  -0.421728  0  1.449221  0
Br  Br59  1  0.43602276  0.81293056  0.12228546  1  0  -0.498716  0  1.125467  0  0  -0.437751  0  1.435502  0  0  -0.459458  0  1.414686  0  0  -0.226578  -0.421727  0  1.44995  0
Br  Br60  1  0.62977572  0.31248142  0.62216479  1  0  -0.498726  0  1.124957  0  0  -0.437735  0  1.43472  0  0  -0.459397  0  1.413839  0  0  -0.22651  -0.421747  0  1.449245  0
Br  Br61  1  0.56395897  0.18705763  0.87772693  1  0  -0.498701  0  1.125353  0  0  -0.43774  0  1.435369  0  0  -0.459458  0  1.414588  0  0  -0.226587  -0.421713  0  1.449824  0
N  N62  1  0.01958732  0.59406163  0.21040313  1  0  -0.427182  0  3.20229  0  0  -0.365316  0  3.481102  0  0  -0.389218  0  3.498843  0  0  -0.340459  -0.3491  0  3.468449  0
N  N63  1  0.82388801  0.90630163  0.28956992  1  0  -0.427418  0  3.205027  0  0  -0.365961  0  3.483515  0  0  -0.389882  0  3.501311  0  0  -0.34036  -0.349768  0  3.470927  0
N  N64  1  0.98038764  0.40593463  0.78960060  1  0  -0.426943  0  3.202279  0  0  -0.365057  0  3.48103  0  0  -0.388964  0  3.498788  0  0  -0.340278  -0.348869  0  3.468446  0
N  N65  1  0.17612088  0.09369757  0.71042895  1  0  -0.427523  0  3.204983  0  0  -0.366053  0  3.483498  0  0  -0.389973  0  3.501296  0  0  -0.340415  -0.349864  0  3.470917  0
N  N66  1  0.27377963  0.54600014  0.08585721  1  0  -0.413473  0  3.339921  0  0  -0.34541  0  3.577541  0  0  -0.368798  0  3.582656  0  0  -0.376683  -0.329729  0  3.573657  0
N  N67  1  0.90534717  0.95437659  0.41410458  1  0  -0.412734  0  3.341105  0  0  -0.345316  0  3.578485  0  0  -0.368654  0  3.583617  0  0  -0.376843  -0.32968  0  3.574592  0
N  N68  1  0.72620896  0.45400490  0.91414284  1  0  -0.413512  0  3.33987  0  0  -0.345403  0  3.577577  0  0  -0.368792  0  3.58269  0  0  -0.376649  -0.32972  0  3.57369  0
N  N69  1  0.09465555  0.04562408  0.58589439  1  0  -0.41282  0  3.341244  0  0  -0.345279  0  3.578536  0  0  -0.368613  0  3.583672  0  0  -0.37681  -0.329647  0  3.574648  0
O  O70  1  0.61418815  0.40154182  0.09366389  1  0  -0.551324  0  1.933403  0  0  -0.506711  0  2.149491  0  0  -0.528316  0  2.142865  0  0  -0.295955  -0.491726  0  2.153499  0
O  O71  1  0.10912355  0.09888161  0.40630380  1  0  -0.55033  0  1.935439  0  0  -0.506117  0  2.15048  0  0  -0.527693  0  2.143944  0  0  -0.295637  -0.491138  0  2.154395  0
O  O72  1  0.38580848  0.59846177  0.90633417  1  0  -0.551364  0  1.933441  0  0  -0.506741  0  2.14955  0  0  -0.528344  0  2.142921  0  0  -0.295968  -0.491757  0  2.15356  0
O  O73  1  0.89088667  0.90111906  0.59369280  1  0  -0.550337  0  1.935439  0  0  -0.506126  0  2.150535  0  0  -0.527703  0  2.143995  0  0  -0.295692  -0.491145  0  2.154441  0
