# generated using pymatgen
data_Zn4H5C17N3O13
_symmetry_space_group_name_H-M   'P 1'
_cell_length_a   10.86635960
_cell_length_b   10.87724852
_cell_length_c   13.22249089
_cell_angle_alpha   99.99237195
_cell_angle_beta   99.08198654
_cell_angle_gamma   95.96298837
_symmetry_Int_Tables_number   1
_chemical_formula_structural   Zn4H5C17N3O13
_chemical_formula_sum   'Zn4 H5 C17 N3 O13'
_cell_volume   1505.93318091
_cell_formula_units_Z   1
loop_
 _symmetry_equiv_pos_site_id
 _symmetry_equiv_pos_as_xyz
  1  'x, y, z'
loop_
 _atom_site_type_symbol
 _atom_site_label
 _atom_site_symmetry_multiplicity
 _atom_site_fract_x
 _atom_site_fract_y
 _atom_site_fract_z
 _atom_site_occupancy
 _atom_site_pbe_bader_charge
 _atom_site_pbe_bader_spin_density
 _atom_site_pbe_cm5_charge
 _atom_site_pbe_ddec_charge
 _atom_site_pbe_ddec_spin_density
 _atom_site_pbe_ddec_sum_bond_order
 _atom_site_pbe_magmom
Zn  Zn0  1  0.42311239  0.61910256  0.57858531  1  1.323081  0  0.682389  0.96913  0  2.369163  0
Zn  Zn1  1  0.60383054  0.41519027  0.60388405  1  1.317732  0  0.68483  0.973279  0  2.350967  0
Zn  Zn2  1  0.61960476  0.57898057  0.42764534  1  1.32183  0  0.68581  0.974386  0  2.361637  0
Zn  Zn3  1  0.38072198  0.36533793  0.39821329  1  1.318261  0  0.681032  0.979467  0  2.303115  0
H  H4  1  0.49169639  0.40316799  0.90753447  1  0.11663  0  0.121986  0.126841  0  0.967887  0
H  H5  1  0.37860985  0.97091517  0.47425619  1  0.13192  0  0.13233  0.15827  0  0.95609  0
H  H6  1  0.43774879  0.33585599  0.06212325  1  0.131931  0  0.127739  0.152584  0  0.960113  0
H  H7  1  0.53549253  0.69287888  0.92875758  1  0.127732  0  0.122811  0.145599  0  0.973652  0
H  H8  1  0.97710459  0.45469009  0.39382763  1  0.153889  0  0.132326  0.157012  0  0.957898  0
C  C9  1  0.83786195  0.49737745  0.53960368  1  1.631716  0  0.244789  0.618433  0  4.154376  0
C  C10  1  0.47976370  0.16250612  0.49388922  1  1.604403  0  0.233021  0.650464  0  4.16649  0
C  C11  1  0.17341523  0.48268154  0.47710508  1  1.603635  0  0.233539  0.650673  0  4.165758  0
C  C12  1  0.47793901  0.44505979  0.22229737  1  1.580465  0  0.224782  0.645313  0  4.182198  0
C  C13  1  0.52320038  0.56442244  0.77894255  1  1.539124  0  0.230206  0.653756  0  4.149099  0
C  C14  1  0.52483653  0.59335146  0.89257045  1  -0.023318  0  -0.067667  -0.18956  0  3.83722  0
C  C15  1  0.50706630  0.50162789  0.94756020  1  -0.003683  0  -0.058224  -0.068581  0  3.938941  0
C  C16  1  0.55371104  0.82352729  0.50507061  1  1.60407  0  0.240955  0.611594  0  4.160234  0
C  C17  1  0.47296523  0.42957306  0.10842095  1  -0.047905  0  -0.057261  -0.235664  0  3.763301  0
C  C18  1  0.50753223  0.52463825  0.05948524  1  0.121095  0  0.031946  0.117698  0  4.054849  0
C  C19  1  0.03552023  0.47964033  0.47127348  1  0.031747  0  -0.041653  -0.169706  0  3.760565  0
C  C20  1  0.47220756  0.02510437  0.49272936  1  0.054299  0  -0.0428  -0.172454  0  3.759443  0
C  C21  1  0.54558274  0.65232264  0.11405780  1  0.863538  0  0.184028  0.242985  0  3.989744  0
C  C22  1  0.04441987  0.52975712  0.66074233  1  0.87206  0  0.17789  0.259532  0  4.017868  0
C  C23  1  0.70059282  0.02292492  0.52990202  1  0.871067  0  0.177682  0.259926  0  4.016061  0
C  C24  1  0.97902003  0.50276384  0.55535898  1  0.053797  0  0.02474  -0.020413  0  3.967254  0
C  C25  1  0.57333967  0.96394245  0.50997307  1  0.077926  0  0.024739  -0.020985  0  3.968846  0
N  N26  1  0.57514282  0.75954105  0.14869953  1  -1.100367  0  -0.302599  -0.341833  0  2.650355  0
N  N27  1  0.09390223  0.55311266  0.74818546  1  -1.081824  0  -0.29861  -0.336492  0  2.645926  0
N  N28  1  0.80634007  0.06665093  0.54768075  1  -1.073879  0  -0.298587  -0.335732  0  2.641976  0
O  O29  1  0.50411467  0.49090028  0.49947279  1  -1.234428  0  -0.574536  -1.045467  0  2.54117  0
O  O30  1  0.57160541  0.23225607  0.55633124  1  -1.166829  0  -0.299454  -0.531633  0  2.339317  0
O  O31  1  0.64122721  0.76311999  0.47824612  1  -1.14603  0  -0.296135  -0.51767  0  2.297948  0
O  O32  1  0.78520793  0.52012270  0.45300506  1  -1.166054  0  -0.305973  -0.536829  0  2.314687  0
O  O33  1  0.39219434  0.19641518  0.43279541  1  -1.155266  0  -0.305012  -0.532854  0  2.260565  0
O  O34  1  0.20845878  0.40643051  0.40592329  1  -1.15206  0  -0.305502  -0.534085  0  2.260578  0
O  O35  1  0.55034400  0.54030803  0.27891230  1  -1.168081  0  -0.305028  -0.541752  0  2.361971  0
O  O36  1  0.55278398  0.45772135  0.74003969  1  -1.165903  0  -0.313956  -0.548925  0  2.287239  0
O  O37  1  0.49181164  0.65011524  0.72847958  1  -1.152235  0  -0.314007  -0.543229  0  2.263651  0
O  O38  1  0.41035722  0.36118176  0.25379990  1  -1.141209  0  -0.30835  -0.53513  0  2.256067  0
O  O39  1  0.78526336  0.47168389  0.61406025  1  -1.147099  0  -0.297987  -0.521374  0  2.299263  0
O  O40  1  0.45125900  0.77906422  0.52847177  1  -1.163621  0  -0.306054  -0.535383  0  2.312678  0
O  O41  1  0.24250469  0.56238636  0.55154150  1  -1.16216  0  -0.300178  -0.531193  0  2.342167  0
