# generated using pymatgen
data_CuH16C16(NO)4
_symmetry_space_group_name_H-M   'P 1'
_cell_length_a   7.16160194
_cell_length_b   7.17899845
_cell_length_c   8.92246209
_cell_angle_alpha   98.31353242
_cell_angle_beta   105.81104619
_cell_angle_gamma   98.15945260
_symmetry_Int_Tables_number   1
_chemical_formula_structural   CuH16C16(NO)4
_chemical_formula_sum   'Cu1 H16 C16 N4 O4'
_cell_volume   428.74354224
_cell_formula_units_Z   1
loop_
 _symmetry_equiv_pos_site_id
 _symmetry_equiv_pos_as_xyz
  1  'x, y, z'
loop_
 _atom_site_type_symbol
 _atom_site_label
 _atom_site_symmetry_multiplicity
 _atom_site_fract_x
 _atom_site_fract_y
 _atom_site_fract_z
 _atom_site_occupancy
 _atom_site_hle17_ddec_charge
 _atom_site_hle17_ddec_spin_density
 _atom_site_hle17_ddec_sum_bond_order
 _atom_site_hle17_magmom
 _atom_site_hse06_10hf_ddec_charge
 _atom_site_hse06_10hf_ddec_spin_density
 _atom_site_hse06_10hf_ddec_sum_bond_order
 _atom_site_hse06_10hf_magmom
 _atom_site_hse06_ddec_charge
 _atom_site_hse06_ddec_spin_density
 _atom_site_hse06_ddec_sum_bond_order
 _atom_site_hse06_magmom
 _atom_site_pbe_cm5_charge
 _atom_site_pbe_ddec_charge
 _atom_site_pbe_ddec_spin_density
 _atom_site_pbe_ddec_sum_bond_order
 _atom_site_pbe_magmom
Cu  Cu0  1  0.00000032  0.00000143  0.00000024  1  0.841508  0.671305  1.767033  0.497  0.811569  0.760411  2.155132  0.607  0.904912  0.822966  2.081528  0.688  0.728533  0.751675  0.719381  2.210356  0.558
H  H1  1  0.10688630  0.21715668  0.56945034  1  0.105115  0.001054  0.950893  0.001  0.117539  0.000822  1.014366  0.001  0.118425  0.000535  1.014998  0.001  0.096908  0.116852  0.001095  1.013907  0.001
H  H2  1  0.89310471  0.78283594  0.43054093  1  0.105082  0.001048  0.950865  0.001  0.117568  0.000821  1.014267  0.001  0.118459  0.000535  1.014899  0.001  0.09695  0.116879  0.001093  1.013811  0.001
H  H3  1  0.26373624  0.05543885  0.53572588  1  0.114987  -0.000757  0.940581  -0.001  0.129519  -0.000204  0.998352  0.0  0.132404  -0.000173  0.99595  0.0  0.099703  0.127421  -0.000176  1.00027  0.0
H  H4  1  0.73626188  0.94455783  0.46427739  1  0.114991  -0.000761  0.940577  -0.001  0.129492  -0.000204  0.998367  0.0  0.132381  -0.000173  0.995965  0.0  0.099717  0.127397  -0.000177  1.000278  0.0
H  H5  1  0.18142440  0.55877236  0.53947260  1  0.100447  -8.3e-05  0.957553  0.0  0.111679  -1.1e-05  1.019373  0.0  0.115003  0.0  1.017815  0.0  0.09959  0.109219  -2.7e-05  1.020344  0.0
H  H6  1  0.81857958  0.44122414  0.46053403  1  0.100463  -8.7e-05  0.957548  0.0  0.111704  -1.1e-05  1.019358  0.0  0.115027  0.0  1.017801  0.0  0.099606  0.109247  -2.7e-05  1.020329  0.0
H  H7  1  0.57144674  0.17076130  0.46935919  1  0.09746  4.4e-05  0.955219  0.0  0.109088  0.000121  1.015928  0.0  0.112576  7.4e-05  1.013218  0.0  0.099786  0.106321  0.000156  1.018606  0.0
H  H8  1  0.42855403  0.82923384  0.53064665  1  0.097443  4.5e-05  0.955305  0.0  0.109098  0.000121  1.015962  0.0  0.112587  7.4e-05  1.013249  0.0  0.099758  0.10633  0.000156  1.018643  0.0
H  H9  1  0.36413561  0.33511974  0.21420959  1  0.088728  -0.000155  0.996344  0.0  0.097244  -6.6e-05  1.060945  0.0  0.098489  -8.7e-05  1.060554  0.0  0.12999  0.097122  -3.4e-05  1.059282  0.0
H  H10  1  0.63586727  0.66487973  0.78578935  1  0.088837  -0.000167  0.996335  0.0  0.097305  -6.6e-05  1.060978  0.0  0.09855  -8.7e-05  1.06059  0.0  0.130019  0.097186  -3.3e-05  1.059316  0.0
H  H11  1  0.43332135  0.65295365  0.12607238  1  0.309806  0.000594  0.843444  0.001  0.305908  0.000527  0.878471  0.001  0.311212  0.000386  0.876277  0.0  0.346758  0.302008  0.000663  0.880374  0.001
H  H12  1  0.56667572  0.34704599  0.87392433  1  0.309697  0.000594  0.84349  0.001  0.305793  0.000527  0.87853  0.001  0.311095  0.000386  0.876338  0.0  0.346679  0.301891  0.000663  0.880433  0.001
H  H13  1  0.19836438  0.65824483  0.85164843  1  0.128731  0.000342  0.996205  0.001  0.135102  0.000253  1.062311  0.0  0.138616  0.000154  1.05968  0.0  0.120938  0.132586  0.000339  1.063859  0.001
H  H14  1  0.80162951  0.34175919  0.14835270  1  0.128728  0.000342  0.996192  0.001  0.135112  0.000252  1.06229  0.0  0.13862  0.000153  1.05966  0.0  0.120957  0.132596  0.000338  1.063841  0.001
H  H15  1  0.95851328  0.29542999  0.76276787  1  0.105791  -0.000102  0.962498  0.0  0.116207  0.000134  1.020727  0.001  0.118385  7e-05  1.020106  0.0  0.117072  0.114388  0.000149  1.021731  0.001
H  H16  1  0.04147632  0.70457415  0.23723355  1  0.105895  -0.000101  0.962495  0.0  0.116247  0.000134  1.020796  0.001  0.118424  7e-05  1.020185  0.0  0.117105  0.11443  0.000148  1.021794  0.001
C  C17  1  0.06994746  0.11436975  0.32241266  1  0.679598  -0.008183  3.855468  -0.008  0.643027  -0.002727  4.160897  -0.003  0.677739  -0.00341  4.157258  -0.003  0.200238  0.620019  -0.001924  4.161681  -0.003
C  C18  1  0.93001621  0.88563661  0.67757612  1  0.679353  -0.008194  3.855269  -0.008  0.642862  -0.002723  4.160584  -0.003  0.677588  -0.003409  4.156944  -0.003  0.200239  0.619857  -0.001923  4.161376  -0.003
C  C19  1  0.20017356  0.17673083  0.49601000  1  -0.30643  0.011017  3.697749  0.012  -0.34941  0.006794  3.935486  0.007  -0.355452  0.004644  3.943561  0.005  -0.166507  -0.345339  0.008172  3.929832  0.009
C  C20  1  0.79982812  0.82326288  0.50399022  1  -0.306402  0.011025  3.698038  0.012  -0.349334  0.006788  3.935664  0.007  -0.355396  0.004641  3.943759  0.005  -0.1665  -0.345274  0.008164  3.930021  0.009
C  C21  1  0.35874138  0.34397484  0.50618850  1  0.09854  0.000278  3.775218  0.0  0.114875  4.7e-05  4.01943  0.0  0.115818  -0.000163  4.043569  0.0  -0.019749  0.11443  0.000258  4.002049  0.0
C  C22  1  0.64126283  0.65602311  0.49381612  1  0.098774  0.000233  3.775109  0.0  0.115006  4.8e-05  4.019434  0.0  0.115953  -0.000164  4.043581  0.0  -0.019773  0.114562  0.000258  4.002052  0.0
C  C23  1  0.32031228  0.53104728  0.52107928  1  -0.127402  0.001289  3.746551  0.001  -0.149087  0.000413  4.001845  0.0  -0.152248  0.000206  4.023339  0.0  -0.096666  -0.146056  0.000577  3.985142  0.001
C  C24  1  0.67969017  0.46894928  0.47892482  1  -0.127568  0.001331  3.746446  0.001  -0.149242  0.000413  4.001799  0.0  -0.152405  0.000206  4.023294  0.0  -0.096666  -0.146213  0.000577  3.985096  0.001
C  C25  1  0.54056568  0.31554701  0.48519585  1  -0.120719  0.000655  3.74862  0.0  -0.140858  0.000719  4.002024  0.001  -0.142075  0.000434  4.020506  0.0  -0.097027  -0.140929  0.000937  3.990235  0.001
C  C26  1  0.45943825  0.68444950  0.51480965  1  -0.12087  0.000686  3.74882  0.0  -0.140992  0.000718  4.002195  0.001  -0.14221  0.000434  4.020676  0.0  -0.096992  -0.141063  0.000937  3.990404  0.001
C  C27  1  0.28565589  0.37055224  0.10318140  1  0.209051  -0.008337  3.674236  -0.004  0.154622  -0.002692  3.943992  -0.001  0.170774  -0.003972  3.958559  -0.002  0.139257  0.144629  -0.001689  3.932299  0.0
C  C28  1  0.71433846  0.62944895  0.89681049  1  0.208928  -0.008245  3.674069  -0.004  0.154547  -0.002694  3.943825  -0.001  0.170691  -0.003971  3.958397  -0.002  0.139259  0.144544  -0.001685  3.932135  0.0
C  C29  1  0.19943479  0.53587712  0.91068461  1  -0.015523  0.003356  3.668037  0.004  -0.054558  0.001842  3.93279  0.002  -0.053782  0.001601  3.951148  0.002  -0.000466  -0.054539  0.002189  3.919399  0.002
C  C30  1  0.80055608  0.46411977  0.08931615  1  -0.015508  0.003366  3.66792  0.004  -0.054548  0.001842  3.932666  0.002  -0.053767  0.001601  3.951021  0.002  -0.000404  -0.05454  0.002188  3.919279  0.002
C  C31  1  0.08146999  0.35683481  0.86791643  1  -0.004465  -0.00097  3.73502  0.0  -0.03168  0.000296  3.999002  0.001  -0.028717  -0.000586  4.021585  0.0  -0.007427  -0.034595  0.000868  3.984694  0.001
C  C32  1  0.91853071  0.64317334  0.13208879  1  -0.004614  -0.001007  3.734797  0.0  -0.031789  0.000295  3.99885  0.001  -0.028826  -0.000589  4.021426  0.0  -0.007488  -0.034697  0.000865  3.984536  0.001
N  N33  1  0.13647230  0.25552389  0.98862823  1  -0.371695  0.06366  3.348058  0.082  -0.324828  0.0467  3.65918  0.064  -0.356415  0.038902  3.677631  0.057  -0.378484  -0.305588  0.050965  3.649549  0.066
N  N34  1  0.86352434  0.74448008  0.01137006  1  -0.371588  0.063643  3.347927  0.082  -0.324747  0.046701  3.65905  0.064  -0.356333  0.038902  3.677503  0.057  -0.378489  -0.305507  0.050966  3.649415  0.066
N  N35  1  0.32593267  0.54086918  0.05939509  1  -0.278975  0.000888  3.489931  0.002  -0.217079  0.000924  3.727919  0.002  -0.231753  0.000543  3.742532  0.001  -0.37899  -0.207139  0.001193  3.717638  0.002
N  N36  1  0.67406986  0.45913461  0.94060769  1  -0.278863  0.000878  3.489983  0.002  -0.216953  0.000925  3.727939  0.002  -0.23162  0.000543  3.74255  0.001  -0.37895  -0.207001  0.001194  3.717649  0.002
O  O37  1  0.15784276  0.03605198  0.22737359  1  -0.610904  0.099443  2.008285  0.136  -0.583589  0.066506  2.284844  0.099  -0.626818  0.051135  2.2768  0.083  -0.339024  -0.554566  0.076303  2.290166  0.108
O  O38  1  0.84217308  0.96394138  0.77262263  1  -0.610719  0.09928  2.008919  0.136  -0.58343  0.066425  2.285481  0.099  -0.626633  0.051077  2.277422  0.083  -0.338984  -0.55442  0.076204  2.290814  0.108
O  O39  1  0.89812970  0.14631071  0.28196388  1  -0.622758  0.000369  1.904274  0.003  -0.5894  -0.000564  2.132226  0.002  -0.614539  -0.001747  2.123477  0.0  -0.330158  -0.571974  0.000345  2.137228  0.003
O  O40  1  0.10191030  0.85368055  0.71803568  1  -0.62295  0.000384  1.902913  0.003  -0.589586  -0.000556  2.13078  0.002  -0.614739  -0.00174  2.122034  0.0  -0.33032  -0.572148  0.000354  2.135789  0.003
