# generated using pymatgen
data_SmH2C7O6
_symmetry_space_group_name_H-M   'P 1'
_cell_length_a   7.28545186
_cell_length_b   8.79524680
_cell_length_c   9.78531895
_cell_angle_alpha   90.00011772
_cell_angle_beta   90.00008955
_cell_angle_gamma   89.99959682
_symmetry_Int_Tables_number   1
_chemical_formula_structural   SmH2C7O6
_chemical_formula_sum   'Sm4 H8 C28 O24'
_cell_volume   627.01727953
_cell_formula_units_Z   4
loop_
 _symmetry_equiv_pos_site_id
 _symmetry_equiv_pos_as_xyz
  1  'x, y, z'
loop_
 _atom_site_type_symbol
 _atom_site_label
 _atom_site_symmetry_multiplicity
 _atom_site_fract_x
 _atom_site_fract_y
 _atom_site_fract_z
 _atom_site_occupancy
 _atom_site_pbe_bader_spin_density
 _atom_site_pbe_cm5_charge
 _atom_site_pbe_ddec_charge
 _atom_site_pbe_ddec_spin_density
 _atom_site_pbe_ddec_sum_bond_order
 _atom_site_pbe_magmom
Sm  Sm0  1  0.64775442  0.17716865  0.74999855  1  0  1.462926  2.140897  0  2.022132  0
Sm  Sm1  1  0.85224839  0.67717693  0.25000009  1  0  1.462928  2.140728  0  2.022374  0
Sm  Sm2  1  0.14774286  0.32283217  0.74999943  1  0  1.462967  2.140921  0  2.022112  0
Sm  Sm3  1  0.35225330  0.82283250  0.24999892  1  0  1.462919  2.140781  0  2.022114  0
H  H4  1  0.53793731  0.59325266  0.97135394  1  0  0.129871  0.154863  0  1.025701  0
H  H5  1  0.96204379  0.09325113  0.02863330  1  0  0.129903  0.154974  0  1.025615  0
H  H6  1  0.03795109  0.90673700  0.52863563  1  0  0.129877  0.154919  0  1.025729  0
H  H7  1  0.46205718  0.40674673  0.47138229  1  0  0.129897  0.154922  0  1.025494  0
H  H8  1  0.46204708  0.40675190  0.02862616  1  0  0.129872  0.154863  0  1.025569  0
H  H9  1  0.03795158  0.90674319  0.97136724  1  0  0.129878  0.15492  0  1.025652  0
H  H10  1  0.96205114  0.09325278  0.47136695  1  0  0.129888  0.154959  0  1.025576  0
H  H11  1  0.53792995  0.59325783  0.52863358  1  0  0.12988  0.154916  0  1.025663  0
C  C12  1  0.64269803  0.89177536  0.98630933  1  0  0.204046  0.560741  0  4.238332  0
C  C13  1  0.85729654  0.39178501  0.01369379  1  0  0.204046  0.560535  0  4.238598  0
C  C14  1  0.14270105  0.60820308  0.51367934  1  0  0.204112  0.560839  0  4.238869  0
C  C15  1  0.35730610  0.10820587  0.48632272  1  0  0.204134  0.560732  0  4.238946  0
C  C16  1  0.35730557  0.10821101  0.01368304  1  0  0.204117  0.560737  0  4.23869  0
C  C17  1  0.14270157  0.60820931  0.98631493  1  0  0.204073  0.560679  0  4.238823  0
C  C18  1  0.85729981  0.39178670  0.48630996  1  0  0.20406  0.560619  0  4.238637  0
C  C19  1  0.64270163  0.89177822  0.51368396  1  0  0.204031  0.560715  0  4.238413  0
C  C20  1  0.58628089  0.79862714  0.87156078  1  0  0.083011  0.111011  0  3.949896  0
C  C21  1  0.91372921  0.29863260  0.12843808  1  0  0.083015  0.111175  0  3.95016  0
C  C22  1  0.08626177  0.70136713  0.62842169  1  0  0.082996  0.111171  0  3.949494  0
C  C23  1  0.41374358  0.20136633  0.37157747  1  0  0.08319  0.111392  0  3.949737  0
C  C24  1  0.41373919  0.20136718  0.12843056  1  0  0.083129  0.111404  0  3.949732  0
C  C25  1  0.08626891  0.70136627  0.87157575  1  0  0.083013  0.111285  0  3.94952  0
C  C26  1  0.91373497  0.29862833  0.37156352  1  0  0.083097  0.111273  0  3.950043  0
C  C27  1  0.58627513  0.79862686  0.62843534  1  0  0.083018  0.111087  0  3.949918  0
C  C28  1  0.54145602  0.64769218  0.87235365  1  0  -0.074655  -0.223274  0  3.893299  0
C  C29  1  0.95854050  0.14769201  0.12764290  1  0  -0.074644  -0.223443  0  3.893349  0
C  C30  1  0.04144498  0.85230544  0.62764002  1  0  -0.074667  -0.223453  0  3.893394  0
C  C31  1  0.45855884  0.35230812  0.37236350  1  0  -0.074675  -0.22353  0  3.892978  0
C  C32  1  0.45855857  0.35230784  0.12764690  1  0  -0.074664  -0.223561  0  3.893222  0
C  C33  1  0.04144937  0.85230686  0.87235662  1  0  -0.07463  -0.223436  0  3.893132  0
C  C34  1  0.95854764  0.14769457  0.37235746  1  0  -0.074673  -0.223509  0  3.893583  0
C  C35  1  0.54145025  0.64769530  0.62763500  1  0  -0.074717  -0.223389  0  3.893533  0
C  C36  1  0.51471572  0.56428332  0.74999372  1  0  0.099892  0.405247  0  4.069615  0
C  C37  1  0.98528378  0.06426871  0.25000063  1  0  0.099774  0.405185  0  4.069921  0
C  C38  1  0.01471022  0.93572676  0.74999889  1  0  0.099728  0.405194  0  4.069459  0
C  C39  1  0.48528926  0.43573260  0.25000580  1  0  0.099922  0.405531  0  4.069901  0
O  O40  1  0.68539821  0.02939933  0.96024299  1  0  -0.358918  -0.6181  0  2.380579  0
O  O41  1  0.81459371  0.52941162  0.03975334  1  0  -0.358852  -0.617887  0  2.380677  0
O  O42  1  0.18540668  0.47059245  0.53975197  1  0  -0.358846  -0.617976  0  2.380775  0
O  O43  1  0.31458801  0.97060344  0.46025177  1  0  -0.358879  -0.617955  0  2.380839  0
O  O44  1  0.31458480  0.97060409  0.03975040  1  0  -0.358865  -0.617953  0  2.380759  0
O  O45  1  0.18540989  0.47059180  0.96024618  1  0  -0.358867  -0.617943  0  2.380697  0
O  O46  1  0.81459555  0.52940983  0.46024653  1  0  -0.358849  -0.617943  0  2.380802  0
O  O47  1  0.68540049  0.02940112  0.53975491  1  0  -0.358925  -0.618097  0  2.380543  0
O  O48  1  0.64889902  0.83344398  0.10893573  1  0  -0.45158  -0.763953  0  2.387546  0
O  O49  1  0.85108570  0.33343405  0.89106524  1  0  -0.451566  -0.763974  0  2.387421  0
O  O50  1  0.14893195  0.66655605  0.39108145  1  0  -0.451464  -0.763896  0  2.387931  0
O  O51  1  0.35107545  0.16657049  0.60892173  1  0  -0.451478  -0.763869  0  2.387819  0
O  O52  1  0.35107713  0.16657537  0.89108014  1  0  -0.451474  -0.763935  0  2.387729  0
O  O53  1  0.14893438  0.66655914  0.10892202  1  0  -0.451495  -0.76388  0  2.3877  0
O  O54  1  0.85108950  0.33343486  0.60893442  1  0  -0.451558  -0.763993  0  2.387513  0
O  O55  1  0.64890620  0.83344430  0.39106348  1  0  -0.451522  -0.763861  0  2.387519  0
O  O56  1  0.47470314  0.41762681  0.74999561  1  0  -0.465572  -0.768013  0  2.414128  0
O  O57  1  0.02529944  0.91762777  0.24999883  1  0  -0.465486  -0.767865  0  2.414565  0
O  O58  1  0.97470005  0.08237792  0.74999967  1  0  -0.465439  -0.767843  0  2.414179  0
O  O59  1  0.52529223  0.58235956  0.25000493  1  0  -0.465457  -0.767872  0  2.414615  0
O  O60  1  0.59502206  0.87909775  0.74999916  1  0  -0.16116  -0.221073  0  2.774726  0
O  O61  1  0.90499198  0.37909097  0.24999882  1  0  -0.161183  -0.221147  0  2.774996  0
O  O62  1  0.09504319  0.62090791  0.75000274  1  0  -0.161146  -0.221225  0  2.774468  0
O  O63  1  0.40495958  0.12092387  0.25000138  1  0  -0.161306  -0.221365  0  2.775217  0
