# generated using pymatgen
data_Zn4H12C28S2Cl2O13
_symmetry_space_group_name_H-M   'P 1'
_cell_length_a   18.54149909
_cell_length_b   19.70963869
_cell_length_c   32.75176456
_cell_angle_alpha   85.98202047
_cell_angle_beta   73.64261798
_cell_angle_gamma   62.09206772
_symmetry_Int_Tables_number   1
_chemical_formula_structural   Zn4H12C28S2Cl2O13
_chemical_formula_sum   'Zn16 H48 C112 S8 Cl8 O52'
_cell_volume   10121.96030017
_cell_formula_units_Z   4
loop_
 _symmetry_equiv_pos_site_id
 _symmetry_equiv_pos_as_xyz
  1  'x, y, z'
loop_
 _atom_site_type_symbol
 _atom_site_label
 _atom_site_symmetry_multiplicity
 _atom_site_fract_x
 _atom_site_fract_y
 _atom_site_fract_z
 _atom_site_occupancy
 _atom_site_pbe_bader_charge
 _atom_site_pbe_bader_spin_density
 _atom_site_pbe_cm5_charge
 _atom_site_pbe_ddec_charge
 _atom_site_pbe_ddec_spin_density
 _atom_site_pbe_ddec_sum_bond_order
 _atom_site_pbe_magmom
Zn  Zn0  1  0.87311076  0.55618045  0.51907966  1  1.30821  0  0.668987  0.959665  0  2.336684  0
Zn  Zn1  1  0.03967623  0.48178626  0.43843046  1  1.320002  0  0.674857  0.967179  0  2.405141  0
Zn  Zn2  1  0.04261148  0.39940882  0.52440617  1  1.312478  0  0.67195  0.964697  0  2.373868  0
Zn  Zn3  1  0.04604719  0.56120470  0.51743523  1  1.3192  0  0.671993  0.966243  0  2.369448  0
Zn  Zn4  1  0.62572188  0.19103636  0.73230635  1  1.316394  0  0.67086  0.960511  0  2.361295  0
Zn  Zn5  1  0.46287886  0.35087854  0.72633121  1  1.316791  0  0.669827  0.955025  0  2.388586  0
Zn  Zn6  1  0.45699821  0.26468220  0.81248294  1  1.311337  0  0.672504  0.966075  0  2.367159  0
Zn  Zn7  1  0.45462297  0.19202594  0.72877815  1  1.31869  0  0.671909  0.961979  0  2.389398  0
Zn  Zn8  1  0.46178454  0.76458999  0.31274099  1  1.313359  0  0.669114  0.952503  0  2.384227  0
Zn  Zn9  1  0.45540580  0.68983549  0.23100494  1  1.318995  0  0.672811  0.963302  0  2.392238  0
Zn  Zn10  1  0.62532650  0.69493297  0.22983677  1  1.310283  0  0.671142  0.96339  0  2.36092  0
Zn  Zn11  1  0.45664356  0.85154067  0.22624303  1  1.316764  0  0.672895  0.967138  0  2.367058  0
Zn  Zn12  1  0.03786085  0.89884550  0.02373236  1  1.32079  0  0.671902  0.958857  0  2.379088  0
Zn  Zn13  1  0.04871877  0.05801148  0.01914778  1  1.313894  0  0.669496  0.953039  0  2.379239  0
Zn  Zn14  1  0.87609292  0.05860399  0.01962230  1  1.31521  0  0.67278  0.964274  0  2.383566  0
Zn  Zn15  1  0.03804064  0.98493006  0.93734820  1  1.312683  0  0.671318  0.961079  0  2.375158  0
H  H16  1  0.69408037  0.78381204  0.59455408  1  0.117319  0  0.119465  0.144494  0  0.972447  0
H  H17  1  0.80509299  0.96525594  0.65533257  1  0.107564  0  0.120694  0.146712  0  0.97073  0
H  H18  1  0.18746494  0.27365421  0.35049320  1  0.128284  0  0.122674  0.149599  0  0.967405  0
H  H19  1  0.31288781  0.97335942  0.40168823  1  0.117916  0  0.119753  0.145428  0  0.973352  0
H  H20  1  0.81026396  0.24370150  0.65399078  1  0.136017  0  0.107521  0.127816  0  1.000122  0
H  H21  1  0.54440367  0.48582416  0.61968918  1  0.060551  0  0.099257  0.110057  0  0.97851  0
H  H22  1  0.54984420  0.52632084  0.66500759  1  0.067122  0  0.099198  0.109635  0  0.97893  0
H  H23  1  0.65113608  0.56933397  0.61677624  1  0.052338  0  0.099603  0.111232  0  0.977939  0
H  H24  1  0.64561824  0.52911983  0.57142066  1  0.0565  0  0.098237  0.108071  0  0.98376  0
H  H25  1  0.29283475  0.60376167  0.29543440  1  0.118494  0  0.109046  0.130367  0  0.997479  0
H  H26  1  0.34962440  0.67244479  0.43490409  1  0.058228  0  0.097521  0.106637  0  0.983587  0
H  H27  1  0.25924794  0.76076912  0.43218817  1  0.044473  0  0.098903  0.109235  0  0.978313  0
H  H28  1  0.16214384  0.71042593  0.47722611  1  0.070788  0  0.100306  0.113146  0  0.977506  0
H  H29  1  0.25225710  0.62211705  0.48000742  1  0.053948  0  0.098139  0.110878  0  0.982766  0
H  H30  1  0.80910191  0.60363671  0.29554579  1  0.124831  0  0.108192  0.128096  0  0.998623  0
H  H31  1  0.54800925  0.76121320  0.43115522  1  0.044811  0  0.098799  0.108851  0  0.978768  0
H  H32  1  0.54273368  0.67298523  0.43358831  1  0.059782  0  0.097909  0.106793  0  0.983105  0
H  H33  1  0.64332586  0.62280690  0.47969030  1  0.051256  0  0.098031  0.108432  0  0.984276  0
H  H34  1  0.64878171  0.71092897  0.47707797  1  0.059708  0  0.099792  0.111942  0  0.977889  0
H  H35  1  0.30812466  0.45722755  0.64660565  1  0.115495  0  0.106884  0.126973  0  1.00065  0
H  H36  1  0.32881676  0.18030760  0.62960194  1  0.073223  0  0.099433  0.110241  0  0.97894  0
H  H37  1  0.23818433  0.22081794  0.67497869  1  0.071714  0  0.099072  0.110538  0  0.981336  0
H  H38  1  0.14255576  0.27434048  0.62631752  1  0.060223  0  0.099258  0.112042  0  0.981711  0
H  H39  1  0.23330888  0.23374036  0.58105703  1  0.050953  0  0.100623  0.113392  0  0.976392  0
H  H40  1  0.31218356  0.58937446  0.78685940  1  0.103962  0  0.120747  0.146691  0  0.970943  0
H  H41  1  0.18802589  0.66023402  0.96302398  1  0.109098  0  0.121186  0.147559  0  0.969947  0
H  H42  1  0.69069411  0.14759120  0.95532676  1  0.093364  0  0.108969  0.130202  0  0.995858  0
H  H43  1  0.95483698  0.07790647  0.81617624  1  0.041006  0  0.100103  0.111072  0  0.978212  0
H  H44  1  0.94986341  0.98952368  0.81882093  1  0.079086  0  0.099895  0.110526  0  0.979056  0
H  H45  1  0.84785528  0.03983124  0.77351887  1  0.045375  0  0.100202  0.111819  0  0.97674  0
H  H46  1  0.85269696  0.12822403  0.77098260  1  0.060364  0  0.100372  0.112331  0  0.977172  0
H  H47  1  0.19216892  0.05183384  0.84524509  1  0.117116  0  0.10808  0.12851  0  0.999085  0
H  H48  1  0.17159862  0.21607778  0.97519877  1  0.04361  0  0.099231  0.109635  0  0.978669  0
H  H49  1  0.26254504  0.12798998  0.97753120  1  0.034307  0  0.099114  0.109037  0  0.98081  0
H  H50  1  0.35764037  0.17436822  0.92625837  1  0.061858  0  0.099131  0.111489  0  0.981325  0
H  H51  1  0.26669734  0.26231281  0.92397709  1  0.029674  0  0.100448  0.113274  0  0.976033  0
H  H52  1  0.57754958  0.46744936  0.15599136  1  0.105812  0  0.122696  0.149162  0  0.968575  0
H  H53  1  0.92871149  0.28246876  0.09402660  1  0.115077  0  0.120244  0.146109  0  0.97141  0
H  H54  1  0.19197198  0.79463073  0.10316692  1  0.10329  0  0.107928  0.129108  0  0.999363  0
H  H55  1  0.26204721  0.03125417  0.07504259  1  0.052194  0  0.098582  0.107723  0  0.98256  0
H  H56  1  0.17116736  0.07149262  0.12036153  1  0.041137  0  0.099421  0.109451  0  0.979152  0
H  H57  1  0.26633911  0.01785597  0.16902898  1  0.084431  0  0.101224  0.114546  0  0.975702  0
H  H58  1  0.35727510  0.97776141  0.12381233  1  0.056512  0  0.099097  0.111434  0  0.982175  0
H  H59  1  0.69091628  0.00666851  0.09620686  1  0.104212  0  0.108946  0.130062  0  0.996275  0
H  H60  1  0.94984840  0.72281559  0.08535982  1  0.085771  0  0.099161  0.109235  0  0.979314  0
H  H61  1  0.95472630  0.76316903  0.13091515  1  0.034463  0  0.100475  0.111671  0  0.977839  0
H  H62  1  0.85240730  0.72086794  0.17870319  1  0.059359  0  0.101492  0.114255  0  0.974649  0
H  H63  1  0.84771651  0.68022722  0.13325262  1  0.060346  0  0.100266  0.111873  0  0.977744  0
C  C64  1  0.86291567  0.56711709  0.43077049  1  1.557091  0  0.226599  0.620051  0  4.168592  0
C  C65  1  0.12536456  0.31347554  0.43997616  1  1.569722  0  0.217648  0.610012  0  4.22175  0
C  C66  1  0.86477347  0.42858136  0.56874771  1  1.595617  0  0.226948  0.622545  0  4.165854  0
C  C67  1  0.13943936  0.43532408  0.56812224  1  1.579525  0  0.226264  0.618724  0  4.16581  0
C  C68  1  0.87371016  0.68457995  0.56073905  1  1.550805  0  0.216849  0.608782  0  4.220921  0
C  C69  1  0.13770801  0.56803724  0.42988787  1  1.572813  0  0.227378  0.620684  0  4.167708  0
C  C70  1  0.63823344  0.31884328  0.68171896  1  1.552706  0  0.228738  0.611063  0  4.167823  0
C  C71  1  0.37611388  0.43440531  0.81133677  1  1.564094  0  0.216578  0.60667  0  4.225171  0
C  C72  1  0.63411078  0.18155648  0.82070681  1  1.555991  0  0.227152  0.621809  0  4.163878  0
C  C73  1  0.36106717  0.18006594  0.81687698  1  1.566617  0  0.22596  0.618618  0  4.172674  0
C  C74  1  0.62563900  0.06517113  0.68837776  1  1.538562  0  0.216263  0.606624  0  4.221627  0
C  C75  1  0.36290366  0.31931314  0.68079771  1  1.568085  0  0.228764  0.609556  0  4.171317  0
C  C76  1  0.36333565  0.68096619  0.31979025  1  1.542438  0  0.229419  0.611581  0  4.167808  0
C  C77  1  0.62595740  0.56564417  0.18858439  1  1.5638  0  0.217596  0.609807  0  4.219611  0
C  C78  1  0.63712802  0.68213493  0.31915554  1  1.554679  0  0.229448  0.611475  0  4.171257  0
C  C79  1  0.63392609  0.82200637  0.18040066  1  1.586318  0  0.22787  0.622791  0  4.162686  0
C  C80  1  0.37515228  0.93389941  0.31191341  1  1.561993  0  0.216788  0.609187  0  4.222179  0
C  C81  1  0.36162288  0.81596419  0.18109766  1  1.577473  0  0.225737  0.618273  0  4.166623  0
C  C82  1  0.13816037  0.93179705  0.06853740  1  1.569339  0  0.229294  0.609444  0  4.17168  0
C  C83  1  0.87919605  0.18461613  0.06155188  1  1.614833  0  0.217503  0.610465  0  4.219225  0
C  C84  1  0.86274006  0.93079179  0.06898517  1  1.563255  0  0.231114  0.613284  0  4.165779  0
C  C85  1  0.86262424  0.06902821  0.93098271  1  1.556012  0  0.22927  0.610186  0  4.169384  0
C  C86  1  0.12231593  0.81531520  0.93854413  1  1.544894  0  0.216773  0.609127  0  4.220011  0
C  C87  1  0.13825204  0.06878808  0.93126996  1  1.559145  0  0.229782  0.611837  0  4.171248  0
C  C88  1  0.73718290  0.80226839  0.60061055  1  0.071768  0  -0.090528  -0.13742  0  3.975346  0
C  C89  1  0.76199650  0.94688449  0.64918994  1  0.072609  0  -0.089329  -0.137781  0  3.973086  0
C  C90  1  0.82473948  0.75913193  0.58588709  1  -0.181687  0  -0.025447  -0.118622  0  3.990578  0
C  C91  1  0.67442532  0.99026935  0.66367994  1  -0.132833  0  -0.025863  -0.117447  0  3.989351  0
C  C92  1  0.78495943  0.87853635  0.62612766  1  -0.181858  0  -0.022804  -0.009572  0  4.068503  0
C  C93  1  0.71419866  0.87074335  0.62356906  1  -0.202854  0  -0.022919  -0.009745  0  4.068717  0
C  C94  1  0.20114650  0.22649424  0.37133184  1  0.007867  0  -0.087153  -0.134876  0  3.96605  0
C  C95  1  0.29921743  0.02053398  0.38087566  1  0.038471  0  -0.090287  -0.138354  0  3.978803  0
C  C96  1  0.17450656  0.23859706  0.41534226  1  -0.108724  0  -0.024906  -0.116932  0  3.990524  0
C  C97  1  0.32591445  0.00847610  0.33685114  1  -0.146096  0  -0.026101  -0.120558  0  3.997094  0
C  C98  1  0.25380472  0.09987473  0.39351870  1  -0.138052  0  -0.023142  -0.009312  0  4.070429  0
C  C99  1  0.24660187  0.14715143  0.35873339  1  -0.192369  0  -0.021509  -0.00668  0  4.066409  0
C  C100  1  0.69550666  0.34661313  0.65300369  1  -0.023535  0  -0.011362  -0.058675  0  3.982714  0
C  C101  1  0.81052781  0.39748751  0.59740081  1  -0.011532  0  -0.015226  -0.13972  0  3.918048  0
C  C102  1  0.66595684  0.41833426  0.63609924  1  -0.000133  0  -0.005588  0.055081  0  3.890303  0
C  C103  1  0.84028339  0.32424255  0.61484591  1  0.026291  0  0.023206  0.140274  0  3.996599  0
C  C104  1  0.72195013  0.44203487  0.60939061  1  0.033355  0  -0.000271  0.078242  0  3.884318  0
C  C105  1  0.78425439  0.30025624  0.64156711  1  0.029004  0  -0.089668  -0.171872  0  3.96256  0
C  C106  1  0.58754291  0.49229033  0.63435080  1  -0.04337  0  -0.149632  -0.198439  0  3.88614  0
C  C107  1  0.65086139  0.51934147  0.60412477  1  -0.014334  0  -0.149738  -0.197214  0  3.88233  0
C  C108  1  0.30598043  0.65272817  0.34787874  1  0.03539  0  -0.010741  -0.057525  0  3.98191  0
C  C109  1  0.19404191  0.59597803  0.40036835  1  0.018763  0  -0.014912  -0.136996  0  3.921167  0
C  C110  1  0.27987117  0.66368122  0.39223727  1  -0.056821  0  -0.005719  0.055176  0  3.888442  0
C  C111  1  0.22033969  0.58562691  0.35498583  1  0.024882  0  0.023475  0.14008  0  4.002344  0
C  C112  1  0.22601078  0.63603609  0.41709967  1  0.006301  0  -0.000651  0.075746  0  3.887723  0
C  C113  1  0.27458487  0.61305027  0.32998928  1  0.051399  0  -0.088988  -0.170902  0  3.956646  0
C  C114  1  0.28574270  0.69783794  0.43044008  1  -0.013012  0  -0.150401  -0.198093  0  3.885133  0
C  C115  1  0.22485419  0.66639288  0.45868728  1  -0.022847  0  -0.149749  -0.198856  0  3.877352  0
C  C116  1  0.69420550  0.65313013  0.34747580  1  -0.026978  0  -0.010155  -0.057828  0  3.983965  0
C  C117  1  0.80877044  0.59560012  0.40090549  1  0.063574  0  -0.0141  -0.138279  0  3.919135  0
C  C118  1  0.66441799  0.66386232  0.39181538  1  0.079573  0  -0.006711  0.05502  0  3.888875  0
C  C119  1  0.83884645  0.58530738  0.35549882  1  0.033283  0  0.02386  0.140816  0  3.996472  0
C  C120  1  0.72016966  0.63593801  0.41714455  1  -0.096299  0  -0.000919  0.076557  0  3.883495  0
C  C121  1  0.78294712  0.61312736  0.33006518  1  0.005736  0  -0.089629  -0.170182  0  3.960165  0
C  C122  1  0.58577338  0.69828703  0.42957506  1  -0.011401  0  -0.14975  -0.196648  0  3.887255  0
C  C123  1  0.64877381  0.66679885  0.45839455  1  -0.017572  0  -0.15126  -0.20069  0  3.883992  0
C  C124  1  0.30566352  0.34884527  0.65260114  1  -0.070146  0  -0.010493  -0.057283  0  3.986032  0
C  C125  1  0.19601121  0.40925712  0.59680866  1  0.004679  0  -0.013719  -0.136413  0  3.915756  0
C  C126  1  0.27189159  0.30684403  0.63971041  1  0.026208  0  -0.005067  0.056648  0  3.888509  0
C  C127  1  0.23065292  0.45192542  0.61023264  1  0.036593  0  0.023339  0.140701  0  3.99839  0
C  C128  1  0.21913659  0.33657391  0.61288239  1  0.032467  0  0.000779  0.078332  0  3.878436  0
C  C129  1  0.28334050  0.42232226  0.63721980  1  0.043084  0  -0.091683  -0.17402  0  3.962895  0
C  C130  1  0.26777945  0.23168161  0.64285059  1  -0.061487  0  -0.150045  -0.198891  0  3.881665  0
C  C131  1  0.20798979  0.26513487  0.61244847  1  -0.007415  0  -0.149919  -0.198545  0  3.873462  0
C  C132  1  0.29916588  0.58119627  0.82082149  1  0.08029  0  -0.089478  -0.137363  0  3.971525  0
C  C133  1  0.20092936  0.66848292  0.92906573  1  0.079882  0  -0.089305  -0.137125  0  3.971505  0
C  C134  1  0.32698423  0.50890510  0.83645469  1  -0.242085  0  -0.024894  -0.117353  0  3.991022  0
C  C135  1  0.17250144  0.74079633  0.91345633  1  -0.213139  0  -0.024582  -0.117588  0  3.990896  0
C  C136  1  0.24699514  0.61031797  0.89540088  1  -0.195326  0  -0.021859  -0.008208  0  4.066652  0
C  C137  1  0.25320454  0.63937116  0.85448545  1  -0.193667  0  -0.021953  -0.00756  0  4.067419  0
C  C138  1  0.80492461  0.09752420  0.90296957  1  -0.010627  0  -0.010689  -0.057235  0  3.981353  0
C  C139  1  0.68878282  0.15436467  0.85034494  1  -0.061037  0  -0.014467  -0.140416  0  3.919105  0
C  C140  1  0.83385621  0.08657821  0.85862693  1  -0.040998  0  -0.004659  0.055632  0  3.891426  0
C  C141  1  0.65966073  0.16513104  0.89573329  1  0.072449  0  0.023356  0.141109  0  3.998315  0
C  C142  1  0.77733529  0.11430782  0.83369929  1  0.055441  0  0.000171  0.078686  0  3.883824  0
C  C143  1  0.71621892  0.13765260  0.92079373  1  0.072664  0  -0.089546  -0.171772  0  3.957559  0
C  C144  1  0.91188129  0.05243807  0.82054085  1  -0.03131  0  -0.150416  -0.199821  0  3.886967  0
C  C145  1  0.84802179  0.08388091  0.79219362  1  0.009268  0  -0.149736  -0.198111  0  3.880486  0
C  C146  1  0.19500157  0.09682446  0.90242355  1  0.013944  0  -0.010493  -0.057813  0  3.985609  0
C  C147  1  0.30416632  0.15056468  0.84424216  1  0.0145  0  -0.014366  -0.137062  0  3.920341  0
C  C148  1  0.22850567  0.13744929  0.91697435  1  -0.035765  0  -0.006005  0.05441  0  3.892273  0
C  C149  1  0.26954058  0.10909914  0.82959170  1  0.042501  0  0.022381  0.138053  0  4.00227  0
C  C150  1  0.28095639  0.16298973  0.88862882  1  0.034755  0  0.000621  0.079157  0  3.88191  0
C  C151  1  0.21706397  0.08331913  0.85795662  1  -0.008106  0  -0.089685  -0.170882  0  3.961485  0
C  C152  1  0.23263719  0.17058603  0.95608176  1  0.019031  0  -0.150314  -0.198871  0  3.885569  0
C  C153  1  0.29216438  0.19957198  0.92402016  1  0.010943  0  -0.149302  -0.197994  0  3.873634  0
C  C154  1  0.64527318  0.44831092  0.14950171  1  0.074138  0  -0.088536  -0.134927  0  3.968011  0
C  C155  1  0.86094635  0.30183805  0.10050249  1  0.018436  0  -0.090102  -0.137464  0  3.973803  0
C  C156  1  0.67647351  0.49101555  0.16358088  1  -0.161664  0  -0.023877  -0.116716  0  3.987805  0
C  C157  1  0.82952207  0.25928463  0.08643414  1  -0.18828  0  -0.026264  -0.121294  0  3.995564  0
C  C158  1  0.79398850  0.37077302  0.12341975  1  -0.198956  0  -0.021973  -0.009135  0  4.066894  0
C  C159  1  0.71231885  0.37954272  0.12649026  1  -0.150702  0  -0.020927  -0.007856  0  4.066621  0
C  C160  1  0.19495441  0.90272311  0.09695100  1  -0.022378  0  -0.01151  -0.057831  0  3.985766  0
C  C161  1  0.30448394  0.84236812  0.15274868  1  0.012535  0  -0.013947  -0.136108  0  3.916958  0
C  C162  1  0.22844369  0.94489438  0.10996612  1  -0.012079  0  -0.005246  0.055716  0  3.889018  0
C  C163  1  0.26975736  0.79970520  0.13940058  1  0.057782  0  0.024304  0.142059  0  3.999309  0
C  C164  1  0.28102515  0.91519564  0.13686258  1  -0.003135  0  0.000503  0.078017  0  3.882951  0
C  C165  1  0.21706658  0.82935682  0.11243076  1  0.044177  0  -0.091165  -0.175518  0  3.963781  0
C  C166  1  0.23228327  0.02020553  0.10707461  1  -0.002954  0  -0.150689  -0.198096  0  3.886361  0
C  C167  1  0.29191018  0.98669931  0.13755311  1  -0.033494  0  -0.149914  -0.199209  0  3.874969  0
C  C168  1  0.80504551  0.90303265  0.09724073  1  -0.01677  0  -0.011101  -0.060346  0  3.984752  0
C  C169  1  0.68871228  0.85274367  0.15197090  1  0.013106  0  -0.014288  -0.137425  0  3.917082  0
C  C170  1  0.83387865  0.83110793  0.11391799  1  -0.031794  0  -0.004457  0.057514  0  3.890398  0
C  C171  1  0.65970503  0.92614424  0.13469721  1  0.049471  0  0.023426  0.139912  0  3.997822  0
C  C172  1  0.77724916  0.80769694  0.14027487  1  -0.009745  0  -0.000972  0.074933  0  3.884557  0
C  C173  1  0.71635563  0.94990587  0.10843750  1  0.053647  0  -0.089371  -0.170348  0  3.957292  0
C  C174  1  0.91182167  0.75696174  0.11595885  1  -0.020353  0  -0.149926  -0.199401  0  3.887913  0
C  C175  1  0.84784307  0.73031790  0.14588314  1  -0.012598  0  -0.149424  -0.197786  0  3.877992  0
S  S176  1  0.87948835  0.80114568  0.59983813  1  0.261595  0  0.081623  0.120197  0  2.73828  0
S  S177  1  0.61966029  0.94841158  0.64956840  1  0.269236  0  0.081086  0.119463  0  2.734795  0
S  S178  1  0.20428703  0.15417394  0.44163524  1  0.263087  0  0.07998  0.116331  0  2.730109  0
S  S179  1  0.29616197  0.09296230  0.31061875  1  0.262199  0  0.083842  0.122708  0  2.73086  0
S  S180  1  0.29789482  0.51107239  0.89185702  1  0.328251  0  0.083244  0.12125  0  2.730948  0
S  S181  1  0.20165667  0.73860834  0.85803830  1  0.324495  0  0.080973  0.118458  0  2.731326  0
S  S182  1  0.78700474  0.44810436  0.14899998  1  0.246324  0  0.079688  0.116769  0  2.7265  0
S  S183  1  0.71904172  0.30243277  0.10090964  1  0.282185  0  0.085567  0.125875  0  2.729807  0
Cl  Cl184  1  0.94718437  0.25862100  0.60488779  1  -0.196303  0  -0.022551  -0.08471  0  1.483739  0
Cl  Cl185  1  0.18661463  0.54040290  0.32685301  1  -0.187079  0  -0.020258  -0.079887  0  1.489907  0
Cl  Cl186  1  0.94575705  0.53903143  0.32769929  1  -0.18546  0  -0.019921  -0.079443  0  1.491421  0
Cl  Cl187  1  0.21137762  0.54325631  0.59450151  1  -0.191846  0  -0.02463  -0.087521  0  1.481518  0
Cl  Cl188  1  0.55290054  0.21245357  0.92388672  1  -0.194806  0  -0.02148  -0.08365  0  1.481726  0
Cl  Cl189  1  0.28799303  0.08766606  0.77604380  1  -0.190051  0  -0.021996  -0.0836  0  1.482788  0
Cl  Cl190  1  0.28801000  0.70891785  0.15557066  1  -0.191817  0  -0.021524  -0.081249  0  1.477658  0
Cl  Cl191  1  0.55299586  0.99213648  0.14439224  1  -0.182015  0  -0.021198  -0.083144  0  1.481909  0
O  O192  1  0.99822625  0.50065865  0.50078114  1  -1.226205  0  -0.571329  -1.028407  0  2.52777  0
O  O193  1  0.82340447  0.58483514  0.47054479  1  -1.155066  0  -0.310346  -0.540682  0  2.314575  0
O  O194  1  0.10345409  0.37280264  0.41847008  1  -1.172637  0  -0.315316  -0.534557  0  2.324245  0
O  O195  1  0.94496148  0.38707401  0.55894415  1  -1.180896  0  -0.314205  -0.546497  0  2.4256  0
O  O196  1  0.94279138  0.52763834  0.41488642  1  -1.16499  0  -0.315011  -0.546094  0  2.431733  0
O  O197  1  0.82465468  0.49578930  0.55641550  1  -1.164997  0  -0.310748  -0.541792  0  2.316089  0
O  O198  1  0.10890575  0.31257175  0.48062652  1  -1.180821  0  -0.320108  -0.548437  0  2.33139  0
O  O199  1  0.11697835  0.38668725  0.55980687  1  -1.157452  0  -0.30872  -0.534687  0  2.326659  0
O  O200  1  0.95466667  0.65709603  0.55013527  1  -1.153346  0  -0.319948  -0.545587  0  2.341986  0
O  O201  1  0.11802754  0.50192002  0.55431802  1  -1.176814  0  -0.31481  -0.549242  0  2.41801  0
O  O202  1  0.83179986  0.65429957  0.55184385  1  -1.164571  0  -0.317704  -0.541088  0  2.306805  0
O  O203  1  0.11843216  0.52351739  0.41436518  1  -1.161168  0  -0.314253  -0.546835  0  2.425055  0
O  O204  1  0.11386126  0.59119442  0.46929350  1  -1.165248  0  -0.308898  -0.537001  0  2.32015  0
O  O205  1  0.50086198  0.24965672  0.74988893  1  -1.226219  0  -0.571361  -1.028307  0  2.534176  0
O  O206  1  0.67319318  0.25187871  0.69494606  1  -1.176307  0  -0.31385  -0.544393  0  2.334165  0
O  O207  1  0.39794828  0.43626088  0.77079589  1  -1.143918  0  -0.316985  -0.538011  0  2.317448  0
O  O208  1  0.55394739  0.21874830  0.83650432  1  -1.159806  0  -0.313696  -0.547107  0  2.419911  0
O  O209  1  0.55857630  0.36522139  0.69052995  1  -1.149651  0  -0.308644  -0.535031  0  2.322739  0
O  O210  1  0.67405726  0.16455794  0.78093551  1  -1.15654  0  -0.309997  -0.539458  0  2.323301  0
O  O211  1  0.39241959  0.37441365  0.83248693  1  -1.175674  0  -0.31943  -0.545364  0  2.335516  0
O  O212  1  0.38094426  0.21964891  0.83672475  1  -1.166489  0  -0.308316  -0.536137  0  2.32724  0
O  O213  1  0.54465621  0.09542008  0.69657544  1  -1.15729  0  -0.319119  -0.544419  0  2.344829  0
O  O214  1  0.38562789  0.16400992  0.77685681  1  -1.162202  0  -0.314284  -0.545923  0  2.426945  0
O  O215  1  0.66759003  0.09336360  0.69934182  1  -1.172177  0  -0.317697  -0.539851  0  2.307856  0
O  O216  1  0.38777863  0.36436638  0.69109204  1  -1.173615  0  -0.314743  -0.543581  0  2.340597  0
O  O217  1  0.38224223  0.25099642  0.69210528  1  -1.165003  0  -0.30693  -0.53194  0  2.323948  0
O  O218  1  0.50044829  0.75042301  0.25022730  1  -1.228308  0  -0.571465  -1.028082  0  2.531778  0
O  O219  1  0.38697394  0.71855595  0.33841908  1  -1.149598  0  -0.309209  -0.536918  0  2.321613  0
O  O220  1  0.54522814  0.59259312  0.19928017  1  -1.148898  0  -0.316016  -0.536145  0  2.316729  0
O  O221  1  0.67237722  0.66902527  0.27902301  1  -1.158104  0  -0.313593  -0.543127  0  2.335315  0
O  O222  1  0.38382965  0.66527611  0.27971373  1  -1.179536  0  -0.313304  -0.541879  0  2.340656  0
O  O223  1  0.55742686  0.71788247  0.33789201  1  -1.165551  0  -0.310112  -0.537198  0  2.325597  0
O  O224  1  0.66738479  0.59674997  0.19737669  1  -1.175274  0  -0.320832  -0.549865  0  2.330436  0
O  O225  1  0.67388684  0.75438686  0.19230201  1  -1.168073  0  -0.309921  -0.539446  0  2.322859  0
O  O226  1  0.39209323  0.93594515  0.27130501  1  -1.180298  0  -0.319882  -0.546164  0  2.334003  0
O  O227  1  0.55370702  0.86381417  0.19056988  1  -1.176228  0  -0.315037  -0.549617  0  2.420819  0
O  O228  1  0.39660102  0.87393226  0.33300356  1  -1.17023  0  -0.318593  -0.540771  0  2.321407  0
O  O229  1  0.38828797  0.74716927  0.19203371  1  -1.173945  0  -0.313809  -0.547003  0  2.421666  0
O  O230  1  0.37970700  0.86610164  0.19192295  1  -1.157684  0  -0.30798  -0.535396  0  2.323622  0
O  O231  1  0.00072770  0.00003930  0.99991004  1  -1.22836  0  -0.571674  -1.028766  0  2.534773  0
O  O232  1  0.11238780  0.88696134  0.05891710  1  -1.173655  0  -0.314315  -0.542469  0  2.341587  0
O  O233  1  0.96014335  0.15540492  0.05167074  1  -1.173536  0  -0.317859  -0.540821  0  2.31786  0
O  O234  1  0.82796731  0.99869074  0.05681295  1  -1.17455  0  -0.314129  -0.542526  0  2.337169  0
O  O235  1  0.12019866  0.99943473  0.05635742  1  -1.165862  0  -0.30909  -0.534952  0  2.324802  0
O  O236  1  0.94232167  0.88387567  0.05936956  1  -1.157718  0  -0.309239  -0.537461  0  2.320309  0
O  O237  1  0.83650988  0.15558464  0.05199222  1  -1.169235  0  -0.320635  -0.547837  0  2.334848  0
O  O238  1  0.82784748  0.08453795  0.97105969  1  -1.16388  0  -0.312653  -0.54077  0  2.339801  0
O  O239  1  0.10261500  0.87534241  0.91729653  1  -1.172502  0  -0.320677  -0.548435  0  2.333911  0
O  O240  1  0.94220921  0.03135897  0.91225149  1  -1.161922  0  -0.309198  -0.537126  0  2.319172  0
O  O241  1  0.10282024  0.81360600  0.97911239  1  -1.154109  0  -0.31686  -0.539215  0  2.316133  0
O  O242  1  0.12008518  0.08470551  0.97118687  1  -1.157919  0  -0.308429  -0.535542  0  2.323775  0
O  O243  1  0.11267747  0.03166719  0.91372536  1  -1.169705  0  -0.314792  -0.543688  0  2.340259  0
