# generated using pymatgen
data_CuH9C9BrN3
_symmetry_space_group_name_H-M   'P 1'
_cell_length_a   4.02123925
_cell_length_b   13.66839257
_cell_length_c   17.19189659
_cell_angle_alpha   90.00012128
_cell_angle_beta   90.72961139
_cell_angle_gamma   89.99976373
_symmetry_Int_Tables_number   1
_chemical_formula_structural   CuH9C9BrN3
_chemical_formula_sum   'Cu4 H36 C36 Br4 N12'
_cell_volume   944.85667042
_cell_formula_units_Z   4
loop_
 _symmetry_equiv_pos_site_id
 _symmetry_equiv_pos_as_xyz
  1  'x, y, z'
loop_
 _atom_site_type_symbol
 _atom_site_label
 _atom_site_symmetry_multiplicity
 _atom_site_fract_x
 _atom_site_fract_y
 _atom_site_fract_z
 _atom_site_occupancy
 _atom_site_hle17_bader_spin_density
 _atom_site_hle17_ddec_charge
 _atom_site_hle17_ddec_spin_density
 _atom_site_hle17_ddec_sum_bond_order
 _atom_site_hle17_magmom
 _atom_site_hse06_10hf_bader_spin_density
 _atom_site_hse06_10hf_ddec_charge
 _atom_site_hse06_10hf_ddec_spin_density
 _atom_site_hse06_10hf_ddec_sum_bond_order
 _atom_site_hse06_10hf_magmom
 _atom_site_hse06_bader_spin_density
 _atom_site_hse06_ddec_charge
 _atom_site_hse06_ddec_spin_density
 _atom_site_hse06_ddec_sum_bond_order
 _atom_site_hse06_magmom
 _atom_site_pbe_bader_spin_density
 _atom_site_pbe_cm5_charge
 _atom_site_pbe_ddec_charge
 _atom_site_pbe_ddec_spin_density
 _atom_site_pbe_ddec_sum_bond_order
 _atom_site_pbe_magmom
Cu  Cu0  1  0.35515340  0.94192017  0.41730377  1  0  0.396647  0  1.984975  0  0  0.27779  0  2.508285  0  0  0.275293  0  2.460994  0  0  0.417771  0.2821  0  2.538935  0
Cu  Cu1  1  0.64484083  0.44191781  0.08269596  1  0  0.396701  0  1.984942  0  0  0.277847  0  2.508244  0  0  0.275373  0  2.460965  0  0  0.417783  0.282152  0  2.538903  0
Cu  Cu2  1  0.64482484  0.05808621  0.58270315  1  0  0.3967  0  1.984912  0  0  0.277801  0  2.508243  0  0  0.275335  0  2.460962  0  0  0.417787  0.282109  0  2.538994  0
Cu  Cu3  1  0.35515707  0.55808492  0.91729994  1  0  0.396695  0  1.98488  0  0  0.277835  0  2.508212  0  0  0.275288  0  2.460892  0  0  0.417791  0.282113  0  2.53894  0
H  H4  1  0.38221316  0.67145861  0.72099929  1  0  0.116333  0  0.97085  0  0  0.122652  0  1.037305  0  0  0.126264  0  1.035992  0  0  0.095731  0.119868  0  1.03865  0
H  H5  1  0.61778955  0.17145900  0.77900287  1  0  0.11632  0  0.970928  0  0  0.122604  0  1.037435  0  0  0.126218  0  1.036118  0  0  0.095708  0.119821  0  1.038777  0
H  H6  1  0.61777987  0.32854118  0.27900126  1  0  0.116345  0  0.970843  0  0  0.122639  0  1.037335  0  0  0.126252  0  1.03602  0  0  0.09572  0.119849  0  1.038674  0
H  H7  1  0.38219863  0.82853640  0.22100349  1  0  0.116331  0  0.970744  0  0  0.122663  0  1.037182  0  0  0.126277  0  1.035867  0  0  0.0957  0.119875  0  1.038523  0
H  H8  1  0.92739793  0.92515377  0.69778428  1  0  0.084519  0  0.965656  0  0  0.091817  0  1.043947  0  0  0.093776  0  1.041922  0  0  0.105534  0.09023  0  1.045538  0
H  H9  1  0.07262351  0.42515782  0.80221077  1  0  0.084614  0  0.965579  0  0  0.091832  0  1.043884  0  0  0.09379  0  1.041857  0  0  0.105517  0.090244  0  1.045476  0
H  H10  1  0.07263976  0.07484164  0.30221169  1  0  0.084709  0  0.965499  0  0  0.091901  0  1.043824  0  0  0.09386  0  1.041798  0  0  0.105519  0.090312  0  1.045415  0
H  H11  1  0.92738185  0.57484051  0.19778514  1  0  0.08466  0  0.96553  0  0  0.091896  0  1.043874  0  0  0.093857  0  1.041845  0  0  0.105512  0.090305  0  1.045464  0
H  H12  1  0.84510762  0.80433425  0.73304277  1  0  0.090436  0  0.938492  0  0  0.102933  0  1.004965  0  0  0.103775  0  1.00544  0  0  0.109962  0.102254  0  1.004717  0
H  H13  1  0.15490806  0.30433664  0.76695382  1  0  0.090409  0  0.93858  0  0  0.102906  0  1.004953  0  0  0.103737  0  1.005428  0  0  0.109956  0.102226  0  1.004705  0
H  H14  1  0.15491770  0.19565897  0.26695609  1  0  0.090467  0  0.938578  0  0  0.102967  0  1.004927  0  0  0.103797  0  1.005401  0  0  0.109988  0.102286  0  1.004676  0
H  H15  1  0.84508495  0.69565804  0.23304615  1  0  0.090468  0  0.938498  0  0  0.102997  0  1.00489  0  0  0.103831  0  1.00536  0  0  0.110002  0.102317  0  1.004641  0
H  H16  1  0.03675693  0.54890592  0.65060825  1  0  0.088522  0  0.968821  0  0  0.10086  0  1.028837  0  0  0.103247  0  1.028421  0  0  0.098026  0.099109  0  1.02919  0
H  H17  1  0.96322510  0.04890241  0.84939483  1  0  0.088571  0  0.968767  0  0  0.100888  0  1.028807  0  0  0.103276  0  1.028389  0  0  0.098017  0.099138  0  1.02916  0
H  H18  1  0.96321374  0.45110047  0.34939342  1  0  0.088565  0  0.968757  0  0  0.10086  0  1.028826  0  0  0.103247  0  1.028411  0  0  0.097985  0.099107  0  1.02918  0
H  H19  1  0.03676311  0.95109665  0.15061328  1  0  0.088524  0  0.968832  0  0  0.100834  0  1.028877  0  0  0.103219  0  1.028461  0  0  0.097982  0.099085  0  1.029211  0
H  H20  1  0.98001929  0.73272624  0.44509877  1  0  0.107841  0  0.984949  0  0  0.116541  0  1.0498  0  0  0.11993  0  1.0477  0  0  0.096587  0.114008  0  1.05147  0
H  H21  1  0.01998529  0.23272969  0.05490121  1  0  0.107816  0  0.98502  0  0  0.116513  0  1.049893  0  0  0.119901  0  1.047794  0  0  0.096586  0.113984  0  1.051555  0
H  H22  1  0.01997125  0.26727795  0.55490177  1  0  0.10775  0  0.985055  0  0  0.116513  0  1.049845  0  0  0.119902  0  1.047745  0  0  0.096575  0.113987  0  1.051515  0
H  H23  1  0.98002512  0.76728034  0.94509821  1  0  0.107815  0  0.984971  0  0  0.116541  0  1.0498  0  0  0.11993  0  1.047703  0  0  0.096595  0.114014  0  1.051468  0
H  H24  1  0.83494021  0.57786988  0.51585347  1  0  0.086648  0  0.953448  0  0  0.100767  0  1.010365  0  0  0.103403  0  1.009761  0  0  0.098409  0.098848  0  1.010966  0
H  H25  1  0.16505133  0.07786845  0.98414793  1  0  0.086628  0  0.953507  0  0  0.100761  0  1.010404  0  0  0.1034  0  1.009799  0  0  0.098401  0.098842  0  1.011007  0
H  H26  1  0.16503293  0.42213504  0.48414762  1  0  0.086603  0  0.95361  0  0  0.100766  0  1.010483  0  0  0.103403  0  1.009877  0  0  0.098422  0.098848  0  1.011086  0
H  H27  1  0.83496171  0.92213501  0.01585847  1  0  0.086635  0  0.953561  0  0  0.100763  0  1.010459  0  0  0.103397  0  1.009857  0  0  0.098401  0.098845  0  1.011061  0
H  H28  1  0.40777996  0.98772334  0.76146296  1  0  0.078749  0  0.992719  0  0  0.088862  0  1.058175  0  0  0.091576  0  1.057369  0  0  0.08557  0.086849  0  1.058896  0
H  H29  1  0.59224809  0.48772293  0.73853220  1  0  0.078692  0  0.992601  0  0  0.088857  0  1.058044  0  0  0.091534  0  1.057279  0  0  0.085595  0.086842  0  1.058769  0
H  H30  1  0.59228025  0.01227865  0.23853945  1  0  0.07869  0  0.992722  0  0  0.088897  0  1.058098  0  0  0.09155  0  1.057361  0  0  0.085602  0.086882  0  1.058821  0
H  H31  1  0.40774721  0.51227101  0.26145846  1  0  0.078721  0  0.99272  0  0  0.088879  0  1.058132  0  0  0.091566  0  1.057358  0  0  0.085582  0.086864  0  1.058852  0
H  H32  1  0.56246769  0.80020023  0.85656136  1  0  0.121014  0  0.998619  0  0  0.130919  0  1.065379  0  0  0.134324  0  1.064012  0  0  0.082433  0.128379  0  1.066531  0
H  H33  1  0.43755303  0.30019536  0.64343523  1  0  0.12099  0  0.998482  0  0  0.130843  0  1.065308  0  0  0.134248  0  1.063941  0  0  0.08244  0.128303  0  1.066457  0
H  H34  1  0.43756262  0.19979664  0.14343809  1  0  0.120893  0  0.998597  0  0  0.130754  0  1.065427  0  0  0.13416  0  1.064059  0  0  0.082365  0.128211  0  1.066576  0
H  H35  1  0.56243990  0.69979419  0.35656067  1  0  0.120825  0  0.998574  0  0  0.13069  0  1.065399  0  0  0.134095  0  1.064031  0  0  0.082361  0.128149  0  1.066546  0
H  H36  1  0.31160042  0.90736592  0.88762119  1  0  0.113886  0  0.97893  0  0  0.129055  0  1.037465  0  0  0.130839  0  1.038306  0  0  0.090937  0.127835  0  1.036886  0
H  H37  1  0.68843869  0.40736139  0.61237445  1  0  0.113922  0  0.978741  0  0  0.129079  0  1.037294  0  0  0.130861  0  1.038142  0  0  0.090999  0.127861  0  1.036715  0
H  H38  1  0.68845475  0.09263608  0.11237831  1  0  0.113811  0  0.978844  0  0  0.129012  0  1.037358  0  0  0.130796  0  1.038203  0  0  0.090959  0.127791  0  1.036781  0
H  H39  1  0.31155171  0.59262670  0.38761970  1  0  0.11384  0  0.978678  0  0  0.129016  0  1.037237  0  0  0.130799  0  1.038081  0  0  0.090974  0.127796  0  1.036658  0
C  C40  1  0.29681031  0.68446889  0.66151284  1  0  -0.139054  0  3.731297  0  0  -0.156507  0  3.987882  0  0  -0.159232  0  4.005059  0  0  -0.092782  -0.154969  0  3.976711  0
C  C41  1  0.70318222  0.18446861  0.83848699  1  0  -0.13907  0  3.731256  0  0  -0.156506  0  3.987892  0  0  -0.159226  0  4.00506  0  0  -0.092805  -0.154967  0  3.976714  0
C  C42  1  0.70318522  0.31553090  0.33848829  1  0  -0.13913  0  3.731258  0  0  -0.156582  0  3.987877  0  0  -0.159303  0  4.005051  0  0  -0.092794  -0.155032  0  3.976686  0
C  C43  1  0.29680089  0.81552826  0.16151528  1  0  -0.139035  0  3.7311  0  0  -0.15651  0  3.987651  0  0  -0.159235  0  4.004827  0  0  -0.092743  -0.154963  0  3.976464  0
C  C44  1  0.37286766  0.77038453  0.62109523  1  0  0.098284  0  3.792811  0  0  0.083608  0  4.038524  0  0  0.087465  0  4.06149  0  0  0.10634  0.081164  0  4.023102  0
C  C45  1  0.62713364  0.27038444  0.87890477  1  0  0.098384  0  3.792565  0  0  0.083655  0  4.03838  0  0  0.087508  0  4.061351  0  0  0.106362  0.081212  0  4.022955  0
C  C46  1  0.62712038  0.22961527  0.37890473  1  0  0.098267  0  3.792786  0  0  0.083586  0  4.038523  0  0  0.087441  0  4.061493  0  0  0.106273  0.081143  0  4.023095  0
C  C47  1  0.37286190  0.72961389  0.12109695  1  0  0.098255  0  3.792765  0  0  0.083627  0  4.038416  0  0  0.087479  0  4.061392  0  0  0.106333  0.081183  0  4.022994  0
C  C48  1  0.73061395  0.87299342  0.71318405  1  0  -0.032818  0  3.676804  0  0  -0.092579  0  3.920267  0  0  -0.08802  0  3.929484  0  0  -0.054256  -0.09544  0  3.914098  0
C  C49  1  0.26940327  0.37299573  0.78681207  1  0  -0.03308  0  3.676869  0  0  -0.092581  0  3.920068  0  0  -0.088004  0  3.929257  0  0  -0.054208  -0.095442  0  3.913899  0
C  C50  1  0.26941140  0.12700271  0.28681597  1  0  -0.033172  0  3.677007  0  0  -0.092647  0  3.920186  0  0  -0.088067  0  3.929366  0  0  -0.05416  -0.095507  0  3.914014  0
C  C51  1  0.73059462  0.62699895  0.21318325  1  0  -0.033011  0  3.6768  0  0  -0.092688  0  3.920227  0  0  -0.088114  0  3.92942  0  0  -0.054185  -0.095549  0  3.914056  0
C  C52  1  0.10389834  0.61655827  0.62130432  1  0  -0.052632  0  3.756314  0  0  -0.072298  0  4.012785  0  0  -0.071327  0  4.031718  0  0  -0.089601  -0.072846  0  4.000054  0
C  C53  1  0.89609764  0.11655639  0.87869657  1  0  -0.052628  0  3.756078  0  0  -0.072273  0  4.012531  0  0  -0.071301  0  4.031461  0  0  -0.089545  -0.072824  0  3.9998  0
C  C54  1  0.89608972  0.38344592  0.37869680  1  0  -0.052608  0  3.756041  0  0  -0.07223  0  4.012503  0  0  -0.071263  0  4.031439  0  0  -0.089524  -0.072782  0  3.999762  0
C  C55  1  0.10389794  0.88344487  0.12130689  1  0  -0.052671  0  3.756157  0  0  -0.07232  0  4.012621  0  0  -0.07135  0  4.031557  0  0  -0.089579  -0.072862  0  3.999878  0
C  C56  1  0.06777099  0.71799142  0.50407026  1  0  -0.116637  0  3.719086  0  0  -0.135555  0  3.964939  0  0  -0.135618  0  3.984462  0  0  -0.087869  -0.135619  0  3.952142  0
C  C57  1  0.93222358  0.21798981  0.99593022  1  0  -0.116706  0  3.719137  0  0  -0.135658  0  3.965033  0  0  -0.135722  0  3.984561  0  0  -0.087916  -0.135723  0  3.952236  0
C  C58  1  0.93221458  0.28201496  0.49593027  1  0  -0.11655  0  3.71905  0  0  -0.135575  0  3.964964  0  0  -0.135637  0  3.984482  0  0  -0.087825  -0.135649  0  3.95217  0
C  C59  1  0.06777692  0.78201365  0.00407093  1  0  -0.116585  0  3.719085  0  0  -0.135594  0  3.965023  0  0  -0.135645  0  3.984511  0  0  -0.087849  -0.135666  0  3.952232  0
C  C60  1  0.26219508  0.78738503  0.54393600  1  0  0.117925  0  3.813024  0  0  0.11575  0  4.063579  0  0  0.113597  0  4.086736  0  0  0.092523  0.116984  0  4.048382  0
C  C61  1  0.73780600  0.28738794  0.95606460  1  0  0.118031  0  3.812857  0  0  0.115897  0  4.063413  0  0  0.113747  0  4.086571  0  0  0.092642  0.11713  0  4.048219  0
C  C62  1  0.73779550  0.21261623  0.45606629  1  0  0.11785  0  3.812946  0  0  0.115706  0  4.063503  0  0  0.113554  0  4.086665  0  0  0.09253  0.116943  0  4.048305  0
C  C63  1  0.26219696  0.71261478  0.04393538  1  0  0.11782  0  3.81298  0  0  0.115678  0  4.063525  0  0  0.113524  0  4.086687  0  0  0.092522  0.116914  0  4.048329  0
C  C64  1  0.99110530  0.63294726  0.54406018  1  0  -0.08314  0  3.776603  0  0  -0.098834  0  4.030726  0  0  -0.10199  0  4.051526  0  0  -0.09574  -0.096783  0  4.016778  0
C  C65  1  0.00889545  0.13294521  0.95594191  1  0  -0.083133  0  3.77656  0  0  -0.098821  0  4.030664  0  0  -0.101981  0  4.051468  0  0  -0.095732  -0.096771  0  4.016717  0
C  C66  1  0.00887535  0.36706059  0.45594326  1  0  -0.083117  0  3.776472  0  0  -0.098836  0  4.030613  0  0  -0.101992  0  4.051416  0  0  -0.095791  -0.096783  0  4.016659  0
C  C67  1  0.99112248  0.86705605  0.04406043  1  0  -0.083104  0  3.776686  0  0  -0.098787  0  4.0308  0  0  -0.10194  0  4.051609  0  0  -0.095738  -0.096734  0  4.016846  0
C  C68  1  0.51487536  0.91607039  0.77494419  1  0  -0.04039  0  3.759827  0  0  -0.044517  0  4.007854  0  0  -0.047494  0  4.029897  0  0  -0.101856  -0.042545  0  3.993004  0
C  C69  1  0.48513611  0.41606642  0.72504327  1  0  -0.04021  0  3.76002  0  0  -0.044485  0  4.008071  0  0  -0.047433  0  4.030126  0  0  -0.101914  -0.042511  0  3.993219  0
C  C70  1  0.48514988  0.08393013  0.22505060  1  0  -0.040227  0  3.760004  0  0  -0.044534  0  4.008065  0  0  -0.047465  0  4.030126  0  0  -0.101892  -0.042566  0  3.993216  0
C  C71  1  0.51485425  0.58392680  0.27494855  1  0  -0.040388  0  3.760182  0  0  -0.044575  0  4.008222  0  0  -0.047533  0  4.030278  0  0  -0.101943  -0.042607  0  3.993368  0
C  C72  1  0.46124097  0.87249114  0.84306515  1  0  -0.255947  0  3.624161  0  0  -0.293038  0  3.852942  0  0  -0.297775  0  3.870842  0  0  -0.178473  -0.289646  0  3.840797  0
C  C73  1  0.53878128  0.37249277  0.65693389  1  0  -0.255984  0  3.624307  0  0  -0.293013  0  3.853233  0  0  -0.297744  0  3.871117  0  0  -0.178549  -0.28962  0  3.841082  0
C  C74  1  0.53876939  0.12749987  0.15693194  1  0  -0.255795  0  3.624325  0  0  -0.292881  0  3.853225  0  0  -0.29761  0  3.871095  0  0  -0.178495  -0.289492  0  3.84108  0
C  C75  1  0.46119670  0.62750044  0.34306081  1  0  -0.255698  0  3.624327  0  0  -0.292773  0  3.853234  0  0  -0.297502  0  3.871116  0  0  -0.178432  -0.289385  0  3.841083  0
Br  Br76  1  0.86135018  0.88508937  0.34378098  1  0  -0.527688  0  1.305592  0  0  -0.459812  0  1.709396  0  0  -0.475902  0  1.674681  0  0  -0.255902  -0.447888  0  1.733018  0
Br  Br77  1  0.13863000  0.38508856  0.15622270  1  0  -0.527726  0  1.305619  0  0  -0.459827  0  1.709377  0  0  -0.475934  0  1.674683  0  0  -0.255909  -0.447901  0  1.733001  0
Br  Br78  1  0.13863563  0.11491408  0.65623119  1  0  -0.527714  0  1.305611  0  0  -0.459795  0  1.709361  0  0  -0.475909  0  1.67467  0  0  -0.255898  -0.447869  0  1.733043  0
Br  Br79  1  0.86136039  0.61491416  0.84377086  1  0  -0.527729  0  1.305595  0  0  -0.459829  0  1.709369  0  0  -0.475901  0  1.674635  0  0  -0.255899  -0.447885  0  1.733033  0
N  N80  1  0.38074866  0.87717749  0.52107512  1  0  -0.208031  0  3.247356  0  0  -0.170256  0  3.584263  0  0  -0.168032  0  3.57843  0  0  -0.250371  -0.172443  0  3.588818  0
N  N81  1  0.61924619  0.37717841  0.97892446  1  0  -0.20806  0  3.247427  0  0  -0.170313  0  3.58434  0  0  -0.168095  0  3.578511  0  0  -0.250409  -0.172498  0  3.588895  0
N  N82  1  0.61923947  0.12282523  0.47892891  1  0  -0.208088  0  3.247289  0  0  -0.17031  0  3.584191  0  0  -0.168095  0  3.57837  0  0  -0.250422  -0.172508  0  3.588779  0
N  N83  1  0.38075175  0.62282358  0.02107319  1  0  -0.207956  0  3.247336  0  0  -0.170227  0  3.584283  0  0  -0.167991  0  3.578424  0  0  -0.250406  -0.172417  0  3.588858  0
N  N84  1  0.55400454  0.91560919  0.57962095  1  0  -0.056735  0  3.162407  0  0  -0.031795  0  3.495587  0  0  -0.020448  0  3.487941  0  0  -0.142049  -0.040399  0  3.501474  0
N  N85  1  0.44599970  0.41560944  0.92037755  1  0  -0.056785  0  3.162515  0  0  -0.031815  0  3.495706  0  0  -0.020445  0  3.488014  0  0  -0.142063  -0.04041  0  3.501574  0
N  N86  1  0.44598106  0.08439646  0.42038133  1  0  -0.056627  0  3.162288  0  0  -0.031703  0  3.495502  0  0  -0.020351  0  3.487846  0  0  -0.141998  -0.040294  0  3.501339  0
N  N87  1  0.55400819  0.58439328  0.07962012  1  0  -0.056806  0  3.162472  0  0  -0.031862  0  3.495692  0  0  -0.020517  0  3.488042  0  0  -0.142037  -0.040451  0  3.50153  0
N  N88  1  0.55241607  0.85184903  0.64045501  1  0  0.012273  0  3.46393  0  0  0.093659  0  3.683403  0  0  0.082363  0  3.70679  0  0  -0.130917  0.100972  0  3.667881  0
N  N89  1  0.44759651  0.35185058  0.85954339  1  0  0.012339  0  3.463905  0  0  0.093638  0  3.683391  0  0  0.08234  0  3.706774  0  0  -0.130949  0.100949  0  3.667868  0
N  N90  1  0.44758692  0.14815149  0.35954614  1  0  0.012364  0  3.464104  0  0  0.093677  0  3.683556  0  0  0.082384  0  3.706939  0  0  -0.130938  0.10099  0  3.66803  0
N  N91  1  0.55240642  0.64814995  0.14045543  1  0  0.012368  0  3.46409  0  0  0.09371  0  3.683554  0  0  0.082419  0  3.706943  0  0  -0.130943  0.101026  0  3.668026  0
