# generated using pymatgen
data_Cd2H52C41(N3O4)2
_symmetry_space_group_name_H-M   'P 1'
_cell_length_a   12.42033916
_cell_length_b   12.37948549
_cell_length_c   15.25982883
_cell_angle_alpha   92.90835053
_cell_angle_beta   92.84548857
_cell_angle_gamma   98.10809249
_symmetry_Int_Tables_number   1
_chemical_formula_structural   Cd2H52C41(N3O4)2
_chemical_formula_sum   'Cd4 H104 C82 N12 O16'
_cell_volume   2316.03445449
_cell_formula_units_Z   2
loop_
 _symmetry_equiv_pos_site_id
 _symmetry_equiv_pos_as_xyz
  1  'x, y, z'
loop_
 _atom_site_type_symbol
 _atom_site_label
 _atom_site_symmetry_multiplicity
 _atom_site_fract_x
 _atom_site_fract_y
 _atom_site_fract_z
 _atom_site_occupancy
 _atom_site_pbe_bader_charge
 _atom_site_pbe_bader_spin_density
 _atom_site_pbe_cm5_charge
 _atom_site_pbe_ddec_charge
 _atom_site_pbe_ddec_spin_density
 _atom_site_pbe_ddec_sum_bond_order
 _atom_site_pbe_magmom
Cd  Cd0  1  0.51633813  0.61718981  0.42170508  1  1.256428  0  0.762648  0.90784  0  2.140927  0
Cd  Cd1  1  0.48365551  0.38280747  0.57829471  1  1.256376  0  0.762665  0.907864  0  2.140917  0
Cd  Cd2  1  0.17139402  0.80219715  0.85477288  1  1.229334  0  0.761929  0.835937  0  2.182305  0
Cd  Cd3  1  0.82860416  0.19779270  0.14522561  1  1.229469  0  0.761912  0.835926  0  2.182291  0
H  H4  1  0.08868182  0.72917329  0.34997837  1  0.042726  0  0.097619  0.137953  0  1.006399  0
H  H5  1  0.91131614  0.27082555  0.65001907  1  0.042863  0  0.097628  0.137994  0  1.006381  0
H  H6  1  0.01956989  0.77555593  0.25840031  1  0.051491  0  0.096736  0.132622  0  1.018296  0
H  H7  1  0.98043436  0.22444692  0.74159629  1  0.051542  0  0.096743  0.132661  0  1.01827  0
H  H8  1  0.99975042  0.82719654  0.36484195  1  0.040008  0  0.099479  0.140399  0  0.984257  0
H  H9  1  0.00024982  0.17280634  0.63515377  1  0.040389  0  0.099462  0.140357  0  0.984273  0
H  H10  1  0.31492803  0.99677148  0.09697824  1  0.110225  0  0.099423  0.152219  0  1.04976  0
H  H11  1  0.68507774  0.00323142  0.90302303  1  0.11019  0  0.099423  0.152208  0  1.049899  0
H  H12  1  0.37996275  0.11947429  0.15052962  1  0.03048  0  0.089917  0.121125  0  1.059003  0
H  H13  1  0.62004433  0.88052699  0.84947429  1  0.030628  0  0.089948  0.121165  0  1.05901  0
H  H14  1  0.24022355  0.10676981  0.11734436  1  0.030147  0  0.094079  0.133037  0  0.995039  0
H  H15  1  0.75978377  0.89323799  0.88265781  1  0.030109  0  0.094101  0.133086  0  0.994991  0
H  H16  1  0.45172283  0.09350177  0.46610138  1  0.077036  0  0.09029  0.125287  0  1.037362  0
H  H17  1  0.54827607  0.90650365  0.53389959  1  0.077026  0  0.090302  0.125315  0  1.037303  0
H  H18  1  0.36036139  0.01170484  0.52798227  1  0.026181  0  0.088874  0.116067  0  1.067434  0
H  H19  1  0.63964115  0.98829809  0.47201948  1  0.026104  0  0.088879  0.116069  0  1.067404  0
H  H20  1  0.33428044  0.14347450  0.50231198  1  0.066135  0  0.099249  0.146133  0  0.985697  0
H  H21  1  0.66571781  0.85652685  0.49769014  1  0.066195  0  0.099275  0.146204  0  0.985612  0
H  H22  1  0.18040733  0.89318430  0.09551229  1  0.120064  0  0.115608  0.110941  0  1.027641  0
H  H23  1  0.81960396  0.10681772  0.90448860  1  0.120285  0  0.11561  0.11096  0  1.027641  0
H  H24  1  0.10259367  0.79552894  0.15481589  1  0.02185  0  0.117579  0.100721  0  0.983083  0
H  H25  1  0.89741619  0.20446900  0.84518480  1  0.021958  0  0.117594  0.100745  0  0.983127  0
H  H26  1  0.05477294  0.08468887  0.20447312  1  0.15331  0  0.13366  0.098999  0  1.031872  0
H  H27  1  0.94522884  0.91531314  0.79551939  1  0.153332  0  0.133668  0.098981  0  1.031823  0
H  H28  1  0.79331889  0.95082951  0.02779688  1  0.132719  0  0.123241  0.122614  0  1.016165  0
H  H29  1  0.20667695  0.04914569  0.97220562  1  0.133115  0  0.123241  0.122658  0  1.016292  0
H  H30  1  0.94521547  0.80375664  0.03670159  1  0.133417  0  0.133881  0.138815  0  0.979731  0
H  H31  1  0.05480065  0.19622981  0.96330105  1  0.133404  0  0.133826  0.138776  0  0.979999  0
H  H32  1  0.39876545  0.21835830  0.26144512  1  0.090299  0  0.121686  0.108113  0  0.974344  0
H  H33  1  0.60122732  0.78164390  0.73855542  1  0.089629  0  0.121693  0.108137  0  0.974307  0
H  H34  1  0.43355282  0.20572217  0.37284865  1  0.09857  0  0.112127  0.099043  0  1.008151  0
H  H35  1  0.56644259  0.79428653  0.62715092  1  0.098727  0  0.11214  0.099086  0  1.008143  0
H  H36  1  0.51866400  0.96901620  0.34228216  1  0.139189  0  0.123485  0.130473  0  1.020304  0
H  H37  1  0.48132586  0.03098853  0.65772158  1  0.139458  0  0.123506  0.130554  0  1.020637  0
H  H38  1  0.72418259  0.98297814  0.27789691  1  0.091274  0  0.124116  0.117885  0  0.983258  0
H  H39  1  0.27581079  0.01702239  0.72210099  1  0.091439  0  0.124163  0.117985  0  0.983314  0
H  H40  1  0.58619437  0.26064885  0.20829224  1  0.141686  0  0.141936  0.114473  0  0.997796  0
H  H41  1  0.41380164  0.73935331  0.79170717  1  0.141786  0  0.141946  0.114465  0  0.997702  0
H  H42  1  0.20051142  0.94847742  0.53562578  1  0.052018  0  0.116362  0.103091  0  0.970207  0
H  H43  1  0.79948936  0.05151896  0.46437371  1  0.051998  0  0.116363  0.103097  0  0.970155  0
H  H44  1  0.10639977  0.84495160  0.47956161  1  0.107372  0  0.116244  0.10152  0  1.006249  0
H  H45  1  0.89359787  0.15505053  0.52043723  1  0.107419  0  0.116223  0.101519  0  1.00616  0
H  H46  1  0.19526642  0.74626047  0.62000952  1  0.201823  0  0.124743  0.14473  0  1.055975  0
H  H47  1  0.80473371  0.25374248  0.37999145  1  0.201886  0  0.124787  0.14481  0  1.055816  0
H  H48  1  0.36366987  0.61956353  0.60987446  1  0.141416  0  0.126404  0.127347  0  0.981011  0
H  H49  1  0.63632654  0.38044196  0.39013031  1  0.141604  0  0.126387  0.127258  0  0.980939  0
H  H50  1  0.37133614  0.81797112  0.39292697  1  0.153059  0  0.136358  0.109845  0  1.020244  0
H  H51  1  0.62865387  0.18201221  0.60706694  1  0.153106  0  0.136351  0.109797  0  1.020241  0
H  H52  1  0.57497227  0.62823006  0.12897368  1  0.044303  0  0.101133  0.091801  0  0.973894  0
H  H53  1  0.42503269  0.37177285  0.87102755  1  0.044311  0  0.101115  0.091785  0  0.973832  0
H  H54  1  0.67144633  0.79736195  0.10660454  1  0.009038  0  0.078748  0.067767  0  1.016025  0
H  H55  1  0.32855709  0.20264183  0.89339991  1  0.009034  0  0.078739  0.067748  0  1.016012  0
H  H56  1  0.60942083  0.86072211  0.19297577  1  0.04571  0  0.081306  0.077541  0  1.067069  0
H  H57  1  0.39057834  0.13928006  0.80702709  1  0.045726  0  0.081323  0.077531  0  1.067104  0
H  H58  1  0.46790337  0.90780340  0.09929654  1  0.015237  0  0.086798  0.08783  0  1.017577  0
H  H59  1  0.53210136  0.09220274  0.90070149  1  0.015233  0  0.086794  0.087767  0  1.017683  0
H  H60  1  0.56124170  0.90048701  0.01735776  1  0.022212  0  0.088352  0.096076  0  0.993916  0
H  H61  1  0.43876451  0.09951342  0.98264280  1  0.022088  0  0.088301  0.095994  0  0.99379  0
H  H62  1  0.53526180  0.74817623  0.90767652  1  -0.007196  0  0.07788  0.096473  0  1.058594  0
H  H63  1  0.46474357  0.25182911  0.09232349  1  -0.007117  0  0.077876  0.096439  0  1.058693  0
H  H64  1  0.45685761  0.62045735  0.92478635  1  0.036895  0  0.091366  0.1311  0  1.016301  0
H  H65  1  0.54314937  0.37954797  0.07521310  1  0.037083  0  0.09133  0.13104  0  1.016321  0
H  H66  1  0.57964898  0.66654470  0.98967912  1  -0.004335  0  0.089753  0.123691  0  1.013433  0
H  H67  1  0.42035627  0.33345981  0.01032021  1  -0.004584  0  0.089726  0.123625  0  1.013447  0
H  H68  1  0.29578114  0.55353107  0.04273023  1  0.061118  0  0.086869  0.129501  0  1.00244  0
H  H69  1  0.70422124  0.44647505  0.95726441  1  0.060944  0  0.086883  0.129526  0  1.002396  0
H  H70  1  0.36025245  0.51621087  0.14196752  1  0.023754  0  0.085535  0.127116  0  1.008448  0
H  H71  1  0.63974564  0.48378878  0.85802996  1  0.023755  0  0.08553  0.127116  0  1.0086  0
H  H72  1  0.43071463  0.52080842  0.04405544  1  0.042223  0  0.083784  0.111422  0  1.057659  0
H  H73  1  0.56928948  0.47919363  0.95594179  1  0.042313  0  0.083803  0.111487  0  1.057622  0
H  H74  1  0.25584683  0.72101329  0.12552930  1  0.015522  0  0.085737  0.118053  0  1.022891  0
H  H75  1  0.74415725  0.27898878  0.87446988  1  0.015496  0  0.085727  0.118071  0  1.022871  0
H  H76  1  0.36058169  0.81499685  0.18337750  1  0.026746  0  0.084895  0.121974  0  1.028288  0
H  H77  1  0.63942237  0.18500522  0.81662234  1  0.026732  0  0.08492  0.122007  0  1.028306  0
H  H78  1  0.32247796  0.68333901  0.22220493  1  0.027574  0  0.085827  0.12182  0  1.028295  0
H  H79  1  0.67752610  0.31666307  0.77779491  1  0.027609  0  0.085821  0.121828  0  1.028272  0
H  H80  1  0.82895874  0.50139528  0.52937317  1  0.038886  0  0.100131  0.088236  0  0.998908  0
H  H81  1  0.17103287  0.49860446  0.47062592  1  0.038885  0  0.100141  0.088279  0  0.998892  0
H  H82  1  0.68982001  0.47783377  0.68571189  1  0.069867  0  0.08792  0.090085  0  1.033828  0
H  H83  1  0.31017933  0.52216919  0.31428903  1  0.070042  0  0.087839  0.08988  0  1.033717  0
H  H84  1  0.76772990  0.38458189  0.63807273  1  -0.016057  0  0.077781  0.065408  0  1.044901  0
H  H85  1  0.23226345  0.61541866  0.36192649  1  -0.016142  0  0.077751  0.06534  0  1.044873  0
H  H86  1  0.90179583  0.44322917  0.75464804  1  0.016358  0  0.086271  0.086867  0  0.995223  0
H  H87  1  0.09819916  0.55676646  0.24535242  1  0.016379  0  0.086306  0.086884  0  0.995241  0
H  H88  1  0.83414503  0.55261381  0.78613252  1  0.041295  0  0.089121  0.092295  0  1.006282  0
H  H89  1  0.16585303  0.44738586  0.21386627  1  0.041256  0  0.089127  0.092308  0  1.006293  0
H  H90  1  0.97870648  0.46137209  0.58826529  1  0.002186  0  0.085148  0.113345  0  1.039924  0
H  H91  1  0.02129031  0.53862430  0.41173202  1  0.002268  0  0.085143  0.113359  0  1.039891  0
H  H92  1  0.07163640  0.48400871  0.68154848  1  0.042017  0  0.093348  0.132353  0  0.981752  0
H  H93  1  0.92835755  0.51598529  0.31845122  1  0.042051  0  0.093382  0.132383  0  0.981784  0
H  H94  1  0.08155153  0.57744536  0.59706618  1  0.034808  0  0.084811  0.112532  0  1.051408  0
H  H95  1  0.91844644  0.42254860  0.40293373  1  0.035112  0  0.084827  0.112599  0  1.051296  0
H  H96  1  0.86996036  0.79567259  0.69576412  1  0.007985  0  0.083788  0.114513  0  1.034116  0
H  H97  1  0.13003959  0.20432869  0.30423351  1  0.007986  0  0.083806  0.114525  0  1.034128  0
H  H98  1  0.75438750  0.75921781  0.62258727  1  0.022558  0  0.084521  0.117011  0  1.039406  0
H  H99  1  0.24561231  0.24078266  0.37741098  1  0.022626  0  0.084493  0.116924  0  1.039545  0
H  H100  1  0.76561069  0.68927486  0.72092950  1  0.023782  0  0.091816  0.133031  0  0.995245  0
H  H101  1  0.23438949  0.31072807  0.27906950  1  0.023856  0  0.091803  0.133026  0  0.995207  0
H  H102  1  0.97321215  0.65098897  0.50385986  1  0.006424  0  0.081387  0.111192  0  1.048499  0
H  H103  1  0.02678553  0.34900826  0.49613949  1  0.006459  0  0.08138  0.111175  0  1.048546  0
H  H104  1  0.98904416  0.77293367  0.57362698  1  0.03211  0  0.080364  0.115884  0  1.046021  0
H  H105  1  0.01095352  0.22706356  0.42637237  1  0.032036  0  0.080335  0.115872  0  1.04601  0
H  H106  1  0.87068637  0.73640443  0.49984201  1  0.058274  0  0.082559  0.124696  0  1.022647  0
H  H107  1  0.12931304  0.26359360  0.50015746  1  0.058288  0  0.082551  0.124695  0  1.022661  0
C  C108  1  0.21511519  0.93685076  0.39446675  1  0.005296  0  -0.023836  -0.052299  0  3.949708  0
C  C109  1  0.78488789  0.06315054  0.60553564  1  0.005189  0  -0.023899  -0.052451  0  3.950128  0
C  C110  1  0.15545183  0.89251954  0.31668165  1  -0.038625  0  -0.003554  0.087476  0  3.943873  0
C  C111  1  0.84454799  0.10748092  0.68331595  1  -0.03874  0  -0.00354  0.087577  0  3.944037  0
C  C112  1  0.18580068  0.93338208  0.23556790  1  0.018184  0  -0.016775  -0.038711  0  3.924482  0
C  C113  1  0.81420711  0.06661836  0.76443406  1  0.018058  0  -0.016764  -0.038755  0  3.924478  0
C  C114  1  0.27286403  0.01957294  0.23234803  1  -0.051562  0  0.000213  0.097191  0  3.933866  0
C  C115  1  0.72714079  0.98042917  0.76765448  1  -0.051502  0  0.000172  0.097097  0  3.933842  0
C  C116  1  0.32916345  0.06488148  0.31102490  1  0.000278  0  -0.018489  -0.040208  0  3.936382  0
C  C117  1  0.67083598  0.93512231  0.68897737  1  0.000108  0  -0.018455  -0.040114  0  3.936283  0
C  C118  1  0.30198436  0.02285742  0.39236259  1  -0.031696  0  -0.006478  0.080776  0  3.961871  0
C  C119  1  0.69801308  0.97714393  0.60763949  1  -0.031519  0  -0.00643  0.080868  0  3.961945  0
C  C120  1  0.06156339  0.80174388  0.32219211  1  -0.075804  0  -0.235254  -0.409839  0  3.95543  0
C  C121  1  0.93843738  0.19825738  0.67780491  1  -0.07626  0  -0.235238  -0.40989  0  3.955444  0
C  C122  1  0.30383867  0.06283119  0.14529039  1  -0.081137  0  -0.245844  -0.434019  0  3.95166  0
C  C123  1  0.69616691  0.93717093  0.85471412  1  -0.081201  0  -0.245913  -0.434078  0  3.951577  0
C  C124  1  0.36501067  0.06969620  0.47607698  1  -0.101142  0  -0.244513  -0.423161  0  3.960334  0
C  C125  1  0.63498946  0.93030677  0.52392464  1  -0.101149  0  -0.244585  -0.423323  0  3.960367  0
C  C126  1  0.12719450  0.88361460  0.15076185  1  0.315085  0  -0.050126  -0.114783  0  3.892649  0
C  C127  1  0.87281153  0.11638992  0.84923883  1  0.314688  0  -0.05015  -0.1146  0  3.892487  0
C  C128  1  0.00356723  0.02943660  0.15724908  1  0.966141  0  0.137447  0.081583  0  3.937887  0
C  C129  1  0.99643683  0.97056061  0.84275389  1  0.966567  0  0.137484  0.081814  0  3.938269  0
C  C130  1  0.87066518  0.95650885  0.06496328  1  0.377462  0  0.000364  -0.030036  0  4.013144  0
C  C131  1  0.12934380  0.04347362  0.93504278  1  0.377082  0  0.000452  -0.029903  0  4.012744  0
C  C132  1  0.94408055  0.88332214  0.06948581  1  0.329982  0  0.001288  -0.115169  0  3.923199  0
C  C133  1  0.05592663  0.11667998  0.93051944  1  0.330184  0  0.001265  -0.115045  0  3.922883  0
C  C134  1  0.41955167  0.15994029  0.30890611  1  0.268628  0  -0.047359  -0.105244  0  3.90885  0
C  C135  1  0.58044079  0.84006519  0.69109452  1  0.269276  0  -0.047355  -0.105338  0  3.908829  0
C  C136  1  0.56488550  0.03347113  0.30866616  1  0.232932  0  0.0014  -0.105738  0  3.910269  0
C  C137  1  0.43511817  0.96654404  0.69133275  1  0.232857  0  0.001411  -0.105807  0  3.909917  0
C  C138  1  0.66594094  0.04033862  0.27450270  1  0.486184  0  0.003043  -0.022832  0  4.013543  0
C  C139  1  0.33404307  0.95966451  0.72549936  1  0.485336  0  0.003008  -0.0229  0  4.013153  0
C  C140  1  0.59741059  0.18385074  0.23612018  1  0.981866  0  0.141275  0.083976  0  3.931663  0
C  C141  1  0.40258700  0.81615630  0.76387815  1  0.982045  0  0.141277  0.084089  0  3.931725  0
C  C142  1  0.19024557  0.88673019  0.48047930  1  0.257324  0  -0.045776  -0.091853  0  3.885392  0
C  C143  1  0.80975204  0.11326708  0.51952332  1  0.257311  0  -0.045784  -0.091851  0  3.885463  0
C  C144  1  0.25689874  0.74151431  0.57209868  1  0.273867  0  0.00321  -0.105143  0  3.880951  0
C  C145  1  0.74309433  0.25849039  0.42790589  1  0.274057  0  0.003166  -0.105249  0  3.881158  0
C  C146  1  0.34077084  0.68028875  0.56650606  1  0.378689  0  -5.2e-05  -0.027087  0  3.990245  0
C  C147  1  0.65923039  0.31970606  0.43349865  1  0.378332  0  2.3e-05  -0.026897  0  3.990309  0
C  C148  1  0.34814495  0.78236237  0.45385512  1  0.948265  0  0.134667  0.075094  0  3.942419  0
C  C149  1  0.65185038  0.21762996  0.54614329  1  0.947958  0  0.134727  0.075282  0  3.942119  0
C  C150  1  0.52703539  0.67639164  0.25314975  1  1.509959  0  0.191734  0.597156  0  4.146039  0
C  C151  1  0.47296279  0.32360886  0.74684972  1  1.509977  0  0.191749  0.597173  0  4.145991  0
C  C152  1  0.53321576  0.69413043  0.15566094  1  -0.005275  0  -0.086071  -0.160121  0  3.772132  0
C  C153  1  0.46678895  0.30587085  0.84434088  1  -0.005281  0  -0.085985  -0.160052  0  3.772177  0
C  C154  1  0.59263573  0.80675417  0.13354538  1  -0.030785  0  -0.17457  -0.162264  0  3.913689  0
C  C155  1  0.40736546  0.19325041  0.86645569  1  -0.03078  0  -0.174557  -0.162172  0  3.913581  0
C  C156  1  0.51705112  0.85270309  0.06644834  1  -0.003251  0  -0.169119  -0.185389  0  3.882824  0
C  C157  1  0.48295503  0.14730226  0.93355302  1  -0.003169  0  -0.169017  -0.185207  0  3.882716  0
C  C158  1  0.44296018  0.75135263  0.02445470  1  0.031999  0  -0.012592  0.022249  0  3.727639  0
C  C159  1  0.55704433  0.24864699  0.97554443  1  0.032094  0  -0.012582  0.022206  0  3.727772  0
C  C160  1  0.41740646  0.68053008  0.10637809  1  0.036238  0  -0.001381  0.202511  0  3.686227  0
C  C161  1  0.58259337  0.31947037  0.89361885  1  0.036093  0  -0.001388  0.202539  0  3.686211  0
C  C162  1  0.33793824  0.77724556  0.97778707  1  1.526351  0  0.196084  0.558147  0  4.139619  0
C  C163  1  0.66206422  0.22275654  0.02221269  1  1.526346  0  0.196042  0.558079  0  4.139646  0
C  C164  1  0.50686160  0.69216320  0.95797949  1  -0.018656  0  -0.244833  -0.39866  0  3.925504  0
C  C165  1  0.49314351  0.30784051  0.04202046  1  -0.018616  0  -0.244788  -0.398534  0  3.925578  0
C  C166  1  0.37331022  0.56074934  0.08202847  1  -0.09573  0  -0.249443  -0.422737  0  3.913214  0
C  C167  1  0.62669372  0.43925680  0.91796886  1  -0.095722  0  -0.249496  -0.422842  0  3.913202  0
C  C168  1  0.33478992  0.72874550  0.16269839  1  -0.067814  0  -0.250272  -0.421066  0  3.892223  0
C  C169  1  0.66521227  0.27125497  0.83730196  1  -0.067653  0  -0.250296  -0.421155  0  3.892322  0
C  C170  1  0.68708411  0.57335866  0.53347092  1  1.506901  0  0.199501  0.59537  0  4.138867  0
C  C171  1  0.31290920  0.42664191  0.46653026  1  1.506741  0  0.199457  0.595433  0  4.138777  0
C  C172  1  0.78834904  0.54340209  0.58072846  1  0.006814  0  -0.088015  -0.164627  0  3.78737  0
C  C173  1  0.21164591  0.45659844  0.41927084  1  0.006907  0  -0.087988  -0.164658  0  3.787491  0
C  C174  1  0.76935101  0.47085496  0.65940241  1  -0.039459  0  -0.176292  -0.17671  0  3.913458  0
C  C175  1  0.23064049  0.52914396  0.34059599  1  -0.03948  0  -0.17621  -0.17638  0  3.913222  0
C  C176  1  0.86312818  0.51052600  0.72889036  1  -0.023571  0  -0.168586  -0.19158  0  3.894496  0
C  C177  1  0.13687123  0.48947204  0.27110910  1  -0.023664  0  -0.168622  -0.1916  0  3.894856  0
C  C178  1  0.94570784  0.58994350  0.68254217  1  0.012863  0  -0.01168  0.02187  0  3.727874  0
C  C179  1  0.05429232  0.41005944  0.31745748  1  0.012829  0  -0.011667  0.021731  0  3.728133  0
C  C180  1  0.87100229  0.64493561  0.61688843  1  0.074184  0  -0.004055  0.208559  0  3.688725  0
C  C181  1  0.12899657  0.35505919  0.38311352  1  0.073857  0  -0.00408  0.208575  0  3.689069  0
C  C182  1  0.01680110  0.67417219  0.74561835  1  1.546683  0  0.191865  0.565425  0  4.139028  0
C  C183  1  0.98319747  0.32582010  0.25437958  1  1.546747  0  0.19188  0.565497  0  4.138891  0
C  C184  1  0.02406144  0.52487397  0.63415841  1  -0.057225  0  -0.240557  -0.393208  0  3.904961  0
C  C185  1  0.97593683  0.47512159  0.36583895  1  -0.057597  0  -0.240606  -0.393296  0  3.904938  0
C  C186  1  0.81142214  0.72629625  0.66766950  1  -0.060357  0  -0.246482  -0.416867  0  3.886811  0
C  C187  1  0.18857537  0.27370507  0.33232931  1  -0.060479  0  -0.246426  -0.416765  0  3.88703  0
C  C188  1  0.92997410  0.70497291  0.54404210  1  -0.092738  0  -0.255248  -0.429768  0  3.92583  0
C  C189  1  0.07002654  0.29502753  0.45595488  1  -0.092499  0  -0.255226  -0.429774  0  3.925956  0
N  N190  1  0.02751430  0.93065147  0.12853151  1  -1.227729  0  -0.238526  0.050398  0  3.763878  0
N  N191  1  0.97249272  0.06934318  0.87146565  1  -1.227805  0  -0.238481  0.049975  0  3.764048  0
N  N192  1  0.90896331  0.04717654  0.11977110  1  -1.222862  0  -0.361875  -0.294915  0  3.576907  0
N  N193  1  0.09103282  0.95281092  0.88023049  1  -1.223279  0  -0.36194  -0.295108  0  3.576858  0
N  N194  1  0.52261692  0.12545430  0.28380650  1  -1.231664  0  -0.245015  0.034527  0  3.785527  0
N  N195  1  0.47737942  0.87455034  0.71619562  1  -1.231423  0  -0.245049  0.034466  0  3.785646  0
N  N196  1  0.68451750  0.13359643  0.22883013  1  -1.204285  0  -0.355815  -0.284828  0  3.533376  0
N  N197  1  0.31547982  0.86640411  0.77117192  1  -1.204218  0  -0.355823  -0.284886  0  3.533438  0
N  N198  1  0.26278829  0.80538728  0.50020773  1  -1.213155  0  -0.241948  0.039465  0  3.754642  0
N  N199  1  0.73720909  0.19460745  0.49978759  1  -1.213126  0  -0.241959  0.039374  0  3.75457  0
N  N200  1  0.39703272  0.70672136  0.49274711  1  -1.216218  0  -0.367452  -0.316972  0  3.579159  0
N  N201  1  0.60295997  0.29327512  0.50725391  1  -1.216043  0  -0.367546  -0.317105  0  3.579036  0
O  O202  1  0.53035419  0.75642345  0.30967616  1  -1.188447  0  -0.346221  -0.582903  0  2.122984  0
O  O203  1  0.46964693  0.24357540  0.69032474  1  -1.188433  0  -0.346249  -0.58295  0  2.12289  0
O  O204  1  0.51638936  0.57672115  0.27540203  1  -1.147726  0  -0.350588  -0.567444  0  2.154847  0
O  O205  1  0.48360158  0.42327941  0.72459705  1  -1.147719  0  -0.35061  -0.567453  0  2.154901  0
O  O206  1  0.28663786  0.70265267  0.92310285  1  -1.156788  0  -0.342897  -0.550329  0  2.188774  0
O  O207  1  0.71336743  0.29734695  0.07689698  1  -1.156864  0  -0.34285  -0.550254  0  2.188739  0
O  O208  1  0.30492514  0.86862796  0.99209666  1  -1.189985  0  -0.334171  -0.575786  0  2.189136  0
O  O209  1  0.69507692  0.13137169  0.00790365  1  -1.190041  0  -0.334209  -0.575818  0  2.189125  0
O  O210  1  0.59299866  0.55375508  0.56537986  1  -1.185037  0  -0.343733  -0.58647  0  2.283636  0
O  O211  1  0.40699359  0.44624386  0.43462121  1  -1.1848  0  -0.343678  -0.586486  0  2.283676  0
O  O212  1  0.69819086  0.61900595  0.46068448  1  -1.153606  0  -0.330873  -0.546487  0  2.173532  0
O  O213  1  0.30180253  0.38099547  0.53931869  1  -1.153667  0  -0.330909  -0.546574  0  2.173413  0
O  O214  1  0.08120807  0.74902069  0.71194455  1  -1.189812  0  -0.344036  -0.575583  0  2.207425  0
O  O215  1  0.91878851  0.25097493  0.28805665  1  -1.189739  0  -0.34402  -0.575611  0  2.20742  0
O  O216  1  0.01415072  0.66625244  0.82837703  1  -1.167687  0  -0.346326  -0.557784  0  2.118601  0
O  O217  1  0.98585314  0.33373732  0.17161914  1  -1.167832  0  -0.346327  -0.557786  0  2.1185  0
