# generated using pymatgen
data_V2ZnH9C10(NO2)3
_symmetry_space_group_name_H-M   'P 1'
_cell_length_a   9.38106252
_cell_length_b   10.67857149
_cell_length_c   15.16365703
_cell_angle_alpha   105.39820623
_cell_angle_beta   104.82580053
_cell_angle_gamma   93.28959579
_symmetry_Int_Tables_number   1
_chemical_formula_structural   V2ZnH9C10(NO2)3
_chemical_formula_sum   'V8 Zn4 H36 C40 N12 O24'
_cell_volume   1402.89761547
_cell_formula_units_Z   4
loop_
 _symmetry_equiv_pos_site_id
 _symmetry_equiv_pos_as_xyz
  1  'x, y, z'
loop_
 _atom_site_type_symbol
 _atom_site_label
 _atom_site_symmetry_multiplicity
 _atom_site_fract_x
 _atom_site_fract_y
 _atom_site_fract_z
 _atom_site_occupancy
 _atom_site_hle17_bader_spin_density
 _atom_site_hle17_ddec_charge
 _atom_site_hle17_ddec_spin_density
 _atom_site_hle17_ddec_sum_bond_order
 _atom_site_hle17_magmom
 _atom_site_hse06_10hf_bader_spin_density
 _atom_site_hse06_10hf_ddec_charge
 _atom_site_hse06_10hf_ddec_spin_density
 _atom_site_hse06_10hf_ddec_sum_bond_order
 _atom_site_hse06_10hf_magmom
 _atom_site_hse06_bader_spin_density
 _atom_site_hse06_ddec_charge
 _atom_site_hse06_ddec_spin_density
 _atom_site_hse06_ddec_sum_bond_order
 _atom_site_hse06_magmom
 _atom_site_pbe_bader_spin_density
 _atom_site_pbe_cm5_charge
 _atom_site_pbe_ddec_charge
 _atom_site_pbe_ddec_spin_density
 _atom_site_pbe_ddec_sum_bond_order
 _atom_site_pbe_magmom
V  V0  1  0.33259289  0.34771541  0.70430899  1  0  1.984027  0  3.043408  0  0  2.045477  0  3.433719  0  0  2.138413  0  3.410277  0  0  1.452102  1.965815  0  3.480952  0
V  V1  1  0.66739434  0.65229070  0.29568755  1  0  1.984087  0  3.043431  0  0  2.045646  0  3.433585  0  0  2.13851  0  3.410273  0  0  1.452128  1.96605  0  3.480648  0
V  V2  1  0.14138468  0.16075859  0.79484925  1  0  1.984798  0  3.048419  0  0  2.047556  0  3.437975  0  0  2.139891  0  3.415707  0  0  1.449401  1.96775  0  3.485256  0
V  V3  1  0.85861891  0.83924645  0.20515236  1  0  1.984768  0  3.048516  0  0  2.047604  0  3.437972  0  0  2.139898  0  3.415768  0  0  1.449443  1.967873  0  3.485055  0
V  V4  1  0.90368247  0.96296152  0.57919916  1  0  1.995655  0  3.059801  0  0  2.062505  0  3.440376  0  0  2.152413  0  3.422087  0  0  1.456309  1.984787  0  3.483525  0
V  V5  1  0.09632080  0.03703469  0.42080402  1  0  1.995763  0  3.059597  0  0  2.062674  0  3.440106  0  0  2.152552  0  3.421865  0  0  1.456396  1.985074  0  3.483019  0
V  V6  1  0.41923755  0.45247443  0.08307883  1  0  1.995982  0  3.050719  0  0  2.057673  0  3.438899  0  0  2.15109  0  3.415401  0  0  1.455737  1.9813  0  3.479572  0
V  V7  1  0.58076370  0.54752966  0.91691892  1  0  1.996127  0  3.050553  0  0  2.057878  0  3.438638  0  0  2.151122  0  3.415395  0  0  1.455785  1.981394  0  3.479587  0
Zn  Zn8  1  0.23231451  0.15193139  0.01711877  1  0  1.062726  0  1.976179  0  0  0.897365  0  2.48062  0  0  0.944134  0  2.420884  0  0  0.708035  0.865371  0  2.519337  0
Zn  Zn9  1  0.76769144  0.84806776  0.98288276  1  0  1.0626  0  1.976146  0  0  0.89731  0  2.480601  0  0  0.944073  0  2.42087  0  0  0.707986  0.865315  0  2.519304  0
Zn  Zn10  1  0.33176328  0.29697242  0.48487915  1  0  1.049984  0  1.985066  0  0  0.881596  0  2.492352  0  0  0.927554  0  2.434632  0  0  0.704678  0.850395  0  2.528809  0
Zn  Zn11  1  0.66823860  0.70302872  0.51511946  1  0  1.049968  0  1.984994  0  0  0.881609  0  2.492263  0  0  0.927565  0  2.434542  0  0  0.704677  0.850411  0  2.528724  0
H  H12  1  0.43706562  0.43105527  0.26971655  1  0  0.294823  0  0.941021  0  0  0.276709  0  1.009121  0  0  0.284641  0  1.002626  0  0  0.30801  0.27129  0  1.013155  0
H  H13  1  0.56293155  0.56894393  0.73028028  1  0  0.29482  0  0.941041  0  0  0.276715  0  1.009142  0  0  0.284645  0  1.00265  0  0  0.308027  0.271298  0  1.013173  0
H  H14  1  0.09434571  0.06673763  0.23890536  1  0  0.296163  0  0.934963  0  0  0.278424  0  1.00229  0  0  0.286214  0  0.99591  0  0  0.310342  0.272979  0  1.0065  0
H  H15  1  0.90565521  0.93326448  0.76109526  1  0  0.296219  0  0.934891  0  0  0.278471  0  1.00221  0  0  0.286262  0  0.995833  0  0  0.310354  0.273028  0  1.006422  0
H  H16  1  0.23137226  0.91220861  0.26644706  1  0  0.124766  0  0.97647  0  0  0.132559  0  1.039296  0  0  0.136713  0  1.03733  0  0  0.11278  0.129889  0  1.040194  0
H  H17  1  0.76862989  0.08779447  0.73355658  1  0  0.124779  0  0.97644  0  0  0.132557  0  1.039272  0  0  0.13671  0  1.037308  0  0  0.112783  0.129888  0  1.040169  0
H  H18  1  0.00643615  0.32608234  0.98166280  1  0  0.101055  0  0.943216  0  0  0.11456  0  0.99818  0  0  0.11744  0  0.995018  0  0  0.122364  0.112259  0  1.000828  0
H  H19  1  0.99357516  0.67392268  0.01833938  1  0  0.100969  0  0.943218  0  0  0.114455  0  0.998218  0  0  0.117335  0  0.995057  0  0  0.122343  0.11215  0  1.000865  0
H  H20  1  0.39080237  0.92448235  0.98410661  1  0  0.080759  0  0.934033  0  0  0.093814  0  0.990469  0  0  0.09617  0  0.988521  0  0  0.119355  0.092155  0  0.991855  0
H  H21  1  0.60920842  0.07551970  0.01590152  1  0  0.08083  0  0.934042  0  0  0.093923  0  0.990414  0  0  0.09628  0  0.988461  0  0  0.119395  0.092259  0  0.9918  0
H  H22  1  0.27187065  0.57022031  0.25424077  1  0  0.125781  0  0.953323  0  0  0.136141  0  1.011162  0  0  0.139789  0  1.00989  0  0  0.115382  0.133628  0  1.012168  0
H  H23  1  0.72811252  0.42977404  0.74575356  1  0  0.125808  0  0.953257  0  0  0.13618  0  1.01111  0  0  0.139832  0  1.009835  0  0  0.115418  0.13367  0  1.012113  0
H  H24  1  0.57159990  0.28175188  0.21642155  1  0  0.127373  0  0.965099  0  0  0.137157  0  1.024445  0  0  0.141232  0  1.022629  0  0  0.111085  0.134497  0  1.025344  0
H  H25  1  0.42839525  0.71824145  0.78357253  1  0  0.127447  0  0.965064  0  0  0.137233  0  1.024412  0  0  0.141309  0  1.022591  0  0  0.111118  0.134574  0  1.025308  0
H  H26  1  0.18246406  0.51997184  0.54948063  1  0  0.087196  0  0.959708  0  0  0.098484  0  1.020982  0  0  0.101333  0  1.018691  0  0  0.115701  0.096402  0  1.022676  0
H  H27  1  0.81753641  0.48002735  0.45051739  1  0  0.087192  0  0.959675  0  0  0.098478  0  1.020954  0  0  0.101329  0  1.018664  0  0  0.11569  0.096389  0  1.022652  0
H  H28  1  0.84717136  0.45082048  0.07161402  1  0  0.126079  0  0.955199  0  0  0.136993  0  1.011494  0  0  0.140693  0  1.01005  0  0  0.113181  0.134169  0  1.013144  0
H  H29  1  0.15283115  0.54917771  0.92838480  1  0  0.126022  0  0.955272  0  0  0.136929  0  1.011594  0  0  0.14063  0  1.010149  0  0  0.113179  0.134107  0  1.013246  0
H  H30  1  0.96564788  0.22749008  0.27406280  1  0  0.128055  0  0.946843  0  0  0.139985  0  1.001948  0  0  0.143825  0  1.000705  0  0  0.113294  0.137212  0  1.003019  0
H  H31  1  0.03434916  0.77250127  0.72593187  1  0  0.127969  0  0.946909  0  0  0.13998  0  1.001938  0  0  0.143816  0  1.000703  0  0  0.11331  0.137207  0  1.003009  0
H  H32  1  0.83029768  0.40346439  0.22431432  1  0  0.105502  0  0.965636  0  0  0.117599  0  1.02373  0  0  0.120639  0  1.020736  0  0  0.109205  0.115534  0  1.02529  0
H  H33  1  0.16970296  0.59652892  0.77568196  1  0  0.105612  0  0.965613  0  0  0.117695  0  1.023704  0  0  0.12073  0  1.020709  0  0  0.109309  0.115638  0  1.025264  0
H  H34  1  0.39167603  0.75138794  0.21061664  1  0  0.091446  0  0.949863  0  0  0.098722  0  1.01515  0  0  0.101483  0  1.012  0  0  0.113446  0.096952  0  1.017071  0
H  H35  1  0.60832594  0.24861414  0.78939074  1  0  0.091377  0  0.949825  0  0  0.098641  0  1.015132  0  0  0.101403  0  1.011985  0  0  0.113363  0.096872  0  1.017056  0
H  H36  1  0.53216236  0.09898055  0.47576045  1  0  0.102385  0  0.928515  0  0  0.117468  0  0.978746  0  0  0.120433  0  0.975258  0  0  0.123507  0.115154  0  0.981691  0
H  H37  1  0.46783982  0.90102255  0.52423989  1  0  0.102372  0  0.928462  0  0  0.117469  0  0.978679  0  0  0.120438  0  0.97519  0  0  0.123511  0.115153  0  0.981628  0
H  H38  1  0.11166256  0.71460982  0.32903669  1  0  0.096545  0  0.950334  0  0  0.10402  0  1.015653  0  0  0.106793  0  1.012591  0  0  0.113985  0.101931  0  1.017945  0
H  H39  1  0.88832768  0.28538744  0.67095998  1  0  0.096596  0  0.950261  0  0  0.104003  0  1.015641  0  0  0.106773  0  1.012587  0  0  0.11397  0.101929  0  1.017899  0
H  H40  1  0.06718214  0.69335680  0.48275511  1  0  0.119667  0  0.949948  0  0  0.129158  0  1.008997  0  0  0.132701  0  1.007811  0  0  0.11132  0.126836  0  1.009491  0
H  H41  1  0.93281546  0.30664532  0.51724696  1  0  0.119683  0  0.949957  0  0  0.129148  0  1.009024  0  0  0.132689  0  1.00784  0  0  0.111341  0.126826  0  1.009521  0
H  H42  1  0.47662890  0.75719265  0.06517940  1  0  0.111604  0  0.981457  0  0  0.115623  0  1.05266  0  0  0.119529  0  1.05077  0  0  0.109274  0.113068  0  1.05369  0
H  H43  1  0.52337919  0.24281333  0.93483101  1  0  0.111535  0  0.981474  0  0  0.115574  0  1.052656  0  0  0.119476  0  1.050769  0  0  0.109252  0.113016  0  1.053688  0
H  H44  1  0.70386803  0.09089601  0.23676330  1  0  0.096909  0  0.952477  0  0  0.106764  0  1.01539  0  0  0.109596  0  1.012822  0  0  0.109242  0.104824  0  1.016857  0
H  H45  1  0.29612711  0.90909732  0.76323210  1  0  0.096934  0  0.952476  0  0  0.10677  0  1.015408  0  0  0.109606  0  1.012828  0  0  0.109243  0.104829  0  1.016869  0
H  H46  1  0.68561839  0.99772936  0.37137996  1  0  0.118444  0  0.957845  0  0  0.125166  0  1.022393  0  0  0.128974  0  1.020763  0  0  0.113713  0.122325  0  1.023875  0
H  H47  1  0.31438081  0.00226884  0.62861899  1  0  0.118435  0  0.957876  0  0  0.125154  0  1.022418  0  0  0.128965  0  1.020785  0  0  0.113699  0.122311  0  1.023898  0
C  C48  1  0.22335524  0.00316127  0.15350877  1  0  0.426545  0  3.785208  0  0  0.39543  0  4.046487  0  0  0.413381  0  4.063075  0  0  0.232114  0.383113  0  4.035258  0
C  C49  1  0.77665384  0.99684375  0.84649635  1  0  0.426708  0  3.784943  0  0  0.395485  0  4.046416  0  0  0.413442  0  4.063009  0  0  0.232154  0.383179  0  4.035191  0
C  C50  1  0.48115690  0.29087435  0.33534318  1  0  0.425074  0  3.791372  0  0  0.391438  0  4.056857  0  0  0.410071  0  4.072816  0  0  0.226547  0.378805  0  4.046255  0
C  C51  1  0.51884122  0.70912387  0.66465230  1  0  0.424935  0  3.791463  0  0  0.391455  0  4.056813  0  0  0.410086  0  4.072773  0  0  0.226551  0.37882  0  4.046218  0
C  C52  1  0.05799302  0.18492906  0.15438834  1  0  0.427869  0  3.77882  0  0  0.397457  0  4.038611  0  0  0.416203  0  4.053948  0  0  0.226914  0.384748  0  4.028536  0
C  C53  1  0.94200902  0.81506619  0.84561050  1  0  0.42782  0  3.77868  0  0  0.397454  0  4.038456  0  0  0.4162  0  4.053797  0  0  0.226914  0.384754  0  4.028375  0
C  C54  1  0.31808773  0.47259084  0.36477214  1  0  0.422544  0  3.781826  0  0  0.391064  0  4.044478  0  0  0.409449  0  4.059944  0  0  0.228374  0.378734  0  4.034092  0
C  C55  1  0.68190001  0.52740448  0.63522113  1  0  0.422462  0  3.781935  0  0  0.390986  0  4.04463  0  0  0.40937  0  4.060099  0  0  0.228264  0.378657  0  4.034248  0
C  C56  1  0.26727815  0.91122767  0.20347198  1  0  -0.209896  0  3.679687  0  0  -0.222126  0  3.922251  0  0  -0.23344  0  3.94308  0  0  -0.083062  -0.21473  0  3.908059  0
C  C57  1  0.73273136  0.08878027  0.79653771  1  0  -0.209987  0  3.679723  0  0  -0.222117  0  3.922269  0  0  -0.23343  0  3.943097  0  0  -0.083097  -0.214736  0  3.908095  0
C  C58  1  0.99328795  0.30776907  0.04669400  1  0  0.158716  0  3.673011  0  0  0.12672  0  3.921563  0  0  0.13617  0  3.938572  0  0  0.049283  0.120788  0  3.90992  0
C  C59  1  0.00671582  0.69223010  0.95330521  1  0  0.158678  0  3.672979  0  0  0.126765  0  3.921506  0  0  0.136213  0  3.938516  0  0  0.049264  0.120853  0  3.909856  0
C  C60  1  0.35906805  0.91815218  0.04725700  1  0  0.134507  0  3.723247  0  0  0.105915  0  3.970239  0  0  0.113377  0  3.989621  0  0  0.042674  0.100513  0  3.957665  0
C  C61  1  0.64094540  0.08185280  0.95275343  1  0  0.134232  0  3.723055  0  0  0.105654  0  3.970092  0  0  0.113124  0  3.989466  0  0  0.042573  0.100261  0  3.957503  0
C  C62  1  0.25371549  0.56535066  0.32149096  1  0  -0.197322  0  3.667461  0  0  -0.209151  0  3.90913  0  0  -0.220048  0  3.929637  0  0  -0.08025  -0.202597  0  3.895856  0
C  C63  1  0.74627304  0.43464270  0.67850206  1  0  -0.197175  0  3.667335  0  0  -0.209077  0  3.909047  0  0  -0.219966  0  3.929544  0  0  -0.080194  -0.202521  0  3.895777  0
C  C64  1  0.56714363  0.23931995  0.27368297  1  0  -0.219877  0  3.683269  0  0  -0.232863  0  3.931054  0  0  -0.244496  0  3.951656  0  0  -0.091468  -0.225633  0  3.917689  0
C  C65  1  0.43284946  0.76067437  0.72631163  1  0  -0.219874  0  3.6831  0  0  -0.232924  0  3.93086  0  0  -0.244555  0  3.951457  0  0  -0.091499  -0.225694  0  3.917492  0
C  C66  1  0.20210581  0.53833363  0.48581026  1  0  0.129776  0  3.704729  0  0  0.09902  0  3.951936  0  0  0.105882  0  3.971655  0  0  0.038444  0.094477  0  3.938894  0
C  C67  1  0.79789183  0.46166164  0.51418657  1  0  0.129791  0  3.704737  0  0  0.099022  0  3.951939  0  0  0.105888  0  3.971658  0  0  0.03841  0.094489  0  3.938888  0
C  C68  1  0.90411256  0.37574838  0.09692186  1  0  -0.122391  0  3.700641  0  0  -0.135938  0  3.947784  0  0  -0.145744  0  3.969927  0  0  -0.083695  -0.129686  0  3.932884  0
C  C69  1  0.09589200  0.62424882  0.90307710  1  0  -0.122151  0  3.700598  0  0  -0.13572  0  3.947723  0  0  -0.145526  0  3.969868  0  0  -0.083661  -0.129474  0  3.932837  0
C  C70  1  0.96968054  0.25125494  0.20904984  1  0  -0.215773  0  3.685515  0  0  -0.229896  0  3.93257  0  0  -0.241567  0  3.95333  0  0  -0.090137  -0.222806  0  3.919347  0
C  C71  1  0.03031554  0.74873740  0.79094618  1  0  -0.215654  0  3.685503  0  0  -0.229871  0  3.932565  0  0  -0.241541  0  3.953322  0  0  -0.090165  -0.222782  0  3.919354  0
C  C72  1  0.89402816  0.34770529  0.18045999  1  0  0.022586  0  3.714306  0  0  0.004299  0  3.959429  0  0  0.010905  0  3.977434  0  0  -0.060321  0.000695  0  3.946081  0
C  C73  1  0.10596948  0.65228998  0.81953684  1  0  0.022392  0  3.71451  0  0  0.004115  0  3.959703  0  0  0.010729  0  3.977697  0  0  -0.060375  0.000523  0  3.946374  0
C  C74  1  0.35800407  0.82264918  0.17238068  1  0  0.046807  0  3.700962  0  0  0.030804  0  3.943264  0  0  0.037936  0  3.959686  0  0  -0.051571  0.026394  0  3.932627  0
C  C75  1  0.64200718  0.17735581  0.82762874  1  0  0.046837  0  3.701043  0  0  0.030794  0  3.943345  0  0  0.037924  0  3.959764  0  0  -0.051516  0.026403  0  3.932705  0
C  C76  1  0.54353720  0.13543366  0.41708293  1  0  0.160564  0  3.681093  0  0  0.12933  0  3.92618  0  0  0.138727  0  3.943191  0  0  0.051233  0.12336  0  3.914854  0
C  C77  1  0.45646342  0.86456651  0.58291595  1  0  0.160623  0  3.680827  0  0  0.129412  0  3.925923  0  0  0.138798  0  3.942938  0  0  0.051246  0.123436  0  3.914602  0
C  C78  1  0.16423241  0.64522166  0.36357819  1  0  0.054131  0  3.68378  0  0  0.037966  0  3.923781  0  0  0.045052  0  3.940037  0  0  -0.04988  0.033324  0  3.913721  0
C  C79  1  0.83575485  0.35477071  0.63641642  1  0  0.053848  0  3.683993  0  0  0.037766  0  3.923966  0  0  0.044849  0  3.940222  0  0  -0.049963  0.033127  0  3.913913  0
C  C80  1  0.13882487  0.63331848  0.44845883  1  0  -0.119844  0  3.718587  0  0  -0.132414  0  3.967579  0  0  -0.141049  0  3.990036  0  0  -0.084164  -0.127106  0  3.953061  0
C  C81  1  0.86117040  0.36667581  0.55154007  1  0  -0.119761  0  3.718698  0  0  -0.1323  0  3.967643  0  0  -0.140932  0  3.990092  0  0  -0.08418  -0.126997  0  3.953119  0
C  C82  1  0.40530745  0.82503308  0.09227853  1  0  -0.127924  0  3.73556  0  0  -0.144481  0  3.990554  0  0  -0.153368  0  4.013207  0  0  -0.086111  -0.138841  0  3.976098  0
C  C83  1  0.59470254  0.17497092  0.90773182  1  0  -0.127738  0  3.735319  0  0  -0.144286  0  3.990319  0  0  -0.153177  0  4.012996  0  0  -0.086083  -0.138656  0  3.975861  0
C  C84  1  0.63997783  0.13326362  0.28548370  1  0  0.021201  0  3.728421  0  0  0.00214  0  3.976659  0  0  0.008706  0  3.994966  0  0  -0.062206  -0.001634  0  3.963547  0
C  C85  1  0.36001777  0.86673264  0.71451298  1  0  0.021147  0  3.728355  0  0  0.002096  0  3.976622  0  0  0.008663  0  3.994925  0  0  -0.062199  -0.001687  0  3.963506  0
C  C86  1  0.62982493  0.08063860  0.35939301  1  0  -0.133771  0  3.726566  0  0  -0.149405  0  3.981925  0  0  -0.159229  0  4.004543  0  0  -0.086627  -0.142913  0  3.966578  0
C  C87  1  0.37017267  0.91936352  0.64060972  1  0  -0.133774  0  3.726505  0  0  -0.149412  0  3.981878  0  0  -0.159232  0  4.004491  0  0  -0.086638  -0.14291  0  3.966522  0
N  N88  1  0.29073145  0.45906356  0.44518699  1  0  -0.440749  0  3.272357  0  0  -0.358918  0  3.55796  0  0  -0.380361  0  3.567673  0  0  -0.352176  -0.344509  0  3.551441  0
N  N89  1  0.70926431  0.54093369  0.55480793  1  0  -0.440827  0  3.272606  0  0  -0.358977  0  3.558166  0  0  -0.380424  0  3.567887  0  0  -0.352061  -0.344566  0  3.551643  0
N  N90  1  0.40961376  0.39639025  0.32104040  1  0  -0.464084  0  3.343649  0  0  -0.406663  0  3.585174  0  0  -0.428498  0  3.593251  0  0  -0.394213  -0.391619  0  3.579285  0
N  N91  1  0.59038074  0.60360602  0.67895479  1  0  -0.464033  0  3.343888  0  0  -0.406591  0  3.58521  0  0  -0.428428  0  3.593292  0  0  -0.394209  -0.391549  0  3.579324  0
N  N92  1  0.46843839  0.23731344  0.40483049  1  0  -0.445993  0  3.275615  0  0  -0.362676  0  3.562545  0  0  -0.384846  0  3.572348  0  0  -0.347839  -0.347764  0  3.555344  0
N  N93  1  0.53156098  0.76268575  0.59516735  1  0  -0.445916  0  3.275548  0  0  -0.362712  0  3.5625  0  0  -0.384881  0  3.572305  0  0  -0.347836  -0.347791  0  3.555306  0
N  N94  1  0.27061448  0.00667204  0.07711832  1  0  -0.443571  0  3.283458  0  0  -0.362024  0  3.565406  0  0  -0.383617  0  3.575585  0  0  -0.352162  -0.347598  0  3.559265  0
N  N95  1  0.72939789  0.99333295  0.92288929  1  0  -0.443428  0  3.283186  0  0  -0.36198  0  3.565297  0  0  -0.383602  0  3.575519  0  0  -0.352113  -0.34756  0  3.559144  0
N  N96  1  0.13104456  0.08927564  0.18609837  1  0  -0.462704  0  3.344497  0  0  -0.406188  0  3.583757  0  0  -0.427748  0  3.591758  0  0  -0.397672  -0.390981  0  3.577952  0
N  N97  1  0.86895619  0.91072549  0.81390336  1  0  -0.462803  0  3.344464  0  0  -0.406192  0  3.583687  0  0  -0.427727  0  3.591627  0  0  -0.397639  -0.390996  0  3.577902  0
N  N98  1  0.07090273  0.21467237  0.07512228  1  0  -0.456069  0  3.26826  0  0  -0.375128  0  3.55848  0  0  -0.397716  0  3.56768  0  0  -0.34914  -0.359838  0  3.551514  0
N  N99  1  0.92910388  0.78532384  0.92487682  1  0  -0.455997  0  3.26832  0  0  -0.375175  0  3.558613  0  0  -0.397771  0  3.567832  0  0  -0.349191  -0.359915  0  3.551652  0
O  O100  1  0.40490364  0.28742941  0.06436774  1  0  -0.915752  0  1.540869  0  0  -0.894589  0  1.861464  0  0  -0.932838  0  1.842335  0  0  -0.62513  -0.864964  0  1.874933  0
O  O101  1  0.59509523  0.71257370  0.93563274  1  0  -0.915778  0  1.540883  0  0  -0.894618  0  1.861433  0  0  -0.932813  0  1.842341  0  0  -0.625117  -0.864957  0  1.874944  0
O  O102  1  0.25557773  0.49835087  0.07378296  1  0  -0.752571  0  1.269058  0  0  -0.761751  0  1.506068  0  0  -0.791093  0  1.500186  0  0  -0.590017  -0.739044  0  1.513704  0
O  O103  1  0.74442276  0.50165520  0.92621108  1  0  -0.752571  0  1.269011  0  0  -0.761799  0  1.506048  0  0  -0.79108  0  1.500212  0  0  -0.59002  -0.739052  0  1.513746  0
O  O104  1  0.50000551  0.50000109  0.00000076  1  0  -1.029059  0  1.589951  0  0  -1.056966  0  1.89724  0  0  -1.104101  0  1.889169  0  0  -0.704567  -1.017632  0  1.906798  0
O  O105  1  0.21427263  0.09280692  0.88328010  1  0  -0.905495  0  1.53696  0  0  -0.882567  0  1.85973  0  0  -0.920315  0  1.840952  0  0  -0.630303  -0.852979  0  1.875644  0
O  O106  1  0.78573316  0.90719812  0.11672120  1  0  -0.905428  0  1.53689  0  0  -0.882544  0  1.859668  0  0  -0.920282  0  1.840904  0  0  -0.630295  -0.852977  0  1.87553  0
O  O107  1  0.05371942  0.28047559  0.83374408  1  0  -0.756457  0  1.257216  0  0  -0.77287  0  1.497311  0  0  -0.802265  0  1.491738  0  0  -0.587478  -0.748258  0  1.505428  0
O  O108  1  0.94628055  0.71952752  0.16625658  1  0  -0.756435  0  1.257206  0  0  -0.772889  0  1.497321  0  0  -0.802274  0  1.491756  0  0  -0.5875  -0.748299  0  1.505373  0
O  O109  1  0.01423713  0.03143985  0.70109860  1  0  -1.037656  0  1.663479  0  0  -1.055363  0  1.973749  0  0  -1.099599  0  1.967189  0  0  -0.703356  -1.016335  0  1.982215  0
O  O110  1  0.98576394  0.96855637  0.29890358  1  0  -1.037702  0  1.663518  0  0  -1.055451  0  1.97382  0  0  -1.099664  0  1.967261  0  0  -0.703408  -1.016479  0  1.98225  0
O  O111  1  0.74604775  0.02194538  0.56609674  1  0  -0.776396  0  1.277743  0  0  -0.786157  0  1.518789  0  0  -0.815472  0  1.513019  0  0  -0.596277  -0.762338  0  1.527192  0
O  O112  1  0.25395754  0.97804982  0.43391119  1  0  -0.776399  0  1.277646  0  0  -0.786172  0  1.518673  0  0  -0.815481  0  1.512909  0  0  -0.596242  -0.762385  0  1.527031  0
O  O113  1  0.00000052  0.00000386  0.50000316  1  0  -1.023162  0  1.58339  0  0  -1.055653  0  1.887382  0  0  -1.100505  0  1.88033  0  0  -0.707718  -1.015216  0  1.897203  0
O  O114  1  0.28565827  0.21737950  0.75049231  1  0  -0.998737  0  1.588274  0  0  -1.027384  0  1.898385  0  0  -1.074189  0  1.894189  0  0  -0.687591  -0.986424  0  1.9063  0
O  O115  1  0.71433574  0.78262756  0.24950352  1  0  -0.998721  0  1.588175  0  0  -1.027428  0  1.898313  0  0  -1.074195  0  1.894114  0  0  -0.687594  -0.986495  0  1.90615  0
O  O116  1  0.53159822  0.52646062  0.20413654  1  0  -1.045847  0  1.664877  0  0  -1.061975  0  1.974962  0  0  -1.107293  0  1.967278  0  0  -0.703624  -1.023432  0  1.98386  0
O  O117  1  0.46839182  0.47354251  0.79586451  1  0  -1.045928  0  1.664743  0  0  -1.062069  0  1.97484  0  0  -1.107371  0  1.967199  0  0  -0.703662  -1.023492  0  1.983824  0
O  O118  1  0.18767470  0.41513142  0.66606879  1  0  -0.767249  0  1.310563  0  0  -0.780099  0  1.559785  0  0  -0.810033  0  1.553932  0  0  -0.588205  -0.755951  0  1.567984  0
O  O119  1  0.81231711  0.58487565  0.33392735  1  0  -0.767295  0  1.310348  0  0  -0.780208  0  1.559605  0  0  -0.810128  0  1.553768  0  0  -0.588267  -0.756072  0  1.567747  0
O  O120  1  0.40802007  0.28888853  0.61325788  1  0  -0.892915  0  1.527434  0  0  -0.870124  0  1.845195  0  0  -0.908241  0  1.827658  0  0  -0.622439  -0.840162  0  1.859374  0
O  O121  1  0.59197171  0.71111854  0.38674089  1  0  -0.892944  0  1.527429  0  0  -0.8702  0  1.845188  0  0  -0.908296  0  1.827662  0  0  -0.62244  -0.840261  0  1.859334  0
O  O122  1  0.87046106  0.79897708  0.56133344  1  0  -0.902908  0  1.517816  0  0  -0.886045  0  1.829602  0  0  -0.922156  0  1.812272  0  0  -0.623768  -0.856939  0  1.842756  0
O  O123  1  0.12954348  0.20102011  0.43866815  1  0  -0.902939  0  1.517842  0  0  -0.886079  0  1.829607  0  0  -0.922178  0  1.812277  0  0  -0.623797  -0.857005  0  1.842728  0
