# generated using pymatgen
data_CdH6C7(SN2)2
_symmetry_space_group_name_H-M   'P 1'
_cell_length_a   8.30219829
_cell_length_b   9.54886874
_cell_length_c   13.18912441
_cell_angle_alpha   90.00006912
_cell_angle_beta   94.43893651
_cell_angle_gamma   89.99994391
_symmetry_Int_Tables_number   1
_chemical_formula_structural   CdH6C7(SN2)2
_chemical_formula_sum   'Cd4 H24 C28 S8 N16'
_cell_volume   1042.45259946
_cell_formula_units_Z   4
loop_
 _symmetry_equiv_pos_site_id
 _symmetry_equiv_pos_as_xyz
  1  'x, y, z'
loop_
 _atom_site_type_symbol
 _atom_site_label
 _atom_site_symmetry_multiplicity
 _atom_site_fract_x
 _atom_site_fract_y
 _atom_site_fract_z
 _atom_site_occupancy
 _atom_site_hle17_bader_spin_density
 _atom_site_hle17_ddec_charge
 _atom_site_hle17_ddec_spin_density
 _atom_site_hle17_ddec_sum_bond_order
 _atom_site_hle17_magmom
 _atom_site_hse06_10hf_bader_spin_density
 _atom_site_hse06_10hf_ddec_charge
 _atom_site_hse06_10hf_ddec_spin_density
 _atom_site_hse06_10hf_ddec_sum_bond_order
 _atom_site_hse06_10hf_magmom
 _atom_site_hse06_bader_spin_density
 _atom_site_hse06_ddec_charge
 _atom_site_hse06_ddec_spin_density
 _atom_site_hse06_ddec_sum_bond_order
 _atom_site_hse06_magmom
 _atom_site_pbe_bader_spin_density
 _atom_site_pbe_cm5_charge
 _atom_site_pbe_ddec_charge
 _atom_site_pbe_ddec_spin_density
 _atom_site_pbe_ddec_sum_bond_order
 _atom_site_pbe_magmom
Cd  Cd0  1  0.14724356  0.78839626  0.37429814  1  0  0.947702  0  1.991752  0  0  0.767985  0  2.454177  0  0  0.813403  0  2.416498  0  0  0.720634  0.735276  0  2.48113  0
Cd  Cd1  1  0.35275726  0.28839642  0.12570219  1  0  0.947706  0  1.991749  0  0  0.767985  0  2.454182  0  0  0.813407  0  2.416497  0  0  0.720628  0.735274  0  2.481135  0
Cd  Cd2  1  0.85275625  0.21160533  0.62570269  1  0  0.947722  0  1.991735  0  0  0.768001  0  2.454183  0  0  0.813426  0  2.416491  0  0  0.720639  0.735289  0  2.481134  0
Cd  Cd3  1  0.64724496  0.71160516  0.87429723  1  0  0.947724  0  1.991721  0  0  0.768006  0  2.454152  0  0  0.813427  0  2.416467  0  0  0.720636  0.735294  0  2.481103  0
H  H4  1  0.15434984  0.57359820  0.57549712  1  0  0.099425  0  0.948234  0  0  0.10523  0  1.017177  0  0  0.107698  0  1.016051  0  0  0.112585  0.103466  0  1.018132  0
H  H5  1  0.34565166  0.07359677  0.92450305  1  0  0.099428  0  0.9482  0  0  0.105229  0  1.017148  0  0  0.107697  0  1.016021  0  0  0.112582  0.103465  0  1.018102  0
H  H6  1  0.84564876  0.42640234  0.42450289  1  0  0.099442  0  0.948226  0  0  0.105252  0  1.017167  0  0  0.10772  0  1.016042  0  0  0.112592  0.103487  0  1.018122  0
H  H7  1  0.65434935  0.92640272  0.07549707  1  0  0.099432  0  0.948213  0  0  0.105233  0  1.017159  0  0  0.107701  0  1.016033  0  0  0.112585  0.103469  0  1.018114  0
H  H8  1  0.65186541  0.82953832  0.66007663  1  0  0.083523  0  0.99194  0  0  0.087017  0  1.063176  0  0  0.08843  0  1.063749  0  0  0.110245  0.085975  0  1.062988  0
H  H9  1  0.84813688  0.32953990  0.83992269  1  0  0.083528  0  0.99194  0  0  0.087014  0  1.063182  0  0  0.088426  0  1.063753  0  0  0.110262  0.085973  0  1.062993  0
H  H10  1  0.34813439  0.17046116  0.33992268  1  0  0.083524  0  0.991957  0  0  0.087022  0  1.063202  0  0  0.088435  0  1.063775  0  0  0.110247  0.085982  0  1.063015  0
H  H11  1  0.15186534  0.67046169  0.16007674  1  0  0.083484  0  0.991939  0  0  0.086994  0  1.06319  0  0  0.088407  0  1.063764  0  0  0.110243  0.085954  0  1.063003  0
H  H12  1  0.48505252  0.87108664  0.49436489  1  0  0.082964  0  0.960426  0  0  0.085667  0  1.03555  0  0  0.088134  0  1.034433  0  0  0.110669  0.083772  0  1.036766  0
H  H13  1  0.01495063  0.37108898  0.00563486  1  0  0.082962  0  0.96045  0  0  0.085664  0  1.03558  0  0  0.088131  0  1.034461  0  0  0.110651  0.083768  0  1.036796  0
H  H14  1  0.51494728  0.12891285  0.50563517  1  0  0.082935  0  0.960449  0  0  0.085638  0  1.035573  0  0  0.088104  0  1.034456  0  0  0.110655  0.083742  0  1.036789  0
H  H15  1  0.98505401  0.62891365  0.99436468  1  0  0.082916  0  0.960439  0  0  0.085623  0  1.035568  0  0  0.088087  0  1.034449  0  0  0.110645  0.083728  0  1.036782  0
H  H16  1  0.41423599  0.44993337  0.80245877  1  0  0.132368  0  0.961671  0  0  0.150707  0  1.025424  0  0  0.151868  0  1.025922  0  0  0.091556  0.149663  0  1.025427  0
H  H17  1  0.08576270  0.94993192  0.69754311  1  0  0.132299  0  0.961683  0  0  0.150692  0  1.025393  0  0  0.151854  0  1.02589  0  0  0.09156  0.149648  0  1.025396  0
H  H18  1  0.58576502  0.55006717  0.19754136  1  0  0.132369  0  0.96167  0  0  0.150709  0  1.025421  0  0  0.151871  0  1.025919  0  0  0.091561  0.149666  0  1.025426  0
H  H19  1  0.91423468  0.05006757  0.30245836  1  0  0.132385  0  0.961675  0  0  0.150725  0  1.025423  0  0  0.151887  0  1.02592  0  0  0.09156  0.14968  0  1.025427  0
H  H20  1  0.23557760  0.41555548  0.72168350  1  0  0.123097  0  0.959603  0  0  0.142254  0  1.02363  0  0  0.143347  0  1.024432  0  0  0.086735  0.141259  0  1.023358  0
H  H21  1  0.26442113  0.91555192  0.77831683  1  0  0.123092  0  0.959591  0  0  0.142245  0  1.023637  0  0  0.143336  0  1.024446  0  0  0.086742  0.14125  0  1.023366  0
H  H22  1  0.76442340  0.58444505  0.27831662  1  0  0.123101  0  0.959565  0  0  0.142262  0  1.023589  0  0  0.143351  0  1.0244  0  0  0.086734  0.141267  0  1.023319  0
H  H23  1  0.73557505  0.08444548  0.22168382  1  0  0.123077  0  0.959672  0  0  0.142243  0  1.023683  0  0  0.143334  0  1.024492  0  0  0.086731  0.14125  0  1.02341  0
H  H24  1  0.23494832  0.54781521  0.81662013  1  0  0.11871  0  0.979074  0  0  0.134145  0  1.051598  0  0  0.134368  0  1.053504  0  0  0.086401  0.134065  0  1.050261  0
H  H25  1  0.26504958  0.04781135  0.68337984  1  0  0.118661  0  0.979043  0  0  0.134111  0  1.05159  0  0  0.134333  0  1.053496  0  0  0.08636  0.134027  0  1.050256  0
H  H26  1  0.76505148  0.45218428  0.18337994  1  0  0.118702  0  0.979082  0  0  0.134135  0  1.05162  0  0  0.134357  0  1.053525  0  0  0.086397  0.134055  0  1.050282  0
H  H27  1  0.73494901  0.95218604  0.31662169  1  0  0.118749  0  0.978987  0  0  0.134182  0  1.051523  0  0  0.134404  0  1.053429  0  0  0.086435  0.1341  0  1.050188  0
C  C28  1  0.14734613  0.11825832  0.47719214  1  0  0.311405  0  4.003914  0  0  0.290205  0  4.30514  0  0  0.312727  0  4.318772  0  0  0.15472  0.274732  0  4.295527  0
C  C29  1  0.35265365  0.61825845  0.02280723  1  0  0.311393  0  4.003917  0  0  0.290189  0  4.305148  0  0  0.312709  0  4.318783  0  0  0.154749  0.274715  0  4.295537  0
C  C30  1  0.85265247  0.88174326  0.52280787  1  0  0.311455  0  4.003926  0  0  0.290249  0  4.305161  0  0  0.312771  0  4.31879  0  0  0.154769  0.274775  0  4.295545  0
C  C31  1  0.64734856  0.38174314  0.97719219  1  0  0.311502  0  4.003889  0  0  0.290303  0  4.305108  0  0  0.312822  0  4.31874  0  0  0.154788  0.274828  0  4.295494  0
C  C32  1  0.11616282  0.44828890  0.28963855  1  0  0.303143  0  4.008864  0  0  0.280227  0  4.319576  0  0  0.301966  0  4.333273  0  0  0.144974  0.265206  0  4.31017  0
C  C33  1  0.38383542  0.94828931  0.21036104  1  0  0.303166  0  4.00886  0  0  0.28025  0  4.319565  0  0  0.301991  0  4.333261  0  0  0.144989  0.26523  0  4.310157  0
C  C34  1  0.88383698  0.55171059  0.71036151  1  0  0.303114  0  4.008849  0  0  0.280199  0  4.319558  0  0  0.301938  0  4.333256  0  0  0.144956  0.265178  0  4.310146  0
C  C35  1  0.61616317  0.05171018  0.78963746  1  0  0.303168  0  4.008862  0  0  0.280257  0  4.319564  0  0  0.301996  0  4.333259  0  0  0.14498  0.265236  0  4.310152  0
C  C36  1  0.26656893  0.63023210  0.59508733  1  0  0.035007  0  3.614718  0  0  0.002308  0  3.861036  0  0  0.003819  0  3.878219  0  0  0.056915  0.001379  0  3.849176  0
C  C37  1  0.23343130  0.13023178  0.90491207  1  0  0.035002  0  3.614759  0  0  0.002275  0  3.861073  0  0  0.003787  0  3.878256  0  0  0.05688  0.001347  0  3.849211  0
C  C38  1  0.73342966  0.36976843  0.40491268  1  0  0.034958  0  3.614729  0  0  0.002247  0  3.861055  0  0  0.003759  0  3.878239  0  0  0.056886  0.00132  0  3.849195  0
C  C39  1  0.76656971  0.86976875  0.09508882  1  0  0.035006  0  3.614717  0  0  0.002298  0  3.861047  0  0  0.003811  0  3.878231  0  0  0.056927  0.001369  0  3.849187  0
C  C40  1  0.35882537  0.60415156  0.68719229  1  0  0.295324  0  3.672098  0  0  0.303462  0  3.915742  0  0  0.309928  0  3.934719  0  0  0.137394  0.298501  0  3.903038  0
C  C41  1  0.14117489  0.10415012  0.81280860  1  0  0.29527  0  3.672129  0  0  0.30349  0  3.915677  0  0  0.309956  0  3.934654  0  0  0.137414  0.298529  0  3.902973  0
C  C42  1  0.64117443  0.39584792  0.31280853  1  0  0.295289  0  3.672078  0  0  0.303434  0  3.915724  0  0  0.309899  0  3.934702  0  0  0.13734  0.298473  0  3.903025  0
C  C43  1  0.85882491  0.89584832  0.18719223  1  0  0.295368  0  3.672107  0  0  0.303524  0  3.915719  0  0  0.309991  0  3.934695  0  0  0.13741  0.298563  0  3.90302  0
C  C44  1  0.54021630  0.77237033  0.64125769  1  0  0.091581  0  3.69793  0  0  0.064528  0  3.946042  0  0  0.06735  0  3.966089  0  0  0.049347  0.062209  0  3.933099  0
C  C45  1  0.95978605  0.27237288  0.85874234  1  0  0.091606  0  3.69787  0  0  0.064572  0  3.945966  0  0  0.0674  0  3.966005  0  0  0.049342  0.062253  0  3.933022  0
C  C46  1  0.45978350  0.22762811  0.35874162  1  0  0.091635  0  3.697817  0  0  0.064548  0  3.945958  0  0  0.067372  0  3.966  0  0  0.049371  0.062227  0  3.933018  0
C  C47  1  0.04021617  0.72762870  0.14125784  1  0  0.091701  0  3.697714  0  0  0.064565  0  3.945921  0  0  0.06739  0  3.96596  0  0  0.049363  0.062245  0  3.932981  0
C  C48  1  0.44838673  0.79601393  0.55042509  1  0  0.072114  0  3.684599  0  0  0.042453  0  3.938209  0  0  0.043783  0  3.956825  0  0  0.046033  0.041219  0  3.926438  0
C  C49  1  0.05161332  0.29601489  0.94957444  1  0  0.072129  0  3.684712  0  0  0.042461  0  3.938318  0  0  0.04379  0  3.956933  0  0  0.046077  0.041228  0  3.926546  0
C  C50  1  0.55161307  0.20398661  0.44957497  1  0  0.072144  0  3.684596  0  0  0.0425  0  3.9382  0  0  0.043829  0  3.956819  0  0  0.046055  0.041268  0  3.926429  0
C  C51  1  0.94838768  0.70398774  0.05042568  1  0  0.072129  0  3.684495  0  0  0.042493  0  3.93812  0  0  0.043827  0  3.956732  0  0  0.046036  0.04126  0  3.926347  0
C  C52  1  0.30861728  0.49759557  0.76101172  1  0  -0.388516  0  3.706968  0  0  -0.469322  0  3.938265  0  0  -0.472748  0  3.947564  0  0  -0.249061  -0.466457  0  3.931987  0
C  C53  1  0.19138016  0.99759305  0.73898938  1  0  -0.388329  0  3.706897  0  0  -0.469222  0  3.938169  0  0  -0.472649  0  3.947466  0  0  -0.249008  -0.466354  0  3.931892  0
C  C54  1  0.69138252  0.50240392  0.23898835  1  0  -0.388503  0  3.706907  0  0  -0.469313  0  3.938211  0  0  -0.47274  0  3.947509  0  0  -0.24905  -0.466447  0  3.931934  0
C  C55  1  0.80861723  0.00240435  0.26101209  1  0  -0.388573  0  3.706994  0  0  -0.469389  0  3.938292  0  0  -0.472815  0  3.947592  0  0  -0.249096  -0.466522  0  3.932014  0
S  S56  1  0.12982438  0.26655029  0.53622331  1  0  -0.325511  0  2.182989  0  0  -0.29444  0  2.517199  0  0  -0.312324  0  2.511967  0  0  -0.132292  -0.281354  0  2.520778  0
S  S57  1  0.37017571  0.76655008  0.96377620  1  0  -0.32552  0  2.182991  0  0  -0.294454  0  2.51721  0  0  -0.312335  0  2.511979  0  0  -0.132305  -0.281368  0  2.52079  0
S  S58  1  0.87017421  0.73345129  0.46377746  1  0  -0.32552  0  2.182966  0  0  -0.29445  0  2.517176  0  0  -0.312331  0  2.511944  0  0  -0.132301  -0.281365  0  2.520755  0
S  S59  1  0.62982650  0.23345255  0.03622247  1  0  -0.325551  0  2.182973  0  0  -0.294485  0  2.517185  0  0  -0.312366  0  2.511953  0  0  -0.132325  -0.281399  0  2.520764  0
S  S60  1  0.07507554  0.30656107  0.22362071  1  0  -0.319702  0  2.152602  0  0  -0.283155  0  2.479844  0  0  -0.300719  0  2.474564  0  0  -0.128455  -0.270007  0  2.484  0
S  S61  1  0.42492284  0.80656156  0.27637876  1  0  -0.319681  0  2.152586  0  0  -0.283137  0  2.479835  0  0  -0.300702  0  2.474555  0  0  -0.128447  -0.269989  0  2.483992  0
S  S62  1  0.92492547  0.69343737  0.77637941  1  0  -0.319655  0  2.152657  0  0  -0.283105  0  2.479899  0  0  -0.300671  0  2.474622  0  0  -0.128432  -0.26996  0  2.484053  0
S  S63  1  0.57507454  0.19343793  0.72362044  1  0  -0.319682  0  2.152622  0  0  -0.283123  0  2.479842  0  0  -0.30069  0  2.474565  0  0  -0.128445  -0.269978  0  2.483994  0
N  N64  1  0.16524247  0.01286778  0.43233541  1  0  -0.539212  0  2.907153  0  0  -0.479399  0  3.185338  0  0  -0.501264  0  3.192029  0  0  -0.393581  -0.464201  0  3.180844  0
N  N65  1  0.33475621  0.51286800  0.06766306  1  0  -0.539204  0  2.907121  0  0  -0.479389  0  3.185306  0  0  -0.501254  0  3.192  0  0  -0.393607  -0.464191  0  3.180814  0
N  N66  1  0.83475612  0.98713380  0.56766384  1  0  -0.53927  0  2.907185  0  0  -0.479466  0  3.185391  0  0  -0.501332  0  3.192081  0  0  -0.393636  -0.464267  0  3.180895  0
N  N67  1  0.66524480  0.48713359  0.93233631  1  0  -0.539279  0  2.907124  0  0  -0.47947  0  3.18531  0  0  -0.501335  0  3.192  0  0  -0.393631  -0.464272  0  3.180817  0
N  N68  1  0.14258852  0.55025702  0.33914785  1  0  -0.540674  0  2.879145  0  0  -0.487599  0  3.157936  0  0  -0.507876  0  3.164652  0  0  -0.397123  -0.473592  0  3.154005  0
N  N69  1  0.35741012  0.05025724  0.16085217  1  0  -0.540712  0  2.879155  0  0  -0.487637  0  3.157948  0  0  -0.507914  0  3.164663  0  0  -0.397143  -0.473629  0  3.154013  0
N  N70  1  0.85740765  0.44974246  0.66085204  1  0  -0.540679  0  2.879088  0  0  -0.487612  0  3.157888  0  0  -0.507888  0  3.164604  0  0  -0.397123  -0.473606  0  3.153957  0
N  N71  1  0.64258968  0.94974224  0.83914638  1  0  -0.540725  0  2.879164  0  0  -0.487658  0  3.157965  0  0  -0.507933  0  3.164678  0  0  -0.39714  -0.47365  0  3.154032  0
N  N72  1  0.49465582  0.67918764  0.70964198  1  0  -0.329377  0  3.167648  0  0  -0.25968  0  3.412797  0  0  -0.276171  0  3.431727  0  0  -0.302546  -0.247812  0  3.399821  0
N  N73  1  0.00534436  0.17918732  0.79035745  1  0  -0.329413  0  3.167515  0  0  -0.25976  0  3.412651  0  0  -0.276254  0  3.43158  0  0  -0.302589  -0.247896  0  3.399682  0
N  N74  1  0.50534519  0.32081185  0.29035738  1  0  -0.329398  0  3.167595  0  0  -0.259695  0  3.412768  0  0  -0.276187  0  3.431699  0  0  -0.302552  -0.24783  0  3.399803  0
N  N75  1  0.99465544  0.82081216  0.20964261  1  0  -0.329402  0  3.167534  0  0  -0.259685  0  3.41271  0  0  -0.276177  0  3.431641  0  0  -0.302548  -0.247819  0  3.399739  0
N  N76  1  0.31018558  0.72592713  0.52851923  1  0  -0.253375  0  3.255935  0  0  -0.182582  0  3.512026  0  0  -0.19571  0  3.531365  0  0  -0.305141  -0.173284  0  3.498893  0
N  N77  1  0.18981576  0.22592801  0.97147955  1  0  -0.25339  0  3.255946  0  0  -0.182595  0  3.512036  0  0  -0.195724  0  3.531376  0  0  -0.305145  -0.173297  0  3.498903  0
N  N78  1  0.68981422  0.27407235  0.47148084  1  0  -0.253353  0  3.255942  0  0  -0.182555  0  3.512023  0  0  -0.195685  0  3.531363  0  0  -0.305105  -0.173256  0  3.498887  0
N  N79  1  0.81018525  0.77407357  0.02851982  1  0  -0.253431  0  3.255868  0  0  -0.182628  0  3.511939  0  0  -0.195758  0  3.531279  0  0  -0.305161  -0.17333  0  3.498804  0
