# generated using pymatgen
data_AlH7C9SO8
_symmetry_space_group_name_H-M   'P 1'
_cell_length_a   6.65955948
_cell_length_b   8.68208209
_cell_length_c   11.40265821
_cell_angle_alpha   95.10306142
_cell_angle_beta   66.60923195
_cell_angle_gamma   75.14184673
_symmetry_Int_Tables_number   1
_chemical_formula_structural   AlH7C9SO8
_chemical_formula_sum   'Al2 H14 C18 S2 O16'
_cell_volume   571.19447390
_cell_formula_units_Z   2
loop_
 _symmetry_equiv_pos_site_id
 _symmetry_equiv_pos_as_xyz
  1  'x, y, z'
loop_
 _atom_site_type_symbol
 _atom_site_label
 _atom_site_symmetry_multiplicity
 _atom_site_fract_x
 _atom_site_fract_y
 _atom_site_fract_z
 _atom_site_occupancy
 _atom_site_pbe_bader_charge
 _atom_site_pbe_bader_spin_density
 _atom_site_pbe_cm5_charge
 _atom_site_pbe_ddec_charge
 _atom_site_pbe_ddec_spin_density
 _atom_site_pbe_ddec_sum_bond_order
 _atom_site_pbe_magmom
Al  Al0  1  0.49265745  0.50751027  0.51479987  1  2.501854  0  0.410846  1.634803  0  2.528585  0
Al  Al1  1  0.98946105  0.51256443  0.51842468  1  2.505173  0  0.396595  1.646046  0  2.594046  0
H  H2  1  0.81523096  0.57828925  0.36989048  1  0.636799  0  0.351545  0.430213  0  0.853757  0
H  H3  1  0.20788179  0.36987506  0.62484979  1  0.639316  0  0.336906  0.431615  0  0.878462  0
H  H4  1  0.28315725  0.21428792  0.20204845  1  0.140731  0  0.116273  0.126586  0  1.031413  0
H  H5  1  0.32518694  0.33899762  0.78108101  1  0.129548  0  0.11503  0.120442  0  1.067756  0
H  H6  1  0.72792916  0.65845000  0.90850849  1  0.11734  0  0.123109  0.132412  0  0.964887  0
H  H7  1  0.65491381  0.62689252  0.13471588  1  0.103993  0  0.115977  0.12188  0  0.97516  0
H  H8  1  0.53262206  0.10434144  0.61676604  1  0.044545  0  0.087271  0.111234  0  1.074711  0
H  H9  1  0.68879318  0.93661787  0.65796975  1  0.081256  0  0.102219  0.15064  0  0.989948  0
H  H10  1  0.67816999  0.91225557  0.50638780  1  0.055364  0  0.103201  0.151163  0  1.00093  0
H  H11  1  0.35647588  0.08146797  0.50088701  1  0.092672  0  0.09911  0.142551  0  1.04298  0
H  H12  1  0.31779694  0.08125683  0.35675232  1  0.058812  0  0.098753  0.148147  0  1.012996  0
H  H13  1  0.48185636  0.89946546  0.37835193  1  0.04119  0  0.093493  0.129443  0  0.996639  0
H  H14  1  0.76965662  0.17256802  0.29725981  1  0.670547  0  0.31935  0.380102  0  0.931331  0
H  H15  1  0.27231602  0.88014525  0.68987361  1  0.679983  0  0.323925  0.391337  0  0.919561  0
C  C16  1  0.39939755  0.46209883  0.27952847  1  1.58827  0  0.271767  0.649898  0  4.06604  0
C  C17  1  0.15243764  0.79710879  0.52241459  1  1.521252  0  0.274703  0.62948  0  4.063538  0
C  C18  1  0.59200811  0.53608547  0.74784238  1  1.571935  0  0.280926  0.654627  0  4.04487  0
C  C19  1  0.85035844  0.21865213  0.49606175  1  1.539987  0  0.272465  0.637836  0  4.055215  0
C  C20  1  0.89744193  0.05059438  0.51899846  1  -0.036686  0  0.004923  0.016324  0  3.845925  0
C  C21  1  0.11660156  0.96132519  0.49210988  1  0.097878  0  -6.7e-05  0.005092  0  3.860142  0
C  C22  1  0.47137755  0.45683550  0.13697636  1  -0.039619  0  0.006579  -0.064466  0  3.890972  0
C  C23  1  0.38726846  0.36791523  0.06479697  1  0.033351  0  0.016104  0.083956  0  3.899449  0
C  C24  1  0.59300627  0.55847806  0.07934435  1  0.023668  0  -0.064314  -0.067486  0  3.944156  0
C  C25  1  0.28653481  0.24688848  0.11189116  1  0.038685  0  -0.066983  -0.096156  0  3.899923  0
C  C26  1  0.19503927  0.16583283  0.04672097  1  -0.143697  0  -0.012281  -0.098887  0  3.932536  0
C  C27  1  0.53625191  0.50580266  0.88302190  1  0.008532  0  0.006404  -0.066025  0  3.857577  0
C  C28  1  0.62914094  0.57955254  0.95267472  1  -0.016612  0  -0.056441  -0.052208  0  3.92019  0
C  C29  1  0.41116151  0.39764668  0.93892476  1  0.02345  0  0.017353  0.087959  0  3.898777  0
C  C30  1  0.31520993  0.31309717  0.87401960  1  0.046837  0  -0.074968  -0.123518  0  3.918174  0
C  C31  1  0.20738241  0.20201225  0.92520706  1  -0.174165  0  -0.006626  -0.080768  0  3.939204  0
C  C32  1  0.68829773  0.99849424  0.57854311  1  -0.052537  0  -0.250915  -0.412797  0  3.987121  0
C  C33  1  0.32971126  0.00858072  0.42847738  1  -0.051538  0  -0.246298  -0.399737  0  3.959069  0
S  S34  1  0.07288104  0.01877350  0.12576782  1  3.111181  0  0.543215  1.15428  0  6.002333  0
S  S35  1  0.08501177  0.11892180  0.83070009  1  3.122333  0  0.549831  1.165389  0  5.986391  0
O  O36  1  0.52123567  0.49717082  0.33444634  1  -1.264691  0  -0.240404  -0.60558  0  2.304295  0
O  O37  1  0.02932979  0.71672600  0.50537558  1  -1.257702  0  -0.212827  -0.560243  0  2.447456  0
O  O38  1  0.76747152  0.58382125  0.69608995  1  -1.259069  0  -0.232017  -0.583639  0  2.320096  0
O  O39  1  0.68760993  0.27408287  0.46076883  1  -1.266312  0  -0.245656  -0.612454  0  2.325312  0
O  O40  1  0.47200047  0.50923027  0.68911606  1  -1.265734  0  -0.228713  -0.578125  0  2.337438  0
O  O41  1  0.96528560  0.30140450  0.52022014  1  -1.253219  0  -0.213868  -0.567848  0  2.463304  0
O  O42  1  0.20507896  0.44051971  0.33934713  1  -1.260876  0  -0.22981  -0.593462  0  2.41528  0
O  O43  1  0.31031795  0.74231802  0.56113787  1  -1.2583  0  -0.235432  -0.592007  0  2.334029  0
O  O44  1  0.75469304  0.57156337  0.46135124  1  -1.440064  0  -0.449923  -0.991836  0  2.189864  0
O  O45  1  0.22938017  0.44796228  0.56808682  1  -1.443395  0  -0.453381  -1.004037  0  2.187747  0
O  O46  1  0.80472307  0.11922724  0.20643192  1  -1.249244  0  -0.354762  -0.520109  0  2.210316  0
O  O47  1  0.09128731  0.88944352  0.03126920  1  -1.291055  0  -0.303925  -0.509875  0  2.191537  0
O  O48  1  0.16701292  0.98157452  0.21796213  1  -1.311524  0  -0.306906  -0.548469  0  2.237797  0
O  O49  1  0.26407516  0.94127763  0.77244843  1  -1.270391  0  -0.345862  -0.517753  0  2.282077  0
O  O50  1  0.85899378  0.11558131  0.91435496  1  -1.290641  0  -0.301388  -0.52215  0  2.197242  0
O  O51  1  0.10457687  0.20732544  0.72656568  1  -1.32941  0  -0.304106  -0.56382  0  2.291344  0
