# generated using pymatgen
data_AlH12C15N2O5
_symmetry_space_group_name_H-M   'P 1'
_cell_length_a   6.65476702
_cell_length_b   15.32443921
_cell_length_c   16.87948407
_cell_angle_alpha   84.85118022
_cell_angle_beta   83.78006237
_cell_angle_gamma   77.09969200
_symmetry_Int_Tables_number   1
_chemical_formula_structural   AlH12C15N2O5
_chemical_formula_sum   'Al2 H24 C30 N4 O10'
_cell_volume   1664.23306289
_cell_formula_units_Z   2
loop_
 _symmetry_equiv_pos_site_id
 _symmetry_equiv_pos_as_xyz
  1  'x, y, z'
loop_
 _atom_site_type_symbol
 _atom_site_label
 _atom_site_symmetry_multiplicity
 _atom_site_fract_x
 _atom_site_fract_y
 _atom_site_fract_z
 _atom_site_occupancy
 _atom_site_pbe_bader_charge
 _atom_site_pbe_bader_spin_density
 _atom_site_pbe_cm5_charge
 _atom_site_pbe_ddec_charge
 _atom_site_pbe_ddec_spin_density
 _atom_site_pbe_ddec_sum_bond_order
 _atom_site_pbe_magmom
Al  Al0  1  0.50223460  0.50172194  0.49896198  1  2.503077  0  0.393782  1.6345  0  2.595812  0
Al  Al1  1  0.00035162  0.50523052  0.49984366  1  2.504391  0  0.396249  1.640131  0  2.590698  0
H  H2  1  0.21204798  0.61175939  0.45486469  1  0.603702  0  0.352613  0.427031  0  0.859941  0
H  H3  1  0.80213550  0.39365229  0.53839689  1  0.61321  0  0.348632  0.418901  0  0.872829  0
H  H4  1  0.86620077  0.54421895  0.73226602  1  0.056699  0  0.104819  0.104048  0  1.01885  0
H  H5  1  0.79793608  0.54643903  0.88180942  1  0.085406  0  0.099855  0.107228  0  1.035102  0
H  H6  1  0.45187420  0.45802081  0.90196615  1  0.069995  0  0.108033  0.121789  0  1.004412  0
H  H7  1  0.61242137  0.46155545  0.10029592  1  0.078534  0  0.108125  0.121162  0  1.004619  0
H  H8  1  0.17618593  0.55039475  0.11308330  1  0.077511  0  0.099464  0.106793  0  1.033639  0
H  H9  1  0.09745409  0.55425190  0.26226379  1  0.104955  0  0.105588  0.10821  0  1.011855  0
H  H10  1  0.18805860  0.06818361  0.43596582  1  0.043464  0  0.099883  0.100911  0  1.027637  0
H  H11  1  0.73846638  0.94106236  0.58741784  1  0.039005  0  0.100116  0.100504  0  1.024909  0
H  H12  1  0.37282316  0.77296686  0.43660782  1  0.082848  0  0.106735  0.106378  0  0.995995  0
H  H13  1  0.29140001  0.93784819  0.42118081  1  0.076384  0  0.102526  0.103876  0  1.01207  0
H  H14  1  0.66235471  0.23013468  0.53538513  1  0.064321  0  0.105103  0.103041  0  1.009595  0
H  H15  1  0.74808369  0.06530177  0.54421333  1  0.059213  0  0.101015  0.101231  0  1.014085  0
H  H16  1  0.59528807  0.45756060  0.68739244  1  0.523759  0  0.307536  0.320291  0  0.974823  0
H  H17  1  0.68192265  0.43646490  0.78296813  1  0.452967  0  0.307121  0.30418  0  0.9565  0
H  H18  1  0.45554334  0.46799189  0.31362102  1  0.50885  0  0.310426  0.322134  0  0.970474  0
H  H19  1  0.39300482  0.44579770  0.22024663  1  0.450865  0  0.306322  0.303168  0  0.95958  0
H  H20  1  0.00519291  0.19328587  0.37654635  1  0.031433  0  0.091196  0.125912  0  0.996557  0
H  H21  1  0.09315313  0.29584887  0.36416080  1  0.056803  0  0.097778  0.14197  0  0.983856  0
H  H22  1  0.92900568  0.27448397  0.44877099  1  0.062877  0  0.094597  0.131647  0  1.020688  0
H  H23  1  0.02677421  0.73801589  0.57893075  1  0.073938  0  0.098292  0.142378  0  0.993478  0
H  H24  1  0.83538923  0.71060947  0.65113618  1  0.047281  0  0.097208  0.139882  0  0.992333  0
H  H25  1  0.90946880  0.81535350  0.65171850  1  0.021774  0  0.091688  0.126157  0  0.997163  0
C  C26  1  0.66476117  0.66426319  0.51323324  1  1.53008  0  0.272665  0.658224  0  4.082185  0
C  C27  1  0.78720227  0.51031480  0.35357837  1  1.50708  0  0.2556  0.640906  0  4.107542  0
C  C28  1  0.33330672  0.34216074  0.48474810  1  1.545741  0  0.268268  0.651839  0  4.082428  0
C  C29  1  0.21674456  0.49639209  0.64503735  1  1.491472  0  0.258759  0.650263  0  4.09688  0
C  C30  1  0.19365758  0.49788990  0.73273410  1  0.019909  0  -0.033898  -0.181535  0  3.933123  0
C  C31  1  0.99216997  0.52386796  0.77076826  1  -0.015904  0  -0.088551  -0.070515  0  4.053841  0
C  C32  1  0.95316030  0.52503307  0.85270103  1  -0.034299  0  -0.115397  -0.211323  0  4.026207  0
C  C33  1  0.12346251  0.49943483  0.89944966  1  0.433855  0  0.084607  0.196899  0  4.080941  0
C  C34  1  0.32469473  0.47584823  0.86368187  1  -0.089396  0  -0.094183  -0.265895  0  3.885347  0
C  C35  1  0.36625134  0.47376801  0.77976419  1  0.506609  0  0.115578  0.323087  0  4.066584  0
C  C36  1  0.71891666  0.48042184  0.13714118  1  -0.056613  0  -0.092541  -0.264195  0  3.884938  0
C  C37  1  0.89926091  0.50257010  0.09964412  1  0.405865  0  0.08457  0.195957  0  4.082748  0
C  C38  1  0.04038933  0.52979110  0.14403013  1  -0.023166  0  -0.115055  -0.212658  0  4.024898  0
C  C39  1  0.99558166  0.53201128  0.22572777  1  -0.034927  0  -0.088748  -0.069074  0  4.048588  0
C  C40  1  0.81710995  0.50743782  0.26594394  1  -0.027781  0  -0.03482  -0.181172  0  3.932071  0
C  C41  1  0.67292332  0.48128791  0.22091557  1  0.479009  0  0.115479  0.322531  0  4.063951  0
C  C42  1  0.37863485  0.24293631  0.48142400  1  0.024496  0  -0.017964  -0.117791  0  3.9358  0
C  C43  1  0.61064182  0.76363954  0.51542694  1  0.0669  0  -0.017417  -0.113521  0  3.939131  0
C  C44  1  0.24520021  0.19673419  0.45069405  1  0.046773  0  0.00409  0.174765  0  3.939626  0
C  C45  1  0.29413457  0.10293586  0.45844153  1  -0.122717  0  -0.094024  -0.203083  0  3.931458  0
C  C46  1  0.71651317  0.81119373  0.55875910  1  -0.068913  0  0.003268  0.171172  0  3.94313  0
C  C47  1  0.66144912  0.90487527  0.55168926  1  0.003659  0  -0.09192  -0.197218  0  3.931989  0
C  C48  1  0.45408975  0.81091701  0.46882853  1  -0.038152  0  -0.08367  -0.083857  0  4.026658  0
C  C49  1  0.40772336  0.90398416  0.46078996  1  -0.077977  0  -0.094744  -0.142978  0  4.002853  0
C  C50  1  0.55879679  0.19360184  0.51373985  1  -0.153172  0  -0.08282  -0.078259  0  4.021397  0
C  C51  1  0.60507741  0.10058721  0.51955379  1  0.053043  0  -0.094008  -0.142703  0  3.995265  0
C  C52  1  0.46980313  0.05269295  0.49352077  1  -0.009757  0  -0.003103  0.083956  0  4.008029  0
C  C53  1  0.51282596  0.95341429  0.50185449  1  0.000476  0  -0.004498  0.078484  0  4.011436  0
C  C54  1  0.05873392  0.24241262  0.40787941  1  -0.045448  0  -0.235509  -0.407651  0  3.960033  0
C  C55  1  0.88013462  0.76642139  0.61313497  1  -0.033178  0  -0.236043  -0.4126  0  3.960504  0
N  N56  1  0.10464692  0.49841623  0.98389633  1  -0.509925  0  -0.147446  -0.132872  0  3.259257  0
N  N57  1  0.92310303  0.49869511  0.01565445  1  -0.50869  0  -0.146425  -0.128965  0  3.269322  0
N  N58  1  0.56461391  0.44690036  0.74740608  1  -1.303312  0  -0.586295  -0.605557  0  3.340747  0
N  N59  1  0.49882773  0.45570887  0.25533011  1  -1.292088  0  -0.586573  -0.60459  0  3.33741  0
O  O60  1  0.51885210  0.62446886  0.50650800  1  -1.266995  0  -0.238585  -0.605463  0  2.343529  0
O  O61  1  0.93997932  0.51868806  0.38983519  1  -1.265368  0  -0.246282  -0.607306  0  2.359786  0
O  O62  1  0.14449155  0.38387938  0.48553600  1  -1.271319  0  -0.232208  -0.593304  0  2.370753  0
O  O63  1  0.39796291  0.49416794  0.60889213  1  -1.26985  0  -0.241973  -0.607773  0  2.37839  0
O  O64  1  0.48493767  0.37932446  0.48945546  1  -1.26789  0  -0.240212  -0.604285  0  2.350418  0
O  O65  1  0.05613321  0.49642230  0.60997434  1  -1.264646  0  -0.244343  -0.60396  0  2.353439  0
O  O66  1  0.85488545  0.62568333  0.51516721  1  -1.267148  0  -0.229929  -0.588109  0  2.361464  0
O  O67  1  0.60862798  0.50475646  0.38872125  1  -1.261363  0  -0.240712  -0.604167  0  2.382841  0
O  O68  1  0.23890891  0.54726894  0.46618543  1  -1.408823  0  -0.449533  -0.989066  0  2.203792  0
O  O69  1  0.76591594  0.45867256  0.53252847  1  -1.419414  0  -0.448153  -0.980091  0  2.195333  0
