# generated using pymatgen
data_CuH9C10IN
_symmetry_space_group_name_H-M   'P 1'
_cell_length_a   4.34679067
_cell_length_b   9.83431570
_cell_length_c   11.09217369
_cell_angle_alpha   87.96204540
_cell_angle_beta   82.94522571
_cell_angle_gamma   79.92370195
_symmetry_Int_Tables_number   1
_chemical_formula_structural   CuH9C10IN
_chemical_formula_sum   'Cu2 H18 C20 I2 N2'
_cell_volume   463.26885145
_cell_formula_units_Z   2
loop_
 _symmetry_equiv_pos_site_id
 _symmetry_equiv_pos_as_xyz
  1  'x, y, z'
loop_
 _atom_site_type_symbol
 _atom_site_label
 _atom_site_symmetry_multiplicity
 _atom_site_fract_x
 _atom_site_fract_y
 _atom_site_fract_z
 _atom_site_occupancy
 _atom_site_hle17_bader_spin_density
 _atom_site_hle17_ddec_charge
 _atom_site_hle17_ddec_spin_density
 _atom_site_hle17_ddec_sum_bond_order
 _atom_site_hle17_magmom
 _atom_site_hse06_10hf_bader_spin_density
 _atom_site_hse06_10hf_ddec_charge
 _atom_site_hse06_10hf_ddec_spin_density
 _atom_site_hse06_10hf_ddec_sum_bond_order
 _atom_site_hse06_10hf_magmom
 _atom_site_hse06_bader_spin_density
 _atom_site_hse06_ddec_charge
 _atom_site_hse06_ddec_spin_density
 _atom_site_hse06_ddec_sum_bond_order
 _atom_site_hse06_magmom
 _atom_site_pbe_bader_spin_density
 _atom_site_pbe_cm5_charge
 _atom_site_pbe_ddec_charge
 _atom_site_pbe_ddec_spin_density
 _atom_site_pbe_ddec_sum_bond_order
 _atom_site_pbe_magmom
Cu  Cu0  1  0.87825233  0.39825806  0.96863966  1  0  0.273237  0  2.081306  0  0  0.1938  0  2.542404  0  0  0.206788  0  2.49006  0  0  0.256045  0.18688  0  2.576711  0
Cu  Cu1  1  0.12176865  0.60174827  0.03136524  1  0  0.273145  0  2.081375  0  0  0.193723  0  2.542455  0  0  0.206667  0  2.490127  0  0  0.255992  0.186812  0  2.576727  0
H  H2  1  0.74155191  0.12034313  0.95535045  1  0  0.068456  0  0.95858  0  0  0.076839  0  1.026721  0  0  0.0794  0  1.024394  0  0  0.1008  0.074595  0  1.029079  0
H  H3  1  0.25846332  0.87966629  0.04465736  1  0  0.068544  0  0.958571  0  0  0.076926  0  1.026715  0  0  0.079491  0  1.024382  0  0  0.1008  0.074682  0  1.029071  0
H  H4  1  0.98375156  0.89986572  0.85020269  1  0  0.098152  0  0.981185  0  0  0.104713  0  1.050383  0  0  0.107998  0  1.049698  0  0  0.089458  0.101193  0  1.052687  0
H  H5  1  0.01624129  0.10014165  0.14980638  1  0  0.098138  0  0.981097  0  0  0.104708  0  1.0503  0  0  0.107991  0  1.049607  0  0  0.089413  0.101185  0  1.0526  0
H  H6  1  0.41284798  0.90402085  0.67787046  1  0  0.095017  0  0.952846  0  0  0.109251  0  1.011997  0  0  0.112215  0  1.009804  0  0  0.101877  0.10706  0  1.013569  0
H  H7  1  0.58712295  0.09598244  0.32212998  1  0  0.095105  0  0.952754  0  0  0.109328  0  1.01192  0  0  0.112268  0  1.009756  0  0  0.101902  0.107134  0  1.013493  0
H  H8  1  0.72940251  0.04580486  0.53674983  1  0  0.086913  0  0.977899  0  0  0.099296  0  1.04427  0  0  0.101599  0  1.043702  0  0  0.096686  0.097403  0  1.045242  0
H  H9  1  0.27056411  0.95419121  0.46324656  1  0  0.086861  0  0.977993  0  0  0.099246  0  1.044375  0  0  0.101547  0  1.043811  0  0  0.096677  0.097352  0  1.045337  0
H  H10  1  0.64905630  0.47975403  0.60170470  1  0  0.089896  0  0.95728  0  0  0.103462  0  1.017256  0  0  0.105982  0  1.016637  0  0  0.097202  0.101646  0  1.017712  0
H  H11  1  0.35095898  0.52024201  0.39828820  1  0  0.08988  0  0.957313  0  0  0.103435  0  1.017289  0  0  0.105962  0  1.016672  0  0  0.09721  0.101621  0  1.017748  0
H  H12  1  0.24386426  0.46396143  0.77649949  1  0  0.085764  0  1.016327  0  0  0.090616  0  1.093925  0  0  0.095479  0  1.088618  0  0  0.080008  0.086856  0  1.098079  0
H  H13  1  0.75616049  0.53604078  0.22350083  1  0  0.085773  0  1.016259  0  0  0.090606  0  1.093951  0  0  0.095473  0  1.088634  0  0  0.080056  0.086849  0  1.098108  0
H  H14  1  0.06082728  0.17774400  0.40891777  1  0  0.100867  0  0.969576  0  0  0.120706  0  1.037045  0  0  0.121788  0  1.037071  0  0  0.08452  0.119881  0  1.03713  0
H  H15  1  0.93916469  0.82224070  0.59107943  1  0  0.100905  0  0.969689  0  0  0.120703  0  1.037167  0  0  0.121784  0  1.037197  0  0  0.084499  0.11986  0  1.037272  0
H  H16  1  0.12344959  0.33578160  0.46658305  1  0  0.106314  0  0.972918  0  0  0.127909  0  1.036108  0  0  0.128578  0  1.03741  0  0  0.087125  0.127245  0  1.035436  0
H  H17  1  0.87655543  0.66420515  0.53341159  1  0  0.106296  0  0.972941  0  0  0.12788  0  1.036129  0  0  0.12855  0  1.037427  0  0  0.087127  0.127216  0  1.035454  0
H  H18  1  0.82811107  0.33573518  0.37046251  1  0  0.109297  0  0.960896  0  0  0.131119  0  1.024616  0  0  0.13186  0  1.02555  0  0  0.085023  0.130403  0  1.024306  0
H  H19  1  0.17189079  0.66425365  0.62953133  1  0  0.109288  0  0.960843  0  0  0.131094  0  1.024585  0  0  0.131835  0  1.02552  0  0  0.085001  0.130381  0  1.024263  0
C  C20  1  0.93013126  0.11933694  0.88051062  1  0  0.138845  0  3.685899  0  0  0.105425  0  3.937479  0  0  0.114696  0  3.952436  0  0  0.041868  0.099009  0  3.928425  0
C  C21  1  0.06987380  0.88066838  0.11949245  1  0  0.1387  0  3.685706  0  0  0.105288  0  3.937306  0  0  0.114543  0  3.952255  0  0  0.041886  0.098879  0  3.928255  0
C  C22  1  0.06621457  0.99560251  0.82059531  1  0  -0.129248  0  3.766854  0  0  -0.138909  0  4.019586  0  0  -0.146334  0  4.039888  0  0  -0.095698  -0.133799  0  4.005884  0
C  C23  1  0.93377043  0.00440694  0.17941141  1  0  -0.129152  0  3.766699  0  0  -0.138814  0  4.019435  0  0  -0.146224  0  4.039716  0  0  -0.095628  -0.133695  0  4.005728  0
C  C24  1  0.29969162  0.99838600  0.72513434  1  0  -0.061259  0  3.715758  0  0  -0.08853  0  3.964418  0  0  -0.083923  0  3.980095  0  0  -0.075405  -0.090869  0  3.952276  0
C  C25  1  0.70028317  0.00161934  0.27486674  1  0  -0.061453  0  3.715914  0  0  -0.088709  0  3.964607  0  0  -0.084085  0  3.980288  0  0  -0.075508  -0.091038  0  3.952457  0
C  C26  1  0.39186678  0.12585956  0.68783594  1  0  0.022081  0  3.8123  0  0  0.04289  0  4.035972  0  0  0.039577  0  4.061315  0  0  -0.008183  0.045357  0  4.018424  0
C  C27  1  0.60811732  0.87414578  0.31216554  1  0  0.022209  0  3.812157  0  0  0.042988  0  4.035905  0  0  0.039675  0  4.061248  0  0  -0.008065  0.045456  0  4.018366  0
C  C28  1  0.62134337  0.13848796  0.58757815  1  0  -0.175347  0  3.715657  0  0  -0.203014  0  3.958622  0  0  -0.207188  0  3.981681  0  0  -0.095932  -0.20045  0  3.943404  0
C  C29  1  0.37864149  0.86150913  0.41241995  1  0  -0.175369  0  3.715701  0  0  -0.203036  0  3.958668  0  0  -0.207213  0  3.98173  0  0  -0.095983  -0.200465  0  3.943444  0
C  C30  1  0.70979302  0.26392094  0.55350197  1  0  0.143994  0  3.770445  0  0  0.172099  0  4.004008  0  0  0.172688  0  4.028411  0  0  -0.00889  0.171583  0  3.98738  0
C  C31  1  0.29020396  0.73607510  0.44649911  1  0  0.144002  0  3.770456  0  0  0.172119  0  4.003977  0  0  0.172707  0  4.028381  0  0  -0.008926  0.171612  0  3.987348  0
C  C32  1  0.57113070  0.38138731  0.62433568  1  0  -0.10121  0  3.709048  0  0  -0.121333  0  3.954478  0  0  -0.123024  0  3.974984  0  0  -0.088206  -0.119888  0  3.940071  0
C  C33  1  0.42888736  0.61860769  0.37565891  1  0  -0.10141  0  3.709225  0  0  -0.121521  0  3.954669  0  0  -0.123222  0  3.975183  0  0  -0.088237  -0.120071  0  3.940268  0
C  C34  1  0.34639546  0.37343910  0.72200650  1  0  -0.126534  0  3.73464  0  0  -0.148964  0  3.993309  0  0  -0.151662  0  4.011019  0  0  -0.093106  -0.147104  0  3.981157  0
C  C35  1  0.65362456  0.62656313  0.27799136  1  0  -0.126339  0  3.734733  0  0  -0.148775  0  3.993396  0  0  -0.151472  0  4.011104  0  0  -0.093134  -0.146916  0  3.98126  0
C  C36  1  0.24791478  0.24637749  0.75538549  1  0  0.190616  0  3.740152  0  0  0.188649  0  3.968899  0  0  0.193234  0  3.992171  0  0  0.103752  0.185902  0  3.95322  0
C  C37  1  0.75209099  0.75362576  0.24461491  1  0  0.190534  0  3.740176  0  0  0.188544  0  3.969022  0  0  0.193114  0  3.992292  0  0  0.103734  0.185797  0  3.953369  0
C  C38  1  0.94299522  0.27847293  0.44452312  1  0  -0.338669  0  3.733001  0  0  -0.423288  0  3.968252  0  0  -0.425464  0  3.978783  0  0  -0.245359  -0.421316  0  3.96105  0
C  C39  1  0.05700167  0.72151693  0.55547275  1  0  -0.338601  0  3.733158  0  0  -0.423159  0  3.968371  0  0  -0.425335  0  3.978914  0  0  -0.245264  -0.42118  0  3.961176  0
I  I40  1  0.65168031  0.64855131  0.88972799  1  0  -0.371458  0  1.677267  0  0  -0.311278  0  2.123014  0  0  -0.328057  0  2.081622  0  0  -0.159368  -0.299489  0  2.152184  0
I  I41  1  0.34833251  0.35145194  0.11027474  1  0  -0.371441  0  1.677285  0  0  -0.311244  0  2.123036  0  0  -0.328054  0  2.081682  0  0  -0.159342  -0.299459  0  2.15222  0
N  N42  1  0.01967200  0.24051299  0.85222216  1  0  -0.305711  0  3.325624  0  0  -0.231439  0  3.60476  0  0  -0.246184  0  3.61627  0  0  -0.354216  -0.222097  0  3.597523  0
N  N43  1  0.98033420  0.75948923  0.14777915  1  0  -0.305632  0  3.325598  0  0  -0.231351  0  3.604709  0  0  -0.246049  0  3.616178  0  0  -0.354213  -0.222012  0  3.597479  0
