# generated using pymatgen
data_CdH24(C14N9)2
_symmetry_space_group_name_H-M   'P 1'
_cell_length_a   8.52382575
_cell_length_b   9.32189353
_cell_length_c   9.73818077
_cell_angle_alpha   94.79056441
_cell_angle_beta   95.45735900
_cell_angle_gamma   97.37887806
_symmetry_Int_Tables_number   1
_chemical_formula_structural   CdH24(C14N9)2
_chemical_formula_sum   'Cd1 H24 C28 N18'
_cell_volume   760.29223172
_cell_formula_units_Z   1
loop_
 _symmetry_equiv_pos_site_id
 _symmetry_equiv_pos_as_xyz
  1  'x, y, z'
loop_
 _atom_site_type_symbol
 _atom_site_label
 _atom_site_symmetry_multiplicity
 _atom_site_fract_x
 _atom_site_fract_y
 _atom_site_fract_z
 _atom_site_occupancy
 _atom_site_hle17_bader_spin_density
 _atom_site_hle17_ddec_charge
 _atom_site_hle17_ddec_spin_density
 _atom_site_hle17_ddec_sum_bond_order
 _atom_site_hle17_magmom
 _atom_site_hse06_10hf_bader_spin_density
 _atom_site_hse06_10hf_ddec_charge
 _atom_site_hse06_10hf_ddec_spin_density
 _atom_site_hse06_10hf_ddec_sum_bond_order
 _atom_site_hse06_10hf_magmom
 _atom_site_hse06_bader_spin_density
 _atom_site_hse06_ddec_charge
 _atom_site_hse06_ddec_spin_density
 _atom_site_hse06_ddec_sum_bond_order
 _atom_site_hse06_magmom
 _atom_site_pbe_bader_spin_density
 _atom_site_pbe_cm5_charge
 _atom_site_pbe_ddec_charge
 _atom_site_pbe_ddec_spin_density
 _atom_site_pbe_ddec_sum_bond_order
 _atom_site_pbe_magmom
Cd  Cd0  1  0.00000000  0.00000000  0.00000000  1  0  1.065636  0  1.922504  0  0  0.863843  0  2.398475  0  0  0.91104  0  2.35585  0  0  0.809401  0.830235  0  2.427857  0
H  H1  1  0.67446636  0.58095645  0.25486347  1  0  0.099508  0  0.982591  0  0  0.10657  0  1.049684  0  0  0.109103  0  1.048778  0  0  0.09758  0.104924  0  1.050079  0
H  H2  1  0.32553232  0.41904409  0.74513711  1  0  0.099519  0  0.982573  0  0  0.106582  0  1.049665  0  0  0.109116  0  1.048759  0  0  0.097584  0.104936  0  1.050057  0
H  H3  1  0.85321416  0.75151597  0.43007557  1  0  0.086188  0  0.964026  0  0  0.095625  0  1.027067  0  0  0.097877  0  1.026959  0  0  0.096735  0.093893  0  1.027217  0
H  H4  1  0.14678452  0.24848457  0.56992398  1  0  0.086166  0  0.96405  0  0  0.095596  0  1.027098  0  0  0.097847  0  1.026991  0  0  0.096722  0.093862  0  1.027249  0
H  H5  1  0.92412791  0.67402088  0.66510475  1  0  0.082716  0  0.962321  0  0  0.09268  0  1.027372  0  0  0.094846  0  1.026735  0  0  0.096576  0.091303  0  1.027358  0
H  H6  1  0.07587194  0.32597966  0.33489593  1  0  0.082698  0  0.962338  0  0  0.092683  0  1.027366  0  0  0.094849  0  1.026729  0  0  0.096586  0.091307  0  1.027361  0
H  H7  1  0.81839012  0.42901467  0.72115320  1  0  0.08784  0  0.969302  0  0  0.098883  0  1.03076  0  0  0.100896  0  1.030889  0  0  0.098842  0.09773  0  1.030011  0
H  H8  1  0.18161091  0.57098587  0.27884655  1  0  0.087818  0  0.969287  0  0  0.098858  0  1.030758  0  0  0.100873  0  1.030884  0  0  0.098817  0.097706  0  1.030008  0
H  H9  1  0.52770788  0.23619703  0.63795703  1  0  0.102587  0  0.921302  0  0  0.117544  0  0.985894  0  0  0.117856  0  0.986415  0  0  0.121725  0.116945  0  0.986109  0
H  H10  1  0.47229214  0.76380459  0.36204169  1  0  0.102565  0  0.921348  0  0  0.11752  0  0.985927  0  0  0.117831  0  0.986447  0  0  0.121726  0.116919  0  0.986146  0
H  H11  1  0.55273619  0.14761178  0.47415882  1  0  0.096064  0  0.935854  0  0  0.105619  0  1.006566  0  0  0.107755  0  1.004123  0  0  0.118666  0.103952  0  1.008258  0
H  H12  1  0.44726366  0.85238876  0.52584083  1  0  0.096077  0  0.935854  0  0  0.105627  0  1.006567  0  0  0.107762  0  1.004124  0  0  0.118663  0.10396  0  1.008257  0
H  H13  1  0.43273011  0.25530963  0.31318361  1  0  0.101334  0  0.915908  0  0  0.11574  0  0.977102  0  0  0.117176  0  0.976177  0  0  0.121724  0.114846  0  0.977558  0
H  H14  1  0.56726974  0.74469091  0.68681605  1  0  0.101323  0  0.915905  0  0  0.115736  0  0.977096  0  0  0.117173  0  0.976171  0  0  0.121713  0.114838  0  0.977551  0
H  H15  1  0.50371843  0.37099819  0.19086461  1  0  0.094447  0  0.938485  0  0  0.106642  0  1.004889  0  0  0.106265  0  1.006225  0  0  0.115199  0.107116  0  1.003307  0
H  H16  1  0.49628261  0.62900234  0.80913514  1  0  0.094455  0  0.938465  0  0  0.10665  0  1.004876  0  0  0.106274  0  1.006211  0  0  0.115202  0.107121  0  1.003293  0
H  H17  1  0.01630702  0.95579671  0.63042440  1  0  0.088815  0  0.972035  0  0  0.092244  0  1.045592  0  0  0.095002  0  1.042584  0  0  0.128354  0.09006  0  1.047776  0
H  H18  1  0.98369418  0.04420491  0.36957546  1  0  0.088816  0  0.972041  0  0  0.092245  0  1.045592  0  0  0.095002  0  1.042586  0  0  0.128369  0.090062  0  1.047778  0
H  H19  1  0.69535155  0.17378441  0.84445840  1  0  0.104995  0  0.971687  0  0  0.112823  0  1.039218  0  0  0.114688  0  1.037142  0  0  0.137064  0.111275  0  1.040974  0
H  H20  1  0.30464814  0.82621504  0.15554116  1  0  0.104982  0  0.971707  0  0  0.112809  0  1.039235  0  0  0.114675  0  1.037158  0  0  0.137055  0.111262  0  1.040992  0
H  H21  1  0.63871136  0.86160019  0.12689415  1  0  0.104477  0  0.96421  0  0  0.10989  0  1.031632  0  0  0.112377  0  1.028708  0  0  0.128871  0.108134  0  1.033619  0
H  H22  1  0.36128849  0.13840035  0.87310654  1  0  0.104462  0  0.964181  0  0  0.10988  0  1.031598  0  0  0.112368  0  1.028674  0  0  0.128864  0.108126  0  1.033584  0
H  H23  1  0.83354247  0.30325020  0.15015069  1  0  0.111099  0  0.946998  0  0  0.116246  0  1.017958  0  0  0.119003  0  1.015049  0  0  0.140471  0.114229  0  1.020085  0
H  H24  1  0.16645722  0.69674925  0.84984887  1  0  0.111092  0  0.946982  0  0  0.116246  0  1.017933  0  0  0.118999  0  1.015035  0  0  0.140472  0.114227  0  1.020059  0
C  C25  1  0.68472573  0.36577024  0.52115068  1  0  0.030788  0  3.706325  0  0  0.043367  0  3.95249  0  0  0.04232  0  3.977232  0  0  -0.011206  0.043811  0  3.936075  0
C  C26  1  0.31527513  0.63422921  0.47884898  1  0  0.030766  0  3.706367  0  0  0.043359  0  3.952514  0  0  0.042311  0  3.977251  0  0  -0.011189  0.043805  0  3.93609  0
C  C27  1  0.64556094  0.40909893  0.38857780  1  0  0.017728  0  3.733645  0  0  0.033364  0  3.97278  0  0  0.030908  0  3.998803  0  0  -0.015282  0.035182  0  3.955235  0
C  C28  1  0.35443875  0.59090052  0.61142279  1  0  0.017739  0  3.733687  0  0  0.033367  0  3.972828  0  0  0.030914  0  3.998851  0  0  -0.015284  0.035186  0  3.955278  0
C  C29  1  0.70696902  0.54800665  0.35744087  1  0  -0.113  0  3.750533  0  0  -0.130534  0  3.99379  0  0  -0.133152  0  4.016252  0  0  -0.091572  -0.129255  0  3.978838  0
C  C30  1  0.29303100  0.45199497  0.64255889  1  0  -0.113039  0  3.750545  0  0  -0.13057  0  3.993798  0  0  -0.133187  0  4.016258  0  0  -0.091575  -0.129288  0  3.978837  0
C  C31  1  0.80648870  0.64381873  0.45586916  1  0  -0.070101  0  3.781129  0  0  -0.082729  0  4.026527  0  0  -0.084973  0  4.048699  0  0  -0.096377  -0.08122  0  4.011831  0
C  C32  1  0.19350998  0.35618181  0.54413040  1  0  -0.07004  0  3.781118  0  0  -0.082664  0  4.026515  0  0  -0.084908  0  4.048687  0  0  -0.096369  -0.08115  0  4.011821  0
C  C33  1  0.84668517  0.60041382  0.58687295  1  0  -0.059253  0  3.778361  0  0  -0.072267  0  4.026539  0  0  -0.073881  0  4.049218  0  0  -0.090433  -0.071444  0  4.011284  0
C  C34  1  0.15331469  0.39958672  0.41312671  1  0  -0.059253  0  3.778341  0  0  -0.072284  0  4.026525  0  0  -0.073898  0  4.049204  0  0  -0.09044  -0.07147  0  4.011286  0
C  C35  1  0.78596141  0.46236675  0.61867577  1  0  -0.110887  0  3.744249  0  0  -0.131221  0  3.991756  0  0  -0.134782  0  4.015421  0  0  -0.093401  -0.129086  0  3.975596  0
C  C36  1  0.21403962  0.53763378  0.38132399  1  0  -0.110842  0  3.744181  0  0  -0.131184  0  3.991698  0  0  -0.134744  0  4.015359  0  0  -0.093376  -0.129048  0  3.975538  0
C  C37  1  0.61384534  0.22007718  0.56280850  1  0  -0.054197  0  3.637344  0  0  -0.136606  0  3.89208  0  0  -0.132159  0  3.901045  0  0  -0.042029  -0.139087  0  3.886069  0
C  C38  1  0.38615553  0.77992227  0.43719116  1  0  -0.054194  0  3.637403  0  0  -0.136581  0  3.892109  0  0  -0.132132  0  3.901077  0  0  -0.042026  -0.139064  0  3.886096  0
C  C39  1  0.54075496  0.30941518  0.27671155  1  0  -0.056234  0  3.642603  0  0  -0.134286  0  3.88989  0  0  -0.12967  0  3.899965  0  0  -0.042252  -0.137023  0  3.882454  0
C  C40  1  0.45924489  0.69058535  0.72328810  1  0  -0.05621  0  3.642584  0  0  -0.134268  0  3.889879  0  0  -0.129655  0  3.899955  0  0  -0.042252  -0.137004  0  3.882437  0
C  C41  1  0.92075677  0.01743423  0.65417203  1  0  0.189983  0  3.723871  0  0  0.140219  0  4.010181  0  0  0.151362  0  4.02325  0  0  0.137246  0.133465  0  3.99973  0
C  C42  1  0.07924443  0.98256739  0.34582680  1  0  0.19011  0  3.723992  0  0  0.140348  0  4.010282  0  0  0.151493  0  4.023348  0  0  0.137319  0.133587  0  3.999841  0
C  C43  1  0.76192737  0.12800110  0.76615019  1  0  0.179941  0  3.659462  0  0  0.096511  0  3.930938  0  0  0.112086  0  3.941322  0  0  0.160718  0.086726  0  3.923579  0
C  C44  1  0.23807232  0.87199835  0.23384834  1  0  0.179953  0  3.659352  0  0  0.096533  0  3.930823  0  0  0.112111  0  3.941201  0  0  0.16073  0.086746  0  3.923466  0
C  C45  1  0.65811667  0.97904193  0.15030321  1  0  0.195355  0  3.701169  0  0  0.143993  0  3.987593  0  0  0.154856  0  4.00102  0  0  0.137833  0.136983  0  3.978346  0
C  C46  1  0.34188420  0.02095753  0.84969748  1  0  0.195399  0  3.701179  0  0  0.144037  0  3.987605  0  0  0.154901  0  4.001033  0  0  0.137838  0.137017  0  3.978368  0
C  C47  1  0.75922515  0.20193530  0.16065455  1  0  0.167081  0  3.635759  0  0  0.090845  0  3.900294  0  0  0.1048  0  3.912092  0  0  0.15993  0.081663  0  3.892986  0
C  C48  1  0.24077454  0.79806415  0.83934501  1  0  0.167151  0  3.635662  0  0  0.090908  0  3.900215  0  0  0.104861  0  3.91201  0  0  0.15994  0.081731  0  3.892897  0
C  C49  1  0.83192815  0.63476345  0.97979435  1  0  0.522158  0  3.994926  0  0  0.484061  0  4.279032  0  0  0.510726  0  4.288645  0  0  0.303002  0.465909  0  4.27165  0
C  C50  1  0.16807053  0.36523709  0.02020624  1  0  0.522221  0  3.994893  0  0  0.484123  0  4.278992  0  0  0.510788  0  4.288605  0  0  0.303024  0.465965  0  4.271624  0
C  C51  1  0.65097399  0.42601776  0.94847931  1  0  0.442007  0  4.046008  0  0  0.408826  0  4.349341  0  0  0.431914  0  4.361199  0  0  0.277531  0.393702  0  4.338838  0
C  C52  1  0.34902452  0.57398170  0.05152220  1  0  0.442128  0  4.045851  0  0  0.408938  0  4.349191  0  0  0.432029  0  4.361043  0  0  0.277547  0.393821  0  4.338686  0
N  N53  1  0.73227468  0.14218167  0.63036612  1  0  0.049603  0  3.566973  0  0  0.170914  0  3.75524  0  0  0.160216  0  3.778229  0  0  -0.131415  0.176325  0  3.741736  0
N  N54  1  0.26772753  0.85781887  0.36963374  1  0  0.049586  0  3.566842  0  0  0.170884  0  3.75512  0  0  0.160169  0  3.778135  0  0  -0.131455  0.176298  0  3.741611  0
N  N55  1  0.83264145  0.07205930  0.55652727  1  0  -0.287072  0  2.851962  0  0  -0.288177  0  3.120243  0  0  -0.296111  0  3.133406  0  0  -0.230687  -0.282219  0  3.110966  0
N  N56  1  0.16735841  0.92794123  0.44347239  1  0  -0.287177  0  2.852079  0  0  -0.288287  0  3.12037  0  0  -0.296218  0  3.133532  0  0  -0.230758  -0.282322  0  3.111086  0
N  N57  1  0.88119358  0.04953029  0.78469699  1  0  -0.409262  0  3.203952  0  0  -0.335943  0  3.495065  0  0  -0.35799  0  3.508876  0  0  -0.348424  -0.320873  0  3.484603  0
N  N58  1  0.11880745  0.95047024  0.21530277  1  0  -0.409279  0  3.204001  0  0  -0.335961  0  3.495109  0  0  -0.358006  0  3.508915  0  0  -0.348419  -0.320892  0  3.484654  0
N  N59  1  0.62248661  0.19200726  0.21981462  1  0  0.048282  0  3.548044  0  0  0.167355  0  3.736379  0  0  0.156375  0  3.760678  0  0  -0.129962  0.172952  0  3.723058  0
N  N60  1  0.37751442  0.80799328  0.78018616  1  0  0.048239  0  3.548  0  0  0.167308  0  3.736347  0  0  0.156331  0  3.760642  0  0  -0.129973  0.172904  0  3.723024  0
N  N61  1  0.55645834  0.05041962  0.21460363  1  0  -0.282897  0  2.869594  0  0  -0.283378  0  3.14339  0  0  -0.29152  0  3.157313  0  0  -0.224412  -0.27726  0  3.133821  0
N  N62  1  0.44354269  0.94958092  0.78539715  1  0  -0.282915  0  2.869589  0  0  -0.283399  0  3.143393  0  0  -0.291542  0  3.157318  0  0  -0.224409  -0.277278  0  3.133825  0
N  N63  1  0.78492139  0.06844614  0.11520202  1  0  -0.410104  0  3.185064  0  0  -0.334184  0  3.471037  0  0  -0.355681  0  3.485432  0  0  -0.345462  -0.319694  0  3.461575  0
N  N64  1  0.21507964  0.93155440  0.88479773  1  0  -0.410136  0  3.185036  0  0  -0.334214  0  3.471019  0  0  -0.35571  0  3.485412  0  0  -0.345466  -0.319727  0  3.461561  0
N  N65  1  0.78498650  0.50183238  0.00127205  1  0  -0.477903  0  3.309552  0  0  -0.425496  0  3.575849  0  0  -0.449455  0  3.580911  0  0  -0.318499  -0.408361  0  3.570015  0
N  N66  1  0.21501050  0.49816490  0.99872814  1  0  -0.477955  0  3.309503  0  0  -0.425544  0  3.575808  0  0  -0.4495  0  3.580859  0  0  -0.318492  -0.408406  0  3.569974  0
N  N67  1  0.88730273  0.75447853  0.96533906  1  0  -0.624848  0  2.783577  0  0  -0.57168  0  3.059934  0  0  -0.593578  0  3.06287  0  0  -0.398369  -0.556311  0  3.057571  0
N  N68  1  0.11269680  0.24551984  0.03466245  1  0  -0.624915  0  2.783512  0  0  -0.57175  0  3.059875  0  0  -0.593651  0  3.062814  0  0  -0.3984  -0.556379  0  3.057524  0
N  N69  1  0.53555718  0.34349044  0.90711679  1  0  -0.580062  0  2.631165  0  0  -0.555388  0  2.877154  0  0  -0.570984  0  2.883993  0  0  -0.372988  -0.544414  0  2.871617  0
N  N70  1  0.46444134  0.65650902  0.09288473  1  0  -0.580122  0  2.631147  0  0  -0.555441  0  2.877139  0  0  -0.571038  0  2.883977  0  0  -0.372987  -0.54447  0  2.871607  0
