# generated using pymatgen
data_CdH9C12N3O4
_symmetry_space_group_name_H-M   'P 1'
_cell_length_a   7.80891482
_cell_length_b   8.71235617
_cell_length_c   8.77668874
_cell_angle_alpha   84.74134935
_cell_angle_beta   88.84993570
_cell_angle_gamma   88.02741321
_symmetry_Int_Tables_number   1
_chemical_formula_structural   CdH9C12N3O4
_chemical_formula_sum   'Cd2 H18 C24 N6 O8'
_cell_volume   594.16225760
_cell_formula_units_Z   2
loop_
 _symmetry_equiv_pos_site_id
 _symmetry_equiv_pos_as_xyz
  1  'x, y, z'
loop_
 _atom_site_type_symbol
 _atom_site_label
 _atom_site_symmetry_multiplicity
 _atom_site_fract_x
 _atom_site_fract_y
 _atom_site_fract_z
 _atom_site_occupancy
 _atom_site_hle17_bader_spin_density
 _atom_site_hle17_ddec_charge
 _atom_site_hle17_ddec_spin_density
 _atom_site_hle17_ddec_sum_bond_order
 _atom_site_hle17_magmom
 _atom_site_hse06_10hf_bader_spin_density
 _atom_site_hse06_10hf_ddec_charge
 _atom_site_hse06_10hf_ddec_spin_density
 _atom_site_hse06_10hf_ddec_sum_bond_order
 _atom_site_hse06_10hf_magmom
 _atom_site_hse06_bader_spin_density
 _atom_site_hse06_ddec_charge
 _atom_site_hse06_ddec_spin_density
 _atom_site_hse06_ddec_sum_bond_order
 _atom_site_hse06_magmom
 _atom_site_pbe_bader_spin_density
 _atom_site_pbe_cm5_charge
 _atom_site_pbe_ddec_charge
 _atom_site_pbe_ddec_spin_density
 _atom_site_pbe_ddec_sum_bond_order
 _atom_site_pbe_magmom
Cd  Cd0  1  0.25372151  0.38085235  0.57225820  1  0  1.162586  0  1.651747  0  0  0.965309  0  2.103242  0  0  1.023437  0  2.048812  0  0  0.800088  0.92368  0  2.141493  0
Cd  Cd1  1  0.74627781  0.61914749  0.42774245  1  0  1.162559  0  1.6518  0  0  0.965264  0  2.103336  0  0  1.023391  0  2.048906  0  0  0.800065  0.923634  0  2.141579  0
H  H2  1  0.15300006  0.16131739  0.87863835  1  0  0.075789  0  0.946298  0  0  0.082113  0  1.015329  0  0  0.084705  0  1.013077  0  0  0.112723  0.079984  0  1.017589  0
H  H3  1  0.84699419  0.83868130  0.12136134  1  0  0.07583  0  0.946241  0  0  0.082129  0  1.015304  0  0  0.084723  0  1.013049  0  0  0.112708  0.080001  0  1.017574  0
H  H4  1  0.11123295  0.88213271  0.96810314  1  0  0.096256  0  0.962061  0  0  0.108076  0  1.020649  0  0  0.110502  0  1.020969  0  0  0.103198  0.105413  0  1.022815  0
H  H5  1  0.88876262  0.11786483  0.03189549  1  0  0.09628  0  0.962061  0  0  0.108099  0  1.02065  0  0  0.110527  0  1.020969  0  0  0.103197  0.105434  0  1.022818  0
H  H6  1  0.14916473  0.68537666  0.77395417  1  0  0.101645  0  0.971809  0  0  0.11151  0  1.032539  0  0  0.114049  0  1.031272  0  0  0.105978  0.109403  0  1.033858  0
H  H7  1  0.85083465  0.31462203  0.22604316  1  0  0.101684  0  0.971737  0  0  0.111507  0  1.032519  0  0  0.114043  0  1.031251  0  0  0.105987  0.109399  0  1.03384  0
H  H8  1  0.22668333  0.77450270  0.50543968  1  0  0.133288  0  0.95138  0  0  0.142683  0  1.010263  0  0  0.146438  0  1.008283  0  0  0.112156  0.140103  0  1.011698  0
H  H9  1  0.77331853  0.22549829  0.49455854  1  0  0.133312  0  0.951331  0  0  0.142695  0  1.010237  0  0  0.14645  0  1.008256  0  0  0.11217  0.140113  0  1.011672  0
H  H10  1  0.37229731  0.88302640  0.25737391  1  0  0.15042  0  0.960306  0  0  0.15801  0  1.020443  0  0  0.162039  0  1.018658  0  0  0.111784  0.154801  0  1.02219  0
H  H11  1  0.62770838  0.11697459  0.74262881  1  0  0.150478  0  0.960227  0  0  0.158073  0  1.020361  0  0  0.162104  0  1.018575  0  0  0.11182  0.154864  0  1.02211  0
H  H12  1  0.44041491  0.13117964  0.04611204  1  0  0.119858  0  0.94551  0  0  0.132009  0  1.006183  0  0  0.134665  0  1.004107  0  0  0.129267  0.12991  0  1.007627  0
H  H13  1  0.55958702  0.86881905  0.95388867  1  0  0.119887  0  0.945474  0  0  0.132032  0  1.006154  0  0  0.134696  0  1.004068  0  0  0.129267  0.129932  0  1.007601  0
H  H14  1  0.42671404  0.40018723  0.04355171  1  0  0.095532  0  0.953839  0  0  0.106213  0  1.01638  0  0  0.108509  0  1.015623  0  0  0.126379  0.104536  0  1.017222  0
H  H15  1  0.57328529  0.59981261  0.95644780  1  0  0.095534  0  0.953836  0  0  0.106217  0  1.016378  0  0  0.10851  0  1.015626  0  0  0.126382  0.104541  0  1.017222  0
H  H16  1  0.11836595  0.43598827  0.04618160  1  0  0.120784  0  0.945245  0  0  0.130996  0  1.012145  0  0  0.134184  0  1.010311  0  0  0.102297  0.128538  0  1.013874  0
H  H17  1  0.88163334  0.56401272  0.95381780  1  0  0.120776  0  0.945253  0  0  0.130992  0  1.012165  0  0  0.13418  0  1.010332  0  0  0.102309  0.128534  0  1.013897  0
H  H18  1  0.22271440  0.61005111  0.05390846  1  0  0.121894  0  0.918242  0  0  0.141065  0  0.973475  0  0  0.143175  0  0.972641  0  0  0.110947  0.139384  0  0.974853  0
H  H19  1  0.77728621  0.38994873  0.94609217  1  0  0.121868  0  0.918252  0  0  0.141048  0  0.973488  0  0  0.143157  0  0.972655  0  0  0.110944  0.13937  0  0.974863  0
C  C20  1  0.16766217  0.07086162  0.80072167  1  0  0.130746  0  3.748403  0  0  0.099186  0  4.004284  0  0  0.106371  0  4.022951  0  0  0.044321  0.095119  0  3.99153  0
C  C21  1  0.83233212  0.92913592  0.19927813  1  0  0.130766  0  3.748328  0  0  0.09921  0  4.004219  0  0  0.106394  0  4.022887  0  0  0.044369  0.095139  0  3.991468  0
C  C22  1  0.14397296  0.91606925  0.84879182  1  0  -0.143246  0  3.757778  0  0  -0.156343  0  4.013046  0  0  -0.163468  0  4.0349  0  0  -0.092914  -0.153157  0  4.000245  0
C  C23  1  0.85602381  0.08393060  0.15120659  1  0  -0.143372  0  3.75775  0  0  -0.15646  0  4.013005  0  0  -0.163586  0  4.034858  0  0  -0.092944  -0.15327  0  4.0002  0
C  C24  1  0.16561208  0.80778096  0.74167964  1  0  0.012089  0  3.695484  0  0  -0.011836  0  3.953475  0  0  -0.007696  0  3.970818  0  0  -0.068299  -0.013851  0  3.942133  0
C  C25  1  0.83438601  0.19221773  0.25831885  1  0  0.012187  0  3.695424  0  0  -0.011709  0  3.953425  0  0  -0.007565  0  3.970764  0  0  -0.068271  -0.013725  0  3.942082  0
C  C26  1  0.21046902  0.85697332  0.59108414  1  0  -0.119435  0  3.633796  0  0  -0.140492  0  3.883519  0  0  -0.145967  0  3.9012  0  0  -0.075607  -0.137286  0  3.872528  0
C  C27  1  0.78953155  0.14302768  0.40891410  1  0  -0.119527  0  3.633798  0  0  -0.140585  0  3.88354  0  0  -0.146063  0  3.901219  0  0  -0.075636  -0.137379  0  3.87255  0
C  C28  1  0.23421509  0.01402907  0.55212422  1  0  0.193329  0  3.787219  0  0  0.191918  0  4.026484  0  0  0.198638  0  4.046978  0  0  0.1219  0.187256  0  4.012458  0
C  C29  1  0.76578556  0.98596961  0.44787651  1  0  0.19335  0  3.787211  0  0  0.191927  0  4.026461  0  0  0.198647  0  4.046955  0  0  0.121887  0.187271  0  4.012429  0
C  C30  1  0.28680428  0.07667288  0.39848059  1  0  0.130663  0  3.810234  0  0  0.118107  0  4.072793  0  0  0.124819  0  4.093128  0  0  0.096926  0.113581  0  4.058471  0
C  C31  1  0.71320017  0.92332695  0.60151997  1  0  0.130632  0  3.810359  0  0  0.118134  0  4.072844  0  0  0.124847  0  4.093178  0  0  0.096945  0.113602  0  4.058525  0
C  C32  1  0.35060710  0.00518054  0.26958345  1  0  -0.220073  0  3.704505  0  0  -0.24272  0  3.971876  0  0  -0.251437  0  3.991573  0  0  -0.107298  -0.233987  0  3.9559  0
C  C33  1  0.64939879  0.99481469  0.73041864  1  0  -0.220132  0  3.704757  0  0  -0.24279  0  3.97209  0  0  -0.251508  0  3.991789  0  0  -0.107358  -0.234051  0  3.956112  0
C  C34  1  0.38796295  0.12686860  0.16178246  1  0  -0.000211  0  3.651506  0  0  -0.06322  0  3.915826  0  0  -0.056587  0  3.931668  0  0  0.023456  -0.066022  0  3.902669  0
C  C35  1  0.61204274  0.87313239  0.83821684  1  0  -0.000233  0  3.651694  0  0  -0.063241  0  3.916005  0  0  -0.056615  0  3.931846  0  0  0.023484  -0.066044  0  3.902852  0
C  C36  1  0.48613980  0.51391751  0.24058154  1  0  0.63527  0  3.902386  0  0  0.583151  0  4.209765  0  0  0.616709  0  4.203641  0  0  0.196483  0.559692  0  4.213189  0
C  C37  1  0.51385953  0.48608234  0.75941797  1  0  0.635299  0  3.902392  0  0  0.583213  0  4.209707  0  0  0.61677  0  4.203583  0  0  0.196505  0.559749  0  4.213134  0
C  C38  1  0.36481057  0.41702969  0.15511275  1  0  -0.013366  0  3.607523  0  0  -0.050427  0  3.846228  0  0  -0.052054  0  3.858043  0  0  0.01968  -0.049207  0  3.838088  0
C  C39  1  0.63518876  0.58297015  0.84488676  1  0  -0.013344  0  3.607535  0  0  -0.050411  0  3.846225  0  0  -0.052039  0  3.858043  0  0  0.019699  -0.049191  0  3.838088  0
C  C40  1  0.19308627  0.50094808  0.12122910  1  0  -0.297803  0  3.652638  0  0  -0.346972  0  3.912073  0  0  -0.352313  0  3.918173  0  0  -0.165151  -0.342961  0  3.908379  0
C  C41  1  0.80691306  0.49905176  0.87877155  1  0  -0.297746  0  3.652605  0  0  -0.346951  0  3.912086  0  0  -0.352292  0  3.918189  0  0  -0.165167  -0.342938  0  3.908397  0
C  C42  1  0.08316840  0.54465511  0.25713080  1  0  0.709494  0  3.851532  0  0  0.657306  0  4.156519  0  0  0.691764  0  4.1493  0  0  0.204974  0.633248  0  4.162792  0
C  C43  1  0.91683225  0.45534358  0.74286879  1  0  0.709479  0  3.851517  0  0  0.657293  0  4.156519  0  0  0.691751  0  4.1493  0  0  0.204971  0.633226  0  4.162803  0
N  N44  1  0.21213458  0.11845229  0.65661852  1  0  -0.37729  0  3.254958  0  0  -0.306645  0  3.515547  0  0  -0.326442  0  3.533896  0  0  -0.325164  -0.291688  0  3.500682  0
N  N45  1  0.78786343  0.88154871  0.34338091  1  0  -0.377311  0  3.254986  0  0  -0.306654  0  3.515572  0  0  -0.32645  0  3.533919  0  0  -0.325183  -0.291697  0  3.500704  0
N  N46  1  0.28442564  0.23115077  0.36840367  1  0  -0.321497  0  3.12721  0  0  -0.284603  0  3.391883  0  0  -0.301166  0  3.409875  0  0  -0.242231  -0.275635  0  3.382022  0
N  N47  1  0.71557625  0.76884907  0.63159579  1  0  -0.321525  0  3.127227  0  0  -0.284673  0  3.391916  0  0  -0.301238  0  3.409907  0  0  -0.242258  -0.275701  0  3.382049  0
N  N48  1  0.34646635  0.26018711  0.22567986  1  0  0.089242  0  3.56909  0  0  0.202576  0  3.744598  0  0  0.196137  0  3.76883  0  0  -0.128681  0.206013  0  3.728403  0
N  N49  1  0.65353421  0.73981388  0.77432181  1  0  0.089276  0  3.569075  0  0  0.202627  0  3.744576  0  0  0.196187  0  3.76881  0  0  -0.12866  0.206061  0  3.728382  0
O  O50  1  0.56222645  0.44764143  0.35750045  1  0  -0.636809  0  2.061188  0  0  -0.566936  0  2.32074  0  0  -0.597449  0  2.311961  0  0  -0.323408  -0.544121  0  2.325717  0
O  O51  1  0.43777288  0.55235841  0.64250020  1  0  -0.636862  0  2.061198  0  0  -0.566996  0  2.320733  0  0  -0.597506  0  2.31195  0  0  -0.323456  -0.544177  0  2.325711  0
O  O52  1  0.50737044  0.65033866  0.18457938  1  0  -0.630308  0  1.91192  0  0  -0.580179  0  2.140505  0  0  -0.604963  0  2.131726  0  0  -0.331749  -0.563313  0  2.146004  0
O  O53  1  0.49262757  0.34966234  0.81542005  1  0  -0.630329  0  1.911945  0  0  -0.58021  0  2.140509  0  0  -0.604995  0  2.131727  0  0  -0.331755  -0.563343  0  2.146009  0
O  O54  1  0.15035533  0.56785419  0.38285996  1  0  -0.668621  0  2.013943  0  0  -0.603205  0  2.27173  0  0  -0.630035  0  2.257984  0  0  -0.335247  -0.58359  0  2.281788  0
O  O55  1  0.84964652  0.43214681  0.61713940  1  0  -0.668649  0  2.01402  0  0  -0.603207  0  2.271774  0  0  -0.630032  0  2.258017  0  0  -0.335258  -0.583588  0  2.281835  0
O  O56  1  0.92326453  0.56183476  0.22977755  1  0  -0.650192  0  2.018068  0  0  -0.5766  0  2.268724  0  0  -0.606512  0  2.258079  0  0  -0.326786  -0.555795  0  2.278223  0
O  O57  1  0.07673484  0.43816392  0.77022435  1  0  -0.650196  0  2.018074  0  0  -0.576625  0  2.26878  0  0  -0.60654  0  2.258136  0  0  -0.326785  -0.555815  0  2.278278  0
