# generated using pymatgen
data_ZnH14C16(NO2)2
_symmetry_space_group_name_H-M   'P 1'
_cell_length_a   8.09008418
_cell_length_b   11.02682119
_cell_length_c   19.59748571
_cell_angle_alpha   85.66632612
_cell_angle_beta   78.08666454
_cell_angle_gamma   68.48465585
_symmetry_Int_Tables_number   1
_chemical_formula_structural   ZnH14C16(NO2)2
_chemical_formula_sum   'Zn4 H56 C64 N8 O16'
_cell_volume   1591.39979526
_cell_formula_units_Z   4
loop_
 _symmetry_equiv_pos_site_id
 _symmetry_equiv_pos_as_xyz
  1  'x, y, z'
loop_
 _atom_site_type_symbol
 _atom_site_label
 _atom_site_symmetry_multiplicity
 _atom_site_fract_x
 _atom_site_fract_y
 _atom_site_fract_z
 _atom_site_occupancy
 _atom_site_pbe_bader_charge
 _atom_site_pbe_bader_spin_density
 _atom_site_pbe_cm5_charge
 _atom_site_pbe_ddec_charge
 _atom_site_pbe_ddec_spin_density
 _atom_site_pbe_ddec_sum_bond_order
 _atom_site_pbe_magmom
Zn  Zn0  1  0.79558689  0.41601348  0.70851384  1  1.243404  0  0.691294  0.74747  0  2.394602  0
Zn  Zn1  1  0.78827106  0.41600940  0.29153409  1  1.24529  0  0.691536  0.747354  0  2.396675  0
Zn  Zn2  1  0.25450888  0.91612933  0.79143323  1  1.240081  0  0.690416  0.746208  0  2.395066  0
Zn  Zn3  1  0.82974094  0.91625466  0.20846217  1  1.243279  0  0.691548  0.747326  0  2.396569  0
H  H4  1  0.78214577  0.13935201  0.71694695  1  0.147302  0  0.118394  0.09503  0  1.025505  0
H  H5  1  0.07839808  0.13960855  0.28303032  1  0.140739  0  0.118488  0.095357  0  1.025043  0
H  H6  1  0.24874195  0.63971300  0.78306903  1  0.137176  0  0.11864  0.096054  0  1.02534  0
H  H7  1  0.11070795  0.63966423  0.21699981  1  0.138746  0  0.118058  0.094904  0  1.026326  0
H  H8  1  0.60474083  0.02440810  0.79975668  1  0.116973  0  0.11574  0.133694  0  0.990779  0
H  H9  1  0.37079983  0.02478613  0.20020236  1  0.145954  0  0.115839  0.133511  0  0.990694  0
H  H10  1  0.15333443  0.52496727  0.70044055  1  0.097394  0  0.115596  0.133571  0  0.990843  0
H  H11  1  0.32033386  0.52455589  0.29970687  1  0.14786  0  0.116034  0.134051  0  0.98962  0
H  H12  1  0.30593818  0.39485678  0.90536872  1  0.069403  0  0.113326  0.121001  0  0.993628  0
H  H13  1  0.29885858  0.39529818  0.09464278  1  0.090395  0  0.113257  0.120866  0  0.993558  0
H  H14  1  0.96063210  0.89535898  0.59478317  1  0.089686  0  0.113649  0.121663  0  0.991527  0
H  H15  1  0.14391576  0.89491736  0.40534419  1  0.093663  0  0.113362  0.121419  0  0.993801  0
H  H16  1  0.49783208  0.48938071  0.82299745  1  0.147114  0  0.11561  0.092916  0  1.047774  0
H  H17  1  0.01247959  0.48966215  0.17708581  1  0.157553  0  0.115262  0.092996  0  1.048188  0
H  H18  1  0.07069538  0.98970990  0.67707505  1  0.144653  0  0.115316  0.092437  0  1.048279  0
H  H19  1  0.93969199  0.98957230  0.32308782  1  0.155272  0  0.115727  0.093567  0  1.04797  0
H  H20  1  0.39800980  0.02540731  0.90516815  1  0.096655  0  0.104277  0.107733  0  1.044705  0
H  H21  1  0.57631607  0.02579307  0.09478897  1  0.105437  0  0.104383  0.108593  0  1.044579  0
H  H22  1  0.05270486  0.52579547  0.59500195  1  0.102003  0  0.103982  0.107433  0  1.045813  0
H  H23  1  0.42101685  0.52529129  0.40507459  1  0.077997  0  0.104322  0.107771  0  1.045371  0
H  H24  1  0.93603950  0.30230567  0.07121861  1  0.10627  0  0.110434  0.12294  0  1.000887  0
H  H25  1  0.76182512  0.30215001  0.92863540  1  0.085156  0  0.110172  0.122505  0  1.00145  0
H  H26  1  0.75732136  0.80194238  0.42879378  1  0.090743  0  0.110227  0.122379  0  1.000969  0
H  H27  1  0.43990959  0.80185479  0.57140786  1  0.088792  0  0.110291  0.122603  0  1.001346  0
H  H28  1  0.79411630  0.19105077  0.16579517  1  0.191214  0  0.12358  0.113018  0  1.002378  0
H  H29  1  0.01510923  0.19074681  0.83412925  1  0.174158  0  0.12348  0.112564  0  1.002614  0
H  H30  1  0.70995592  0.69059856  0.33424210  1  0.16751  0  0.122839  0.111693  0  1.002248  0
H  H31  1  0.59857951  0.69055517  0.66593621  1  0.149083  0  0.123212  0.112378  0  1.002278  0
H  H32  1  0.14809072  0.82532236  0.09133483  1  0.124312  0  0.118449  0.095068  0  1.008077  0
H  H33  1  0.02697548  0.82515137  0.90885281  1  0.127516  0  0.118625  0.094868  0  1.0077  0
H  H34  1  0.98928494  0.32497183  0.40878584  1  0.12122  0  0.118278  0.094922  0  1.007956  0
H  H35  1  0.68618677  0.32487272  0.59106272  1  0.095304  0  0.118452  0.094431  0  1.008896  0
H  H36  1  0.31276971  0.92208276  0.99441619  1  0.065518  0  0.10846  0.117501  0  1.014519  0
H  H37  1  0.76522143  0.92209638  0.00561489  1  0.068803  0  0.108451  0.116714  0  1.014557  0
H  H38  1  0.05710423  0.42181135  0.50567320  1  0.079904  0  0.108711  0.117608  0  1.015339  0
H  H39  1  0.52170818  0.42160789  0.49413999  1  0.083936  0  0.108902  0.117141  0  1.014271  0
H  H40  1  0.30363585  0.26153248  0.54925113  1  0.034264  0  0.092815  0.09564  0  1.022391  0
H  H41  1  0.43582235  0.26072570  0.45073813  1  0.035094  0  0.092715  0.095425  0  1.022382  0
H  H42  1  0.60350043  0.76110590  0.95057173  1  0.033819  0  0.092147  0.095155  0  1.021909  0
H  H43  1  0.63556056  0.76122686  0.04942613  1  0.031348  0  0.092499  0.095199  0  1.021919  0
H  H44  1  0.30186855  0.10026066  0.55470631  1  0.056581  0  0.095977  0.110647  0  0.977495  0
H  H45  1  0.59871276  0.09941807  0.44520318  1  0.04667  0  0.096327  0.111043  0  0.976401  0
H  H46  1  0.60699593  0.59992120  0.94513391  1  0.05395  0  0.095973  0.110649  0  0.976448  0
H  H47  1  0.79310805  0.59995396  0.05481423  1  0.05906  0  0.095723  0.110455  0  0.977945  0
H  H48  1  0.39049947  0.23649499  0.66625596  1  0.062788  0  0.095705  0.113669  0  0.993125  0
H  H49  1  0.37347456  0.23607448  0.33385068  1  0.072119  0  0.095738  0.113728  0  0.993403  0
H  H50  1  0.80718230  0.73624398  0.83367740  1  0.069226  0  0.095884  0.11435  0  0.993825  0
H  H51  1  0.45708481  0.73634551  0.16648008  1  0.068206  0  0.095836  0.114169  0  0.992832  0
H  H52  1  0.55716930  0.12377780  0.60287984  1  0.026981  0  0.093945  0.107181  0  0.98458  0
H  H53  1  0.31976699  0.12310391  0.39711349  1  0.029246  0  0.094208  0.108266  0  0.982982  0
H  H54  1  0.91068258  0.62319816  0.89689370  1  0.038967  0  0.094672  0.108972  0  0.983188  0
H  H55  1  0.46623457  0.62349689  0.10321440  1  0.03553  0  0.094822  0.10953  0  0.981705  0
H  H56  1  0.17085794  0.29465229  0.97356323  1  0.073345  0  0.10732  0.10362  0  0.999948  0
H  H57  1  0.53479445  0.29492394  0.02639044  1  0.05691  0  0.107288  0.103556  0  1.000163  0
H  H58  1  0.89328184  0.79474178  0.52652200  1  0.07342  0  0.107294  0.103401  0  1.000314  0
H  H59  1  0.31131267  0.79434654  0.47353277  1  0.079936  0  0.107  0.103605  0  0.999879  0
C  C60  1  0.67603734  0.18995048  0.76023189  1  0.427723  0  0.048616  0.093354  0  3.933159  0
C  C61  1  0.13390379  0.19024452  0.23974798  1  0.496014  0  0.048489  0.092834  0  3.934583  0
C  C62  1  0.18578023  0.69036517  0.73982371  1  0.434483  0  0.048823  0.092327  0  3.938089  0
C  C63  1  0.12315057  0.69023773  0.26026435  1  0.423695  0  0.048962  0.092781  0  3.934708  0
C  C64  1  0.57708522  0.12788258  0.80603036  1  0.025045  0  -0.072365  -0.158593  0  3.886037  0
C  C65  1  0.29495371  0.12825683  0.19394410  1  -0.107159  0  -0.072874  -0.158681  0  3.887248  0
C  C66  1  0.13223313  0.62839021  0.69411224  1  0.039181  0  -0.072279  -0.15879  0  3.888191  0
C  C67  1  0.23840732  0.62804597  0.30603217  1  -0.033493  0  -0.073596  -0.160535  0  3.8864  0
C  C68  1  0.44215847  0.19861299  0.86111006  1  -0.022866  0  0.017233  0.159938  0  3.989165  0
C  C69  1  0.35908734  0.19900762  0.13886772  1  0.076305  0  0.017682  0.160382  0  3.989372  0
C  C70  1  0.05241342  0.69911825  0.63903618  1  -0.066724  0  0.017108  0.159701  0  3.990165  0
C  C71  1  0.24784159  0.69864901  0.36110170  1  0.011145  0  0.017862  0.161832  0  3.987657  0
C  C72  1  0.40985423  0.33250140  0.86515399  1  -0.013651  0  -0.073278  -0.15685  0  3.910854  0
C  C73  1  0.25741270  0.33287953  0.13485279  1  -0.107175  0  -0.073214  -0.15572  0  3.910225  0
C  C74  1  0.02439565  0.83297235  0.63497332  1  0.038899  0  -0.073718  -0.156879  0  3.908059  0
C  C75  1  0.14232810  0.83256305  0.36517509  1  -0.05833  0  -0.074599  -0.158574  0  3.911961  0
C  C76  1  0.51582330  0.38711298  0.81836638  1  0.433932  0  0.042846  0.08238  0  3.947013  0
C  C77  1  0.09685374  0.38740417  0.18165940  1  0.46394  0  0.042862  0.081172  0  3.947021  0
C  C78  1  0.08384016  0.88749127  0.68171508  1  0.430808  0  0.04368  0.083318  0  3.946124  0
C  C79  1  0.02847872  0.88727977  0.31843305  1  0.454413  0  0.043371  0.081654  0  3.947329  0
C  C80  1  0.35139257  0.13071889  0.91294787  1  0.062296  0  -0.074479  -0.108442  0  3.920288  0
C  C81  1  0.51771172  0.13110558  0.08701065  1  -0.034519  0  -0.074693  -0.1101  0  3.92245  0
C  C82  1  0.01361114  0.63111258  0.58720835  1  0.049789  0  -0.074226  -0.108371  0  3.923917  0
C  C83  1  0.35474144  0.63059730  0.41289445  1  0.045075  0  -0.074397  -0.109312  0  3.92152  0
C  C84  1  0.22189082  0.18866474  0.96827326  1  -0.10835  0  -0.075419  -0.112378  0  3.956595  0
C  C85  1  0.58946341  0.18892656  0.03168537  1  0.006276  0  -0.074406  -0.110293  0  3.9557  0
C  C86  1  0.93951329  0.68875287  0.53183352  1  -0.112398  0  -0.074571  -0.110389  0  3.956095  0
C  C87  1  0.37129153  0.68836126  0.46822606  1  -0.108947  0  -0.074653  -0.111551  0  3.956084  0
C  C88  1  0.13867037  0.12221066  0.02373723  1  -0.022093  0  0.00951  0.143571  0  4.027689  0
C  C89  1  0.73918199  0.12225352  0.97626130  1  -0.030064  0  0.009081  0.141855  0  4.028522  0
C  C90  1  0.91215247  0.62198114  0.47638197  1  0.043734  0  0.00895  0.141507  0  4.024602  0
C  C91  1  0.46553383  0.62179434  0.52365983  1  -0.039031  0  0.009863  0.14297  0  4.026031  0
C  C92  1  0.99062995  0.19621033  0.07360975  1  -0.017383  0  -0.078713  -0.169625  0  3.922134  0
C  C93  1  0.81334113  0.19605670  0.92630476  1  -5.5e-05  0  -0.078187  -0.16869  0  3.922261  0
C  C94  1  0.81427717  0.69584732  0.42641628  1  -0.055191  0  -0.078136  -0.167819  0  3.918808  0
C  C95  1  0.48929218  0.69574170  0.57368603  1  -0.056316  0  -0.077622  -0.167781  0  3.920145  0
C  C96  1  0.90931826  0.13455763  0.12696353  1  0.390003  0  0.050575  0.097843  0  3.92173  0
C  C97  1  0.95641976  0.13429915  0.87301084  1  0.385601  0  0.05044  0.098249  0  3.921299  0
C  C98  1  0.78634997  0.63414791  0.37307583  1  0.465591  0  0.050683  0.098471  0  3.921802  0
C  C99  1  0.57891723  0.63407567  0.62702530  1  0.482413  0  0.05003  0.097211  0  3.921677  0
C  C100  1  0.10976932  0.93071777  0.08525481  1  0.461434  0  0.043958  0.086352  0  3.954472  0
C  C101  1  0.95984690  0.93056044  0.91486713  1  0.474327  0  0.043333  0.086211  0  3.954686  0
C  C102  1  0.94499438  0.43036608  0.41485706  1  0.487203  0  0.043493  0.085395  0  3.956199  0
C  C103  1  0.62478267  0.43026048  0.58508800  1  0.483971  0  0.043645  0.086638  0  3.956131  0
C  C104  1  0.19889982  0.98558781  0.03113444  1  0.010281  0  -0.081773  -0.168182  0  3.913749  0
C  C105  1  0.81560924  0.98559668  0.96891148  1  0.006611  0  -0.081814  -0.166381  0  3.913156  0
C  C106  1  0.97998390  0.48532009  0.46896118  1  -0.085216  0  -0.081911  -0.167131  0  3.912311  0
C  C107  1  0.53492286  0.48514063  0.53095916  1  0.032706  0  -0.082639  -0.167568  0  3.912166  0
C  C108  1  0.08681712  0.23961226  0.62469892  1  1.562125  0  0.197498  0.618092  0  4.175643  0
C  C109  1  0.67437152  0.23888889  0.37528437  1  1.56859  0  0.198467  0.6205  0  4.177313  0
C  C110  1  0.46205844  0.73930118  0.87512789  1  1.553878  0  0.197506  0.618224  0  4.174738  0
C  C111  1  0.79920498  0.73937006  0.12469151  1  1.576459  0  0.198335  0.620481  0  4.176757  0
C  C112  1  0.28178070  0.18533090  0.58555348  1  -0.059769  0  -0.162778  -0.265473  0  3.926362  0
C  C113  1  0.53373043  0.18453216  0.41439284  1  -0.04777  0  -0.162319  -0.264911  0  3.925446  0
C  C114  1  0.61791648  0.68491325  0.91425204  1  -0.049318  0  -0.161874  -0.264109  0  3.923125  0
C  C115  1  0.69744198  0.68502342  0.08569680  1  -0.051306  0  -0.163356  -0.266038  0  3.927098  0
C  C116  1  0.41960017  0.15102520  0.63415523  1  -0.01933  0  -0.167576  -0.275014  0  3.926482  0
C  C117  1  0.42997696  0.15044654  0.36580608  1  -0.035461  0  -0.167812  -0.277068  0  3.925351  0
C  C118  1  0.80433961  0.65060121  0.86563524  1  -0.049333  0  -0.168137  -0.278437  0  3.92703  0
C  C119  1  0.54541704  0.65078721  0.13442361  1  -0.044442  0  -0.167518  -0.277249  0  3.926005  0
C  C120  1  0.40638626  0.03654627  0.68065995  1  1.560706  0  0.192957  0.615503  0  4.180403  0
C  C121  1  0.55738228  0.03627231  0.31906774  1  1.572164  0  0.192879  0.616506  0  4.178144  0
C  C122  1  0.83754909  0.53638266  0.81895700  1  1.56515  0  0.193133  0.615498  0  4.176827  0
C  C123  1  0.62660923  0.53647352  0.18099010  1  1.558728  0  0.191319  0.613388  0  4.182266  0
N  N124  1  0.64852873  0.31714928  0.76688585  1  -1.257277  0  -0.333916  -0.239828  0  3.602214  0
N  N125  1  0.03418969  0.31742100  0.23313649  1  -1.280736  0  -0.334153  -0.23961  0  3.603349  0
N  N126  1  0.16514451  0.81751135  0.73315430  1  -1.258002  0  -0.334578  -0.240174  0  3.604153  0
N  N127  1  0.01701603  0.81745222  0.26693418  1  -1.257641  0  -0.333524  -0.237746  0  3.60095  0
N  N128  1  0.96707409  0.00357571  0.13253323  1  -1.241743  0  -0.334255  -0.245413  0  3.572208  0
N  N129  1  0.02984776  0.00329839  0.86756190  1  -1.241057  0  -0.333634  -0.245686  0  3.571738  0
N  N130  1  0.84959043  0.50316925  0.36756958  1  -1.248765  0  -0.333541  -0.244822  0  3.574521  0
N  N131  1  0.64698589  0.50309605  0.63248092  1  -1.22623  0  -0.333791  -0.244831  0  3.572586  0
O  O132  1  0.04645784  0.34754074  0.65784193  1  -1.172791  0  -0.336335  -0.557478  0  2.337702  0
O  O133  1  0.60669572  0.34688940  0.34223428  1  -1.178809  0  -0.337024  -0.558134  0  2.33858  0
O  O134  1  0.45524018  0.84702797  0.84182257  1  -1.174169  0  -0.33608  -0.556743  0  2.336417  0
O  O135  1  0.69853310  0.84743770  0.15772739  1  -1.171539  0  -0.336392  -0.558447  0  2.338751  0
O  O136  1  0.97714958  0.18444680  0.62309633  1  -1.200668  0  -0.335548  -0.580839  0  2.118724  0
O  O137  1  0.83918758  0.18372796  0.37688229  1  -1.199602  0  -0.336193  -0.58277  0  2.120322  0
O  O138  1  0.35042657  0.68440812  0.87689878  1  -1.185184  0  -0.336049  -0.581843  0  2.119098  0
O  O139  1  0.96560282  0.68417065  0.12309512  1  -1.211452  0  -0.336143  -0.581933  0  2.11961  0
O  O140  1  0.27629065  0.06780332  0.73536705  1  -1.169242  0  -0.344371  -0.560738  0  2.278837  0
O  O141  1  0.65558235  0.06790964  0.26429406  1  -1.18322  0  -0.344571  -0.561532  0  2.278024  0
O  O142  1  0.76183348  0.56789675  0.76434375  1  -1.172799  0  -0.34451  -0.561021  0  2.274792  0
O  O143  1  0.67063410  0.56788990  0.23567581  1  -1.180015  0  -0.343725  -0.559718  0  2.279248  0
O  O144  1  0.50987641  0.92278356  0.66398770  1  -1.189901  0  -0.33783  -0.575258  0  2.096772  0
O  O145  1  0.56817020  0.92237326  0.33561812  1  -1.186482  0  -0.337798  -0.575371  0  2.09741  0
O  O146  1  0.92465934  0.42257409  0.83541839  1  -1.189556  0  -0.337916  -0.574604  0  2.097194  0
O  O147  1  0.65358959  0.42265349  0.16440428  1  -1.179059  0  -0.336884  -0.574184  0  2.098291  0
