# generated using pymatgen
data_Zn2H58C59(N3O5)2
_symmetry_space_group_name_H-M   'P 1'
_cell_length_a   7.84691866
_cell_length_b   17.93447580
_cell_length_c   23.06997273
_cell_angle_alpha   87.88191606
_cell_angle_beta   80.25022325
_cell_angle_gamma   77.36389540
_symmetry_Int_Tables_number   1
_chemical_formula_structural   Zn2H58C59(N3O5)2
_chemical_formula_sum   'Zn4 H116 C118 N12 O20'
_cell_volume   3122.25273920
_cell_formula_units_Z   2
loop_
 _symmetry_equiv_pos_site_id
 _symmetry_equiv_pos_as_xyz
  1  'x, y, z'
loop_
 _atom_site_type_symbol
 _atom_site_label
 _atom_site_symmetry_multiplicity
 _atom_site_fract_x
 _atom_site_fract_y
 _atom_site_fract_z
 _atom_site_occupancy
 _atom_site_pbe_bader_charge
 _atom_site_pbe_bader_spin_density
 _atom_site_pbe_cm5_charge
 _atom_site_pbe_ddec_charge
 _atom_site_pbe_ddec_spin_density
 _atom_site_pbe_ddec_sum_bond_order
 _atom_site_pbe_magmom
Zn  Zn0  1  0.21548195  0.77940505  0.70726919  1  1.250191  0  0.689271  0.742507  0  2.401215  0
Zn  Zn1  1  0.70170533  0.22039365  0.29295933  1  1.250563  0  0.68853  0.741237  0  2.403402  0
Zn  Zn2  1  0.74406238  0.72061985  0.20722439  1  1.250553  0  0.689501  0.743931  0  2.402055  0
Zn  Zn3  1  0.67261641  0.27945752  0.79291068  1  1.250755  0  0.68822  0.741366  0  2.401947  0
H  H4  1  0.17239984  0.63867731  0.77169792  1  0.146673  0  0.1223  0.102861  0  0.997916  0
H  H5  1  0.58322344  0.36071763  0.22817201  1  0.147277  0  0.123349  0.103127  0  0.997819  0
H  H6  1  0.56066636  0.86129930  0.27198139  1  0.147982  0  0.121302  0.10174  0  0.996782  0
H  H7  1  0.69465406  0.13874347  0.72799593  1  0.147969  0  0.122455  0.102678  0  0.997227  0
H  H8  1  0.93099289  0.58195948  0.82862924  1  0.082186  0  0.112996  0.12136  0  0.978329  0
H  H9  1  0.34234293  0.41743016  0.17103478  1  0.045706  0  0.114017  0.12224  0  0.977995  0
H  H10  1  0.26257868  0.91791556  0.32899117  1  0.083701  0  0.113177  0.122206  0  0.977966  0
H  H11  1  0.50987086  0.08209657  0.67102907  1  0.081556  0  0.113267  0.122081  0  0.97769  0
H  H12  1  0.55901463  0.78586820  0.78908406  1  0.134268  0  0.109242  0.130485  0  1.025391  0
H  H13  1  0.13325872  0.21398434  0.21099950  1  0.111617  0  0.109558  0.13132  0  1.025396  0
H  H14  1  0.09442336  0.71414456  0.28910525  1  0.130484  0  0.10869  0.130031  0  1.025011  0
H  H15  1  0.09821334  0.28584759  0.71095052  1  0.123436  0  0.109251  0.131036  0  1.025417  0
H  H16  1  0.81746241  0.83474136  0.73539742  1  0.114502  0  0.122426  0.096524  0  0.981293  0
H  H17  1  0.38663824  0.16509333  0.26489487  1  0.113104  0  0.122027  0.095589  0  0.981532  0
H  H18  1  0.40168980  0.66538563  0.23534023  1  0.105923  0  0.122255  0.096398  0  0.981775  0
H  H19  1  0.30332263  0.33467436  0.76460213  1  0.108811  0  0.122536  0.096487  0  0.981517  0
H  H20  1  0.56963376  0.59499509  0.83479081  1  0.077446  0  0.101831  0.113017  0  0.97436  0
H  H21  1  0.99928479  0.40475057  0.16528436  1  0.054445  0  0.10135  0.112582  0  0.975055  0
H  H22  1  0.91407138  0.90487835  0.33490102  1  0.051044  0  0.101469  0.112582  0  0.975669  0
H  H23  1  0.15418333  0.09511548  0.66510383  1  0.078999  0  0.101994  0.1135  0  0.974077  0
H  H24  1  0.44908149  0.68980447  0.84927851  1  0.057026  0  0.096665  0.101583  0  1.000211  0
H  H25  1  0.98798935  0.31003349  0.15051818  1  0.036083  0  0.096006  0.101214  0  1.001211  0
H  H26  1  0.88849222  0.81007382  0.34947940  1  0.037546  0  0.094588  0.098967  0  0.999505  0
H  H27  1  0.04821680  0.18994662  0.65062948  1  0.056758  0  0.096237  0.100689  0  1.001224  0
H  H28  1  0.48720303  0.62238858  0.94267642  1  -0.00419  0  0.093452  0.090603  0  0.978093  0
H  H29  1  0.05139427  0.37801909  0.05734721  1  0.052676  0  0.094228  0.091029  0  0.977741  0
H  H30  1  0.85903656  0.87795554  0.44278808  1  0.053005  0  0.093853  0.090482  0  0.97684  0
H  H31  1  0.17935548  0.12232567  0.55723220  1  0.032704  0  0.093317  0.090354  0  0.977636  0
H  H32  1  0.71919213  0.59461066  0.92000276  1  -9e-06  0  0.08948  0.076245  0  0.993494  0
H  H33  1  0.23352113  0.40535895  0.08002969  1  0.007377  0  0.089173  0.076672  0  0.994518  0
H  H34  1  0.06374297  0.90529714  0.42009160  1  0.010145  0  0.09023  0.077045  0  0.993999  0
H  H35  1  0.38880353  0.09478123  0.57990100  1  0.011552  0  0.089404  0.075951  0  0.99434  0
H  H36  1  0.51369950  0.76128031  0.93688573  1  0.048246  0  0.093315  0.095797  0  1.015242  0
H  H37  1  0.21008579  0.23898370  0.06270668  1  0.045548  0  0.093323  0.096208  0  1.014547  0
H  H38  1  0.02285577  0.73894674  0.43740194  1  0.046511  0  0.092949  0.095865  0  1.015879  0
H  H39  1  0.19933214  0.26123576  0.56269374  1  0.05677  0  0.093747  0.096411  0  1.015903  0
H  H40  1  0.74493771  0.73106486  0.91721223  1  0.070591  0  0.097605  0.103194  0  1.004505  0
H  H41  1  0.39198814  0.26871137  0.08246219  1  0.065434  0  0.096761  0.102367  0  1.003734  0
H  H42  1  0.22451571  0.76855898  0.41744721  1  0.08425  0  0.097749  0.103152  0  1.003826  0
H  H43  1  0.41057460  0.23148889  0.58273769  1  0.061998  0  0.09745  0.102947  0  1.004676  0
H  H44  1  0.65891590  0.83083282  0.11708213  1  0.125027  0  0.118627  0.089265  0  1.022426  0
H  H45  1  0.60558903  0.16942882  0.88282406  1  0.131332  0  0.119146  0.088911  0  1.022348  0
H  H46  1  0.23968013  0.66939055  0.61721133  1  0.132578  0  0.118959  0.088433  0  1.022706  0
H  H47  1  0.52696561  0.33054958  0.38298226  1  0.126377  0  0.118933  0.089084  0  1.021722  0
H  H48  1  0.60867532  0.83513976  0.01333097  1  0.07848  0  0.11062  0.120063  0  0.994875  0
H  H49  1  0.45475695  0.16515233  0.98638706  1  0.077862  0  0.110227  0.119989  0  0.995813  0
H  H50  1  0.19265760  0.66506097  0.51357836  1  0.086263  0  0.110144  0.119962  0  0.994487  0
H  H51  1  0.37201510  0.33503305  0.48657486  1  0.091952  0  0.110206  0.120175  0  0.993926  0
H  H52  1  0.69999769  0.58875717  0.01751373  1  0.102619  0  0.109863  0.115417  0  1.003435  0
H  H53  1  0.30527318  0.41155768  0.98232458  1  0.063456  0  0.110035  0.115561  0  1.00329  0
H  H54  1  0.03857746  0.91146450  0.51767868  1  0.075218  0  0.110129  0.116035  0  1.002826  0
H  H55  1  0.46698635  0.08865398  0.48248900  1  0.106199  0  0.110367  0.115932  0  1.00281  0
H  H56  1  0.74496198  0.59475249  0.12192976  1  0.138784  0  0.119989  0.100622  0  1.000268  0
H  H57  1  0.46154513  0.40555189  0.87805416  1  0.136729  0  0.120098  0.101102  0  0.999921  0
H  H58  1  0.09043472  0.90549988  0.62199354  1  0.14262  0  0.119614  0.100553  0  1.000137  0
H  H59  1  0.61722908  0.09448927  0.37820989  1  0.123292  0  0.119824  0.100959  0  1.000136  0
H  H60  1  0.49405528  0.55162468  0.73461986  1  0.084998  0  0.103401  0.111405  0  1.030511  0
H  H61  1  0.77955002  0.44804899  0.26547935  1  0.098889  0  0.104386  0.111916  0  1.030475  0
H  H62  1  0.79522377  0.94798350  0.23457094  1  0.13107  0  0.103761  0.111367  0  1.030298  0
H  H63  1  0.97827305  0.05188142  0.76559483  1  0.10201  0  0.10352  0.111384  0  1.031841  0
H  H64  1  0.02990186  0.42305758  0.69813151  1  0.083697  0  0.104566  0.112166  0  1.052718  0
H  H65  1  0.14998010  0.57698025  0.30187071  1  0.09315  0  0.103233  0.111124  0  1.052682  0
H  H66  1  0.20192866  0.07687799  0.19819831  1  0.083653  0  0.103799  0.111385  0  1.053386  0
H  H67  1  0.47790853  0.92315225  0.80186225  1  0.090055  0  0.104565  0.11236  0  1.052364  0
H  H68  1  0.89510221  0.65515857  0.63410451  1  0.091487  0  0.107101  0.120397  0  1.024231  0
H  H69  1  0.18519325  0.34469527  0.36559857  1  0.102495  0  0.106335  0.119036  0  1.02427  0
H  H70  1  0.30038210  0.84464394  0.13433476  1  0.102133  0  0.106398  0.119549  0  1.024089  0
H  H71  1  0.28013081  0.15534839  0.86579648  1  0.092973  0  0.107037  0.120006  0  1.02387  0
H  H72  1  0.24502407  0.42136458  0.62514588  1  0.052339  0  0.09424  0.04996  0  0.994203  0
H  H73  1  0.29198618  0.57864592  0.37446560  1  0.036829  0  0.095019  0.050978  0  0.994839  0
H  H74  1  0.41586245  0.07860327  0.12545357  1  0.051481  0  0.094846  0.050952  0  0.993782  0
H  H75  1  0.62120703  0.92148650  0.87451928  1  0.050056  0  0.094611  0.050787  0  0.995183  0
H  H76  1  0.31393469  0.46398054  0.68358175  1  0.067472  0  0.101448  0.070679  0  0.973122  0
H  H77  1  0.46193533  0.53587729  0.31615384  1  0.071428  0  0.101655  0.070963  0  0.973883  0
H  H78  1  0.52781449  0.03586536  0.18376048  1  0.067809  0  0.10159  0.07067  0  0.974239  0
H  H79  1  0.74822956  0.96427116  0.81617632  1  0.071251  0  0.10181  0.070388  0  0.974907  0
H  H80  1  0.55977049  0.43526576  0.59689657  1  0.05783  0  0.089626  0.125482  0  1.043266  0
H  H81  1  0.59222289  0.56466194  0.40296039  1  0.057954  0  0.088211  0.123919  0  1.042453  0
H  H82  1  0.74437943  0.06474971  0.09691152  1  0.049944  0  0.08894  0.125769  0  1.043253  0
H  H83  1  0.90750460  0.93527381  0.90294080  1  0.064616  0  0.088916  0.125229  0  1.042233  0
H  H84  1  0.42162080  0.49205572  0.55091093  1  0.01148  0  0.086214  0.114488  0  1.019171  0
H  H85  1  0.46455024  0.50802804  0.44889962  1  0.023516  0  0.086744  0.114746  0  1.019214  0
H  H86  1  0.66268953  0.00794538  0.05101490  1  0.019695  0  0.086301  0.114773  0  1.019284  0
H  H87  1  0.72352097  0.99209078  0.94890452  1  0.017394  0  0.086053  0.11436  0  1.019508  0
H  H88  1  0.49101201  0.53555563  0.60866137  1  0.039337  0  0.091349  0.1283  0  1.014878  0
H  H89  1  0.63522263  0.46435602  0.39129792  1  0.043804  0  0.090677  0.127708  0  1.015824  0
H  H90  1  0.77610190  0.96444630  0.10864700  1  0.046477  0  0.091034  0.127625  0  1.015863  0
H  H91  1  0.85072621  0.03559661  0.89125010  1  0.039889  0  0.09141  0.127777  0  1.015534  0
H  H92  1  0.05958225  0.70382714  0.03133280  1  0.054695  0  0.106884  0.077269  0  0.993103  0
H  H93  1  0.79396738  0.29600400  0.96874687  1  0.06212  0  0.106625  0.076939  0  0.99347  0
H  H94  1  0.51261855  0.79603639  0.53131992  1  0.055617  0  0.106764  0.077183  0  0.992571  0
H  H95  1  0.84114978  0.20399113  0.46851586  1  0.057113  0  0.107426  0.077667  0  0.992288  0
H  H96  1  0.15980604  0.81470232  0.06054244  1  0.13461  0  0.099256  0.116217  0  1.058644  0
H  H97  1  0.03523613  0.18547613  0.93963535  1  0.104127  0  0.09961  0.117165  0  1.057577  0
H  H98  1  0.72474420  0.68546123  0.56043973  1  0.120216  0  0.099471  0.115758  0  1.059646  0
H  H99  1  0.97101672  0.31477381  0.43947670  1  0.137631  0  0.099715  0.117191  0  1.057931  0
H  H100  1  0.23143023  0.88113577  0.87701958  1  0.107375  0  0.097233  0.105197  0  1.054524  0
H  H101  1  0.98917621  0.11868465  0.12309393  1  0.106054  0  0.097699  0.105555  0  1.05421  0
H  H102  1  0.86177361  0.61874129  0.37697088  1  0.103768  0  0.09701  0.105249  0  1.054256  0
H  H103  1  0.85754887  0.38150237  0.62295216  1  0.073667  0  0.097009  0.104989  0  1.05477  0
H  H104  1  0.12292083  0.76710676  0.85557088  1  0.079831  0  0.101606  0.065898  0  1.028516  0
H  H105  1  0.74470966  0.23247698  0.14445719  1  0.04932  0  0.101676  0.06639  0  1.02818  0
H  H106  1  0.63870261  0.73258087  0.35558450  1  0.076809  0  0.102027  0.066611  0  1.027039  0
H  H107  1  0.72751823  0.26749125  0.64425050  1  0.078559  0  0.102187  0.066653  0  1.027997  0
H  H108  1  0.36166826  0.94339258  0.94927439  1  0.030667  0  0.090016  0.08882  0  1.007909  0
H  H109  1  0.25445039  0.05670725  0.05095715  1  0.021875  0  0.090253  0.088955  0  1.008218  0
H  H110  1  0.05512410  0.55678536  0.44917445  1  0.02908  0  0.090355  0.088983  0  1.0079  0
H  H111  1  0.06070330  0.44361921  0.55084197  1  0.022182  0  0.090779  0.089396  0  1.008374  0
H  H112  1  0.33259463  0.91739386  0.02478202  1  0.022371  0  0.091402  0.088928  0  1.015514  0
H  H113  1  0.27476961  0.08266424  0.97542973  1  0.022273  0  0.09196  0.089242  0  1.01308  0
H  H114  1  0.99987023  0.58272750  0.52470327  1  0.032371  0  0.091341  0.088543  0  1.013724  0
H  H115  1  0.10726045  0.41755955  0.47533767  1  0.046727  0  0.091615  0.089042  0  1.013446  0
H  H116  1  0.01751281  0.98724630  0.03769148  1  0.029099  0  0.091337  0.090253  0  1.001987  0
H  H117  1  0.04211375  0.01297189  0.96252696  1  0.036325  0  0.091122  0.090035  0  1.001738  0
H  H118  1  0.75432925  0.51300691  0.53739571  1  0.036178  0  0.091456  0.090295  0  1.002434  0
H  H119  1  0.80521450  0.48725699  0.46223357  1  0.022747  0  0.09148  0.08976  0  1.002888  0
C  C120  1  0.03435480  0.66924128  0.77773220  1  0.472527  0  0.046605  0.092626  0  3.944576  0
C  C121  1  0.48150057  0.33026178  0.22218697  1  0.456837  0  0.046082  0.091882  0  3.941204  0
C  C122  1  0.45315394  0.83076128  0.27793727  1  0.384929  0  0.04951  0.094396  0  3.941577  0
C  C123  1  0.56254202  0.16929931  0.72202129  1  0.455707  0  0.048444  0.094601  0  3.941669  0
C  C124  1  0.89902839  0.63846947  0.80897951  1  -0.066472  0  -0.078259  -0.176232  0  3.939378  0
C  C125  1  0.34682244  0.36103041  0.19082954  1  -0.009362  0  -0.07917  -0.176521  0  3.939987  0
C  C126  1  0.28706879  0.86147124  0.30923883  1  -0.004642  0  -0.080239  -0.178332  0  3.939358  0
C  C127  1  0.45826210  0.13855911  0.69076783  1  -0.062489  0  -0.079502  -0.178574  0  3.937864  0
C  C128  1  0.72360640  0.68028076  0.81522865  1  -0.005941  0  0.019816  0.17814  0  3.925068  0
C  C129  1  0.21904276  0.31938826  0.18466484  1  -0.011292  0  0.019093  0.176681  0  3.926669  0
C  C130  1  0.15341473  0.81968008  0.31540323  1  0.024542  0  0.021485  0.179043  0  3.926011  0
C  C131  1  0.28892761  0.18032740  0.68463073  1  0.005682  0  0.020518  0.179384  0  3.92492  0
C  C132  1  0.69326617  0.75183766  0.78775334  1  -0.02538  0  -0.081835  -0.182466  0  3.910969  0
C  C133  1  0.23237534  0.24793133  0.21228648  1  0.004628  0  -0.082424  -0.184299  0  3.912014  0
C  C134  1  0.19461045  0.74818455  0.28783869  1  -0.004215  0  -0.081255  -0.182373  0  3.909394  0
C  C135  1  0.23120546  0.25183319  0.71219625  1  -0.022344  0  -0.082368  -0.184345  0  3.909368  0
C  C136  1  0.83557122  0.77916574  0.75713025  1  0.438335  0  0.051263  0.101376  0  3.942136  0
C  C137  1  0.37126051  0.22058723  0.24302849  1  0.443379  0  0.052461  0.10438  0  3.941548  0
C  C138  1  0.36423835  0.72091061  0.25715653  1  0.452893  0  0.050892  0.102011  0  3.941054  0
C  C139  1  0.34308083  0.27913624  0.74280560  1  0.467615  0  0.051469  0.103114  0  3.93999  0
C  C140  1  0.57596185  0.65046391  0.85226898  1  -0.043885  0  -0.156778  -0.209106  0  3.922194  0
C  C141  1  0.07849007  0.34935884  0.14764789  1  0.003191  0  -0.154858  -0.206166  0  3.921867  0
C  C142  1  0.97592523  0.84947229  0.35243879  1  -0.001254  0  -0.154261  -0.205327  0  3.921633  0
C  C143  1  0.17801031  0.15056342  0.64762015  1  -0.043187  0  -0.156365  -0.208014  0  3.922693  0
C  C144  1  0.60248919  0.64072779  0.91700136  1  0.042502  0  -0.158469  -0.12887  0  3.939423  0
C  C145  1  0.15954048  0.35938374  0.08294845  1  -0.023711  0  -0.159056  -0.131048  0  3.942215  0
C  C146  1  0.99263697  0.85934637  0.41715004  1  -0.028272  0  -0.159316  -0.129287  0  3.94014  0
C  C147  1  0.26894620  0.14079813  0.58288993  1  -0.001154  0  -0.158535  -0.128727  0  3.939997  0
C  C148  1  0.62648883  0.71437933  0.94254481  1  -0.024658  0  -0.159461  -0.209545  0  3.945981  0
C  C149  1  0.28202672  0.28574618  0.05719114  1  -0.026731  0  -0.159098  -0.209681  0  3.943558  0
C  C150  1  0.08956367  0.78566300  0.44282994  1  -0.045805  0  -0.160591  -0.210704  0  3.946528  0
C  C151  1  0.31804062  0.21446900  0.55728833  1  -0.039498  0  -0.160716  -0.210696  0  3.94808  0
C  C152  1  0.66708842  0.77849735  0.09318181  1  0.495807  0  0.049296  0.094291  0  3.94608  0
C  C153  1  0.53750472  0.22177559  0.90668950  1  0.475943  0  0.047936  0.094828  0  3.945998  0
C  C154  1  0.19541412  0.72172142  0.59332335  1  0.423935  0  0.04809  0.095215  0  3.948045  0
C  C155  1  0.51085021  0.27827116  0.40687262  1  0.40953  0  0.048342  0.094453  0  3.946222  0
C  C156  1  0.63860072  0.78024020  0.03549751  1  -0.054463  0  -0.080074  -0.18002  0  3.932154  0
C  C157  1  0.45250262  0.22003995  0.96426062  1  -0.018212  0  -0.079649  -0.181566  0  3.933915  0
C  C158  1  0.16808806  0.71996314  0.53571485  1  -0.014674  0  -0.079748  -0.179962  0  3.93529  0
C  C159  1  0.42416777  0.28010750  0.46445971  1  0.004419  0  -0.080807  -0.18068  0  3.933702  0
C  C160  1  0.65005976  0.71194161  0.00583341  1  -0.0229  0  0.022846  0.187543  0  3.917976  0
C  C161  1  0.36627024  0.28834126  0.99393146  1  0.019946  0  0.022792  0.189215  0  3.916941  0
C  C162  1  0.11121135  0.78825531  0.50605724  1  0.05885  0  0.0249  0.187432  0  3.919368  0
C  C163  1  0.40552065  0.21185976  0.49409308  1  0.037391  0  0.025801  0.187898  0  3.920283  0
C  C164  1  0.68927552  0.64399867  0.03754438  1  -0.022075  0  -0.082629  -0.186152  0  3.937096  0
C  C165  1  0.36969035  0.35630485  0.96229850  1  -0.045612  0  -0.082097  -0.186035  0  3.937643  0
C  C166  1  0.08306652  0.85621969  0.53770338  1  -0.055593  0  -0.083014  -0.186132  0  3.937713  0
C  C167  1  0.47656916  0.14386346  0.46247145  1  -0.03296  0  -0.084079  -0.186446  0  3.937304  0
C  C168  1  0.71569243  0.64627583  0.09553172  1  0.443631  0  0.052575  0.09919  0  3.942843  0
C  C169  1  0.45690158  0.35402163  0.90439435  1  0.441149  0  0.052707  0.097948  0  3.942343  0
C  C170  1  0.11231774  0.85396087  0.59563072  1  0.448039  0  0.051917  0.098306  0  3.942387  0
C  C171  1  0.56149170  0.14604365  0.40456620  1  0.403946  0  0.052024  0.098611  0  3.940537  0
C  C172  1  0.68119421  0.61079268  0.68377042  1  -0.016296  0  -0.021237  -0.016117  0  4.015384  0
C  C173  1  0.97579288  0.38899829  0.31616685  1  -0.023263  0  -0.019013  -0.014397  0  4.014551  0
C  C174  1  0.04182142  0.88893988  0.18382802  1  0.016329  0  -0.021121  -0.016813  0  4.013575  0
C  C175  1  0.11523237  0.11101278  0.81629957  1  0.017868  0  -0.020434  -0.015052  0  4.017309  0
C  C176  1  0.63105608  0.54819406  0.71444966  1  -0.014  0  -0.091281  -0.142514  0  3.981659  0
C  C177  1  0.89306951  0.45159666  0.28558940  1  0.004451  0  -0.094395  -0.145351  0  3.984454  0
C  C178  1  0.92878198  0.95152942  0.21444162  1  -0.060392  0  -0.091067  -0.14115  0  3.981634  0
C  C179  1  0.09537476  0.04840662  0.78567429  1  -0.021209  0  -0.090824  -0.143438  0  3.984404  0
C  C180  1  0.75625845  0.48098111  0.71892685  1  0.003868  0  -0.02264  -0.011306  0  4.017516  0
C  C181  1  0.95515582  0.51890311  0.28113920  1  -0.054781  0  -0.021422  -0.010206  0  4.016095  0
C  C182  1  0.98645892  0.01879809  0.21892521  1  -0.052619  0  -0.024059  -0.013926  0  4.017725  0
C  C183  1  0.22491300  0.98117374  0.78115877  1  -0.012316  0  -0.023254  -0.010578  0  4.014715  0
C  C184  1  0.93431633  0.47593827  0.69343284  1  -0.077449  0  -0.106504  -0.246238  0  3.983212  0
C  C185  1  0.10286166  0.52404065  0.30655024  1  -0.070679  0  -0.104432  -0.244495  0  3.982233  0
C  C186  1  0.15947511  0.02395041  0.19348410  1  -0.034342  0  -0.10474  -0.243617  0  3.980611  0
C  C187  1  0.37776790  0.97606697  0.80657598  1  -0.092308  0  -0.106072  -0.246314  0  3.979957  0
C  C188  1  0.98348559  0.53857915  0.66241653  1  0.447027  0  0.078754  0.246246  0  4.097792  0
C  C189  1  0.18436728  0.46138630  0.33742772  1  0.462403  0  0.077148  0.245145  0  4.097417  0
C  C190  1  0.27159670  0.96130679  0.16255448  1  0.388645  0  0.077852  0.244959  0  4.097644  0
C  C191  1  0.39636659  0.03873885  0.83751413  1  0.459706  0  0.078011  0.246063  0  4.097414  0
C  C192  1  0.85659623  0.60599207  0.65758433  1  -0.015733  0  -0.093729  -0.20796  0  3.951511  0
C  C193  1  0.12046387  0.39388329  0.34222993  1  -0.042739  0  -0.093273  -0.206323  0  3.953296  0
C  C194  1  0.21245181  0.89381237  0.15773569  1  0.017929  0  -0.093075  -0.206535  0  3.950333  0
C  C195  1  0.26476000  0.10617633  0.84237518  1  -0.046269  0  -0.094104  -0.208295  0  3.951742  0
C  C196  1  0.54539217  0.68325586  0.67934315  1  1.571316  0  0.193655  0.555568  0  4.240643  0
C  C197  1  0.90822267  0.31647643  0.32065190  1  1.578854  0  0.192088  0.554428  0  4.240603  0
C  C198  1  0.97856717  0.81646343  0.17939887  1  1.555587  0  0.194286  0.555908  0  4.240875  0
C  C199  1  0.97486976  0.18342527  0.82082078  1  1.563831  0  0.192603  0.553816  0  4.24345  0
C  C200  1  0.69560214  0.41410478  0.74958471  1  1.532301  0  0.192649  0.557514  0  4.217932  0
C  C201  1  0.85796136  0.58575514  0.25050500  1  1.555151  0  0.195501  0.558556  0  4.216264  0
C  C202  1  0.85885268  0.08560909  0.24964842  1  1.559518  0  0.194395  0.557715  0  4.212462  0
C  C203  1  0.19453578  0.91433101  0.75051239  1  1.546328  0  0.192958  0.55612  0  4.216672  0
C  C204  1  0.28848316  0.47208636  0.63790274  1  0.370183  0  -0.066304  0.086507  0  3.907521  0
C  C205  1  0.39877154  0.52786559  0.36180731  1  0.353393  0  -0.06909  0.082806  0  3.912115  0
C  C206  1  0.51013733  0.02784668  0.13809832  1  0.36092  0  -0.065948  0.086185  0  3.90637  0
C  C207  1  0.67722729  0.97225138  0.86186141  1  0.381491  0  -0.0669  0.085338  0  3.909915  0
C  C208  1  0.44961398  0.48465159  0.59608504  1  -0.044226  0  -0.251191  -0.399794  0  3.970701  0
C  C209  1  0.53049131  0.51532549  0.40374637  1  -0.03478  0  -0.24933  -0.396997  0  3.97132  0
C  C210  1  0.68362689  0.01535032  0.09615797  1  -0.045312  0  -0.250361  -0.399738  0  3.97276  0
C  C211  1  0.79664025  0.98471230  0.90374119  1  -0.07124  0  -0.250618  -0.399008  0  3.970202  0
C  C212  1  0.09693277  0.74448885  0.99765335  1  0.469607  0  0.036538  0.096464  0  4.004288  0
C  C213  1  0.83853668  0.25537731  0.00243058  1  0.470735  0  0.035312  0.095093  0  4.00752  0
C  C214  1  0.59082215  0.75543415  0.49762886  1  0.484465  0  0.034479  0.094542  0  4.005771  0
C  C215  1  0.84469843  0.24465695  0.50222461  1  0.501969  0  0.036417  0.096491  0  4.004459  0
C  C216  1  0.15398085  0.80791961  0.01417189  1  -0.01951  0  -0.095347  -0.194501  0  3.92477  0
C  C217  1  0.97601781  0.19213492  0.98596832  1  0.012214  0  -0.094211  -0.194434  0  3.924805  0
C  C218  1  0.71180807  0.69218246  0.51410473  1  -0.064303  0  -0.094537  -0.192359  0  3.925232  0
C  C219  1  0.91844171  0.30802616  0.48579966  1  -0.072098  0  -0.095969  -0.195515  0  3.926996  0
C  C220  1  0.20362119  0.85975618  0.97112988  1  -0.067325  0  0.002225  0.149225  0  3.964569  0
C  C221  1  0.03446541  0.14029035  0.02901963  1  -0.084604  0  0.00203  0.150825  0  3.964916  0
C  C222  1  0.81322923  0.64036148  0.47103760  1  -0.049256  0  0.001774  0.148499  0  3.96761  0
C  C223  1  0.92467905  0.35991307  0.52887754  1  -0.069426  0  0.002026  0.150127  0  3.966758  0
C  C224  1  0.19247673  0.84392824  0.91296941  1  -0.087713  0  -0.100171  -0.206831  0  3.972821  0
C  C225  1  0.94901705  0.15593660  0.08714229  1  -0.084376  0  -0.099664  -0.207367  0  3.972251  0
C  C226  1  0.78578317  0.65600996  0.41291571  1  -0.068833  0  -0.09859  -0.20632  0  3.972289  0
C  C227  1  0.85488417  0.34420954  0.58698874  1  -0.048056  0  -0.097649  -0.205642  0  3.970306  0
C  C228  1  0.13244057  0.77935224  0.90084529  1  0.485877  0  0.030724  0.083923  0  4.027136  0
C  C229  1  0.81193259  0.22036822  0.09921355  1  0.522512  0  0.029369  0.082474  0  4.028553  0
C  C230  1  0.66079129  0.72045104  0.40083173  1  0.482489  0  0.029679  0.082922  0  4.026793  0
C  C231  1  0.78267439  0.27965780  0.59901677  1  0.481616  0  0.028417  0.081765  0  4.026146  0
C  C232  1  0.26501792  0.92952605  0.98628318  1  -0.012845  0  -0.159027  -0.200494  0  3.946379  0
C  C233  1  0.18088863  0.07057117  0.01391750  1  0.003757  0  -0.160427  -0.202043  0  3.946569  0
C  C234  1  0.94453168  0.57064176  0.48616745  1  -0.017949  0  -0.158787  -0.199192  0  3.946292  0
C  C235  1  0.00120497  0.42967355  0.51379055  1  -0.029327  0  -0.160643  -0.201469  0  3.948433  0
C  C236  1  0.11308602  0.00006422  0.00010347  1  -0.004869  0  -0.158861  -0.121648  0  3.884773  0
C  C237  1  0.86299514  0.50013697  0.49988859  1  -8.9e-05  0  -0.159581  -0.122927  0  3.887215  0
N  N238  1  0.00387841  0.73916347  0.75269445  1  -1.26031  0  -0.33507  -0.246876  0  3.588478  0
N  N239  1  0.49539738  0.26046471  0.24742814  1  -1.272238  0  -0.335581  -0.24724  0  3.585939  0
N  N240  1  0.49250985  0.76090759  0.25277637  1  -1.284835  0  -0.335632  -0.24737  0  3.590073  0
N  N241  1  0.50703405  0.23916668  0.74716437  1  -1.276636  0  -0.335906  -0.24864  0  3.588707  0
N  N242  1  0.70541533  0.71238173  0.12300814  1  -1.260133  0  -0.333423  -0.23424  0  3.604215  0
N  N243  1  0.54024610  0.28790902  0.87695983  1  -1.249882  0  -0.333322  -0.232696  0  3.601365  0
N  N244  1  0.16817564  0.78785371  0.62308947  1  -1.264143  0  -0.332802  -0.233298  0  3.602056  0
N  N245  1  0.57908428  0.21210581  0.37712979  1  -1.237467  0  -0.332175  -0.23284  0  3.602494  0
N  N246  1  0.08457541  0.72943134  0.94200979  1  -1.226531  0  -0.343293  -0.306434  0  3.329596  0
N  N247  1  0.75515963  0.27025692  0.05803934  1  -1.231921  0  -0.34264  -0.305653  0  3.332187  0
N  N248  1  0.56297858  0.77034449  0.44201200  1  -1.207411  0  -0.342558  -0.305701  0  3.331678  0
N  N249  1  0.77625024  0.22969214  0.55782212  1  -1.21066  0  -0.343838  -0.306862  0  3.329361  0
O  O250  1  0.38985811  0.68177790  0.70928130  1  -1.176804  0  -0.343765  -0.567555  0  2.347431  0
O  O251  1  0.78075653  0.31792243  0.29083911  1  -1.179932  0  -0.343463  -0.567178  0  2.344982  0
O  O252  1  0.82146523  0.81801687  0.20928873  1  -1.18398  0  -0.345045  -0.569137  0  2.348624  0
O  O253  1  0.84885475  0.18183814  0.79104201  1  -1.180304  0  -0.342307  -0.565546  0  2.347249  0
O  O254  1  0.58396353  0.73815509  0.64908982  1  -1.17581  0  -0.330469  -0.550009  0  2.107103  0
O  O255  1  0.97189995  0.26158254  0.35084176  1  -1.172502  0  -0.330442  -0.550242  0  2.107556  0
O  O256  1  0.07207920  0.76153327  0.14918767  1  -1.174432  0  -0.330343  -0.549544  0  2.106992  0
O  O257  1  0.98342682  0.23837998  0.85099998  1  -1.173289  0  -0.330669  -0.549356  0  2.107292  0
O  O258  1  0.53952758  0.42128033  0.77689786  1  -1.182874  0  -0.333405  -0.57385  0  2.129056  0
O  O259  1  0.73643656  0.57855905  0.22312823  1  -1.186775  0  -0.334356  -0.574493  0  2.129658  0
O  O260  1  0.71037055  0.07828817  0.27721794  1  -1.192412  0  -0.334659  -0.574149  0  2.127091  0
O  O261  1  0.06566933  0.92158056  0.72319868  1  -1.181107  0  -0.333601  -0.573918  0  2.127415  0
O  O262  1  0.80929748  0.34932503  0.74573911  1  -1.155205  0  -0.328181  -0.536952  0  2.290813  0
O  O263  1  0.90288776  0.65055863  0.25443786  1  -1.167406  0  -0.330321  -0.537631  0  2.290793  0
O  O264  1  0.90740669  0.15047840  0.24558911  1  -1.159271  0  -0.32876  -0.536764  0  2.288983  0
O  O265  1  0.30424320  0.84950314  0.75440298  1  -1.17286  0  -0.329  -0.536589  0  2.292771  0
O  O266  1  0.15128155  0.53940048  0.63446276  1  -1.086021  0  -0.187015  -0.218069  0  2.549818  0
O  O267  1  0.32536459  0.46058420  0.36525749  1  -1.078822  0  -0.185307  -0.216506  0  2.547038  0
O  O268  1  0.44025297  0.96053748  0.13465148  1  -1.079907  0  -0.187846  -0.218308  0  2.548267  0
O  O269  1  0.53651741  0.03952590  0.86538261  1  -1.077107  0  -0.187467  -0.217488  0  2.550126  0
