# generated using pymatgen
data_ZnH5C13Br2N4O
_symmetry_space_group_name_H-M   'P 1'
_cell_length_a   19.96288549
_cell_length_b   22.45524933
_cell_length_c   22.36880301
_cell_angle_alpha   90.00052593
_cell_angle_beta   87.25914708
_cell_angle_gamma   89.95115477
_symmetry_Int_Tables_number   1
_chemical_formula_structural   ZnH5C13Br2N4O
_chemical_formula_sum   'Zn8 H40 C104 Br16 N32 O8'
_cell_volume   10015.82391405
_cell_formula_units_Z   8
loop_
 _symmetry_equiv_pos_site_id
 _symmetry_equiv_pos_as_xyz
  1  'x, y, z'
loop_
 _atom_site_type_symbol
 _atom_site_label
 _atom_site_symmetry_multiplicity
 _atom_site_fract_x
 _atom_site_fract_y
 _atom_site_fract_z
 _atom_site_occupancy
 _atom_site_pbe_bader_charge
 _atom_site_pbe_bader_spin_density
 _atom_site_pbe_cm5_charge
 _atom_site_pbe_ddec_charge
 _atom_site_pbe_ddec_spin_density
 _atom_site_pbe_ddec_sum_bond_order
 _atom_site_pbe_magmom
Zn  Zn0  1  0.62394240  0.50167002  0.98922416  1  1.22093  0  0.768375  0.724223  0  2.227933  0
Zn  Zn1  1  0.37602997  0.49832259  0.01080759  1  1.221168  0  0.768392  0.724292  0  2.2275  0
Zn  Zn2  1  0.12389970  0.99835170  0.48929295  1  1.219945  0  0.768312  0.723933  0  2.228345  0
Zn  Zn3  1  0.87616887  0.00169566  0.51063641  1  1.220003  0  0.76853  0.723823  0  2.229291  0
Zn  Zn4  1  0.49907969  0.60820845  0.00462820  1  1.200088  0  0.740717  0.676123  0  2.304493  0
Zn  Zn5  1  0.50087933  0.39178773  0.99540110  1  1.199761  0  0.74069  0.676036  0  2.304619  0
Zn  Zn6  1  0.00098608  0.10830915  0.49563972  1  1.201295  0  0.741102  0.67622  0  2.304738  0
Zn  Zn7  1  0.99908328  0.89176670  0.50432640  1  1.201311  0  0.74077  0.675612  0  2.305248  0
H  H8  1  0.26175093  0.41888546  0.09403667  1  0.099563  0  0.128667  0.12039  0  0.975172  0
H  H9  1  0.73825386  0.58114321  0.90599695  1  0.09944  0  0.12857  0.120379  0  0.975114  0
H  H10  1  0.62999297  0.50189387  0.84579109  1  0.119057  0  0.125724  0.12119  0  0.991644  0
H  H11  1  0.36997036  0.49811032  0.15424769  1  0.118959  0  0.125818  0.12146  0  0.991105  0
H  H12  1  0.86970551  0.00158597  0.65402746  1  0.121362  0  0.125442  0.12079  0  0.991659  0
H  H13  1  0.13019247  0.99848016  0.34589154  1  0.121476  0  0.125717  0.121208  0  0.991469  0
H  H14  1  0.23827804  0.91890210  0.40602345  1  0.097691  0  0.128741  0.121033  0  0.974839  0
H  H15  1  0.76171639  0.08110387  0.59386529  1  0.097069  0  0.128595  0.120594  0  0.974943  0
H  H16  1  0.51945996  0.35847172  0.13103705  1  0.116251  0  0.122117  0.118483  0  0.992661  0
H  H17  1  0.48050013  0.64152757  0.86898465  1  0.116493  0  0.12207  0.118436  0  0.9928  0
H  H18  1  0.45762472  0.32611672  0.87795275  1  0.130076  0  0.105758  0.096265  0  1.059318  0
H  H19  1  0.54237850  0.67392931  0.12205442  1  0.129899  0  0.105815  0.096397  0  1.059222  0
H  H20  1  0.04223570  0.82604594  0.62186619  1  0.127139  0  0.105814  0.096553  0  1.059147  0
H  H21  1  0.95779914  0.17410875  0.37816659  1  0.124607  0  0.106085  0.096725  0  1.058968  0
H  H22  1  0.98062009  0.85860487  0.36866888  1  0.074576  0  0.122081  0.11839  0  0.992192  0
H  H23  1  0.01941406  0.14148970  0.63129219  1  0.074025  0  0.121895  0.118129  0  0.992505  0
H  H24  1  0.79250638  0.60766090  0.12886511  1  0.064622  0  0.106173  0.112178  0  0.987528  0
H  H25  1  0.78559086  0.63837611  0.05524983  1  0.07671  0  0.107557  0.111646  0  0.979349  0
H  H26  1  0.83060176  0.56991313  0.06492467  1  0.076437  0  0.112618  0.117236  0  0.968971  0
H  H27  1  0.21440458  0.36154791  0.94483651  1  0.07442  0  0.107618  0.11152  0  0.979781  0
H  H28  1  0.20745074  0.39222083  0.87121119  1  0.064857  0  0.106237  0.11227  0  0.987805  0
H  H29  1  0.16933304  0.42996281  0.93514858  1  0.077415  0  0.112693  0.117505  0  0.96888  0
H  H30  1  0.25937204  0.53973009  0.83135381  1  0.074405  0  0.105408  0.106832  0  0.979583  0
H  H31  1  0.22166804  0.61154986  0.84431755  1  0.08257  0  0.105184  0.112273  0  0.991398  0
H  H32  1  0.18373894  0.54624321  0.87774472  1  0.089374  0  0.110383  0.115007  0  0.97287  0
H  H33  1  0.77829042  0.38843296  0.15571263  1  0.082576  0  0.105148  0.112023  0  0.991585  0
H  H34  1  0.74058853  0.46025852  0.16864101  1  0.074791  0  0.105369  0.106789  0  0.979328  0
H  H35  1  0.81623197  0.45372045  0.12226640  1  0.090262  0  0.110287  0.114924  0  0.972364  0
H  H36  1  0.24070784  0.03964341  0.66884332  1  0.071386  0  0.105694  0.107221  0  0.979389  0
H  H37  1  0.27830441  0.11146672  0.65593431  1  0.088911  0  0.105131  0.112227  0  0.991628  0
H  H38  1  0.31634457  0.04617178  0.62247280  1  0.095269  0  0.110135  0.115157  0  0.972392  0
H  H39  1  0.72169751  0.88842791  0.34411180  1  0.087081  0  0.104944  0.111778  0  0.991464  0
H  H40  1  0.75920388  0.96028999  0.33122330  1  0.073752  0  0.105558  0.106951  0  0.979045  0
H  H41  1  0.68359829  0.95368323  0.37761358  1  0.091293  0  0.110267  0.114945  0  0.971869  0
H  H42  1  0.70786339  0.10774174  0.37099653  1  0.062661  0  0.106194  0.112053  0  0.987288  0
H  H43  1  0.71458929  0.13826974  0.44471812  1  0.077582  0  0.107487  0.111629  0  0.979356  0
H  H44  1  0.66980264  0.06979984  0.43481355  1  0.080098  0  0.11249  0.117427  0  0.968754  0
H  H45  1  0.28545355  0.86154605  0.55516780  1  0.075647  0  0.107527  0.111551  0  0.979796  0
H  H46  1  0.29232001  0.89210428  0.62885134  1  0.064749  0  0.106328  0.11247  0  0.98681  0
H  H47  1  0.33038494  0.92994777  0.56498509  1  0.080189  0  0.112638  0.117905  0  0.968514  0
C  C48  1  0.66928175  0.58681131  0.08272624  1  1.040738  0  0.198667  0.306931  0  4.056396  0
C  C49  1  0.33067137  0.41315637  0.91732894  1  1.04203  0  0.198647  0.306753  0  4.056431  0
C  C50  1  0.33251749  0.58766613  0.91200596  1  1.108677  0  0.205537  0.323188  0  4.046642  0
C  C51  1  0.66744954  0.41231001  0.08801002  1  1.109422  0  0.205579  0.322819  0  4.047716  0
C  C52  1  0.16749870  0.08762084  0.58824138  1  1.109795  0  0.20538  0.322598  0  4.048932  0
C  C53  1  0.83250529  0.91236731  0.41177609  1  1.108549  0  0.205609  0.322678  0  4.049308  0
C  C54  1  0.83108300  0.08686389  0.41719510  1  1.049085  0  0.198607  0.306511  0  4.056668  0
C  C55  1  0.16908247  0.91309748  0.58269819  1  1.047633  0  0.198521  0.307455  0  4.056433  0
C  C56  1  0.73058748  0.71210555  0.89759668  1  -0.318605  0  -0.036488  -0.039169  0  4.111667  0
C  C57  1  0.26931783  0.28791158  0.10235918  1  -0.317713  0  -0.036451  -0.039168  0  4.112109  0
C  C58  1  0.35974545  0.61162840  0.22587034  1  -0.026692  0  -0.036344  -0.039515  0  4.097963  0
C  C59  1  0.64022365  0.38837089  0.77416495  1  -0.370094  0  -0.036248  -0.039458  0  4.097176  0
C  C60  1  0.14053704  0.11208876  0.27452262  1  -0.103197  0  -0.036483  -0.03974  0  4.098188  0
C  C61  1  0.85931617  0.88799964  0.72541224  1  -0.039889  0  -0.036238  -0.03917  0  4.096883  0
C  C62  1  0.76908711  0.21206305  0.60234164  1  -0.305228  0  -0.036513  -0.040043  0  4.112889  0
C  C63  1  0.23092338  0.78794202  0.39768938  1  -0.290218  0  -0.036599  -0.040199  0  4.113754  0
C  C64  1  0.81418911  0.78378811  0.84120747  1  0.095712  0  -0.018009  0.078253  0  4.049134  0
C  C65  1  0.18560611  0.21628919  0.15870540  1  0.09254  0  -0.018165  0.077637  0  4.049398  0
C  C66  1  0.30282351  0.65955001  0.32139788  1  0.096864  0  -0.019065  0.074275  0  4.053286  0
C  C67  1  0.69713480  0.34046042  0.67862738  1  0.098099  0  -0.018895  0.074892  0  4.052204  0
C  C68  1  0.19741754  0.15973994  0.17887493  1  0.078746  0  -0.01913  0.074051  0  4.052145  0
C  C69  1  0.80234344  0.84032579  0.82101992  1  0.072515  0  -0.019498  0.073848  0  4.051212  0
C  C70  1  0.68533367  0.28388955  0.65855278  1  0.0906  0  -0.017923  0.077651  0  4.049877  0
C  C71  1  0.31466757  0.71610082  0.34149512  1  0.090522  0  -0.018129  0.077695  0  4.050751  0
C  C72  1  0.22921779  0.25184483  0.12426471  1  0.047962  0  -0.063388  -0.109977  0  4.216104  0
C  C73  1  0.77062266  0.74821597  0.87567353  1  0.05273  0  -0.063207  -0.109965  0  4.215614  0
C  C74  1  0.66316851  0.36807830  0.72661444  1  0.090522  0  -0.0622  -0.107125  0  4.209937  0
C  C75  1  0.33677779  0.63189473  0.27342451  1  -0.250835  0  -0.06191  -0.106676  0  4.209551  0
C  C76  1  0.83627195  0.86779260  0.77294846  1  -0.211548  0  -0.062282  -0.107307  0  4.209071  0
C  C77  1  0.16352894  0.13227979  0.22696226  1  -0.149842  0  -0.062308  -0.106963  0  4.21058  0
C  C78  1  0.27101217  0.75179893  0.37580425  1  0.019583  0  -0.063118  -0.109124  0  4.216384  0
C  C79  1  0.72899691  0.24819590  0.62424602  1  0.035798  0  -0.063341  -0.109271  0  4.215486  0
C  C80  1  0.30667946  0.39352607  0.08166878  1  0.443559  0  0.023341  -0.030867  0  3.949444  0
C  C81  1  0.69330681  0.60647945  0.91835110  1  0.444918  0  0.023267  -0.030932  0  3.949569  0
C  C82  1  0.61591909  0.45807876  0.86257464  1  0.44666  0  0.025151  -0.015568  0  3.927333  0
C  C83  1  0.38405896  0.54192097  0.13746169  1  0.446688  0  0.024793  -0.016392  0  3.927224  0
C  C84  1  0.88382229  0.95778737  0.63717526  1  0.450901  0  0.02518  -0.015775  0  3.928037  0
C  C85  1  0.11613640  0.04228719  0.36277653  1  0.451328  0  0.024678  -0.016474  0  3.928619  0
C  C86  1  0.19337818  0.89355217  0.41835274  1  0.445412  0  0.022844  -0.03236  0  3.950031  0
C  C87  1  0.80661718  0.10646359  0.58157768  1  0.44704  0  0.023326  -0.031119  0  3.949275  0
C  C88  1  0.40537665  0.63745844  0.12219406  1  0.437628  0  0.092157  0.151911  0  3.984342  0
C  C89  1  0.59458898  0.36254575  0.87784072  1  0.437499  0  0.092184  0.152228  0  3.984214  0
C  C90  1  0.61656538  0.67535059  0.93789451  1  0.448381  0  0.084466  0.134021  0  4.015493  0
C  C91  1  0.38335505  0.32461309  0.06204680  1  0.451089  0  0.084195  0.133917  0  4.015717  0
C  C92  1  0.88320146  0.17537633  0.56210250  1  0.454999  0  0.083999  0.133738  0  4.015639  0
C  C93  1  0.11680046  0.82464254  0.43788851  1  0.454607  0  0.083987  0.133368  0  4.016047  0
C  C94  1  0.09486203  0.13784445  0.37820597  1  0.465309  0  0.092311  0.151679  0  3.98409  0
C  C95  1  0.90523158  0.86225143  0.62177757  1  0.467524  0  0.092  0.151727  0  3.98417  0
C  C96  1  0.56435337  0.37964519  0.11174192  1  0.440895  0  0.022139  -0.014125  0  3.953581  0
C  C97  1  0.43560938  0.62034965  0.88827758  1  0.441866  0  0.022112  -0.013836  0  3.953769  0
C  C98  1  0.42141255  0.35920811  0.89408470  1  0.415929  0  0.015282  -0.018074  0  3.939892  0
C  C99  1  0.57857005  0.64081210  0.10593736  1  0.415567  0  0.015067  -0.018217  0  3.940136  0
C  C100  1  0.07841442  0.85913018  0.60578252  1  0.413488  0  0.015728  -0.01787  0  3.940023  0
C  C101  1  0.92166558  0.14096170  0.39420214  1  0.414351  0  0.01527  -0.019144  0  3.940671  0
C  C102  1  0.93567272  0.87974936  0.38798001  1  0.48416  0  0.022032  -0.014197  0  3.953776  0
C  C103  1  0.06434728  0.12031448  0.61198979  1  0.482659  0  0.022418  -0.013501  0  3.953694  0
C  C104  1  0.64816101  0.63898953  0.11472830  1  0.155845  0  -0.037872  -0.086871  0  4.199128  0
C  C105  1  0.35181701  0.36099016  0.88531519  1  0.151914  0  -0.037925  -0.087155  0  4.198594  0
C  C106  1  0.37006793  0.62084905  0.86731310  1  0.144368  0  -0.036758  -0.0884  0  4.194514  0
C  C107  1  0.62989543  0.37912842  0.13270506  1  0.145976  0  -0.036699  -0.087559  0  4.19439  0
C  C108  1  0.12990004  0.12084824  0.63292317  1  0.139758  0  -0.037359  -0.08917  0  4.19398  0
C  C109  1  0.87010496  0.87916796  0.36707371  1  0.137573  0  -0.037284  -0.088858  0  4.193691  0
C  C110  1  0.85210079  0.13910272  0.38529797  1  0.155831  0  -0.038203  -0.086861  0  4.198404  0
C  C111  1  0.14798673  0.86091434  0.61465992  1  0.155707  0  -0.03843  -0.088107  0  4.199629  0
C  C112  1  0.31546997  0.33106656  0.08241272  1  0.161675  0  -0.031319  -0.012726  0  4.193161  0
C  C113  1  0.68446191  0.66893141  0.91754984  1  0.160195  0  -0.031659  -0.012967  0  4.192317  0
C  C114  1  0.61716791  0.40302697  0.83230849  1  0.160296  0  -0.028154  -0.007811  0  4.165105  0
C  C115  1  0.38281073  0.59697231  0.16772651  1  0.159063  0  -0.028281  -0.007992  0  4.165272  0
C  C116  1  0.88252558  0.90268007  0.66732732  1  0.124394  0  -0.027779  -0.007641  0  4.165881  0
C  C117  1  0.11744142  0.09739760  0.33262729  1  0.123612  0  -0.02769  -0.007237  0  4.166569  0
C  C118  1  0.18469914  0.83109785  0.41761257  1  0.16389  0  -0.030938  -0.011328  0  4.193217  0
C  C119  1  0.81530625  0.16891390  0.58238567  1  0.161787  0  -0.031085  -0.012063  0  4.193283  0
C  C120  1  0.65456835  0.34746185  0.18069967  1  0.123025  0  -0.028381  -0.041262  0  4.10564  0
C  C121  1  0.34539494  0.65250984  0.81931267  1  0.120842  0  -0.028182  -0.040451  0  4.104886  0
C  C122  1  0.31455961  0.32113715  0.85241397  1  -0.209645  0  -0.030066  -0.041494  0  4.114869  0
C  C123  1  0.68544177  0.67882294  0.14762542  1  -0.205825  0  -0.030329  -0.042453  0  4.115608  0
C  C124  1  0.18527101  0.82108084  0.64761694  1  -0.210955  0  -0.030026  -0.041331  0  4.114108  0
C  C125  1  0.81476770  0.17893713  0.35237781  1  -0.209547  0  -0.030212  -0.042186  0  4.113821  0
C  C126  1  0.84546270  0.84746269  0.31911120  1  0.13148  0  -0.028026  -0.040188  0  4.104786  0
C  C127  1  0.15454080  0.15253926  0.68089239  1  0.131731  0  -0.027997  -0.040161  0  4.105065  0
C  C128  1  0.68112410  0.31758476  0.21927012  1  -0.368355  0  -0.050646  -0.073392  0  4.337035  0
C  C129  1  0.31884663  0.68239939  0.78074995  1  -0.367535  0  -0.05077  -0.073748  0  4.337008  0
C  C130  1  0.28211763  0.28573372  0.82327917  1  0.048592  0  -0.05134  -0.074044  0  4.340854  0
C  C131  1  0.71789399  0.71422681  0.17675052  1  0.043027  0  -0.051419  -0.073692  0  4.340824  0
C  C132  1  0.21773683  0.78567142  0.67678311  1  0.045528  0  -0.050925  -0.073506  0  4.339532  0
C  C133  1  0.78228302  0.21434701  0.32322970  1  0.044335  0  -0.050784  -0.072814  0  4.339622  0
C  C134  1  0.81892148  0.81757512  0.28057062  1  -0.371705  0  -0.050593  -0.073552  0  4.337974  0
C  C135  1  0.18109113  0.18241925  0.71943176  1  -0.370933  0  -0.050497  -0.073469  0  4.337576  0
C  C136  1  0.71360283  0.28358975  0.25766362  1  -0.158508  0  -0.033333  -0.026719  0  4.272494  0
C  C137  1  0.28638155  0.71641043  0.74236160  1  -0.158786  0  -0.033217  -0.026788  0  4.272923  0
C  C138  1  0.24625099  0.24905764  0.79013313  1  0.076899  0  -0.032874  -0.024057  0  4.274189  0
C  C139  1  0.75377639  0.75090868  0.20987980  1  0.076642  0  -0.032627  -0.023751  0  4.274094  0
C  C140  1  0.25366021  0.74902029  0.70996579  1  0.081515  0  -0.032957  -0.024395  0  4.275206  0
C  C141  1  0.74634608  0.25099724  0.29006114  1  0.079971  0  -0.03297  -0.02479  0  4.275132  0
C  C142  1  0.78649815  0.78353434  0.24221730  1  -0.162661  0  -0.033239  -0.027147  0  4.271753  0
C  C143  1  0.21351788  0.21644667  0.75779320  1  -0.16284  0  -0.033244  -0.027015  0  4.271238  0
C  C144  1  0.78798300  0.59701585  0.08134326  1  0.359116  0  -0.127621  -0.16847  0  3.877499  0
C  C145  1  0.21197754  0.40289304  0.91872728  1  0.361783  0  -0.127813  -0.168755  0  3.878501  0
C  C146  1  0.23118231  0.56779359  0.86401522  1  0.331768  0  -0.129477  -0.16398  0  3.880192  0
C  C147  1  0.76878502  0.43218076  0.13599674  1  0.330577  0  -0.12937  -0.163587  0  3.879221  0
C  C148  1  0.26886676  0.06772537  0.63620658  1  0.32003  0  -0.12973  -0.165017  0  3.880437  0
C  C149  1  0.73109434  0.93217105  0.36385634  1  0.322725  0  -0.129526  -0.163886  0  3.878191  0
C  C150  1  0.71234807  0.09698557  0.41849900  1  0.355053  0  -0.127426  -0.168623  0  3.876158  0
C  C151  1  0.28779407  0.90284845  0.58135134  1  0.355697  0  -0.127722  -0.168859  0  3.876613  0
Br  Br152  1  0.41474955  0.72010175  0.12878745  1  -0.010672  0  0.059482  -0.033562  0  1.425637  0
Br  Br153  1  0.58522794  0.27990288  0.87122915  1  -0.010642  0  0.059503  -0.03359  0  1.425424  0
Br  Br154  1  0.56644503  0.74504986  0.95053682  1  -0.012149  0  0.061601  -0.032987  0  1.395393  0
Br  Br155  1  0.43339496  0.25487824  0.04932703  1  -0.01199  0  0.06154  -0.032981  0  1.395227  0
Br  Br156  1  0.93313996  0.24511314  0.54953309  1  -0.013379  0  0.061626  -0.032939  0  1.395627  0
Br  Br157  1  0.06686765  0.75490439  0.45048937  1  -0.013126  0  0.061582  -0.032924  0  1.395466  0
Br  Br158  1  0.08549928  0.22051261  0.37169559  1  -0.010423  0  0.059117  -0.033741  0  1.423863  0
Br  Br159  1  0.91464965  0.77959928  0.62833946  1  -0.010442  0  0.059295  -0.033697  0  1.424807  0
Br  Br160  1  0.72545525  0.88151019  0.85517364  1  -0.043381  0  0.0122  -0.058305  0  1.286969  0
Br  Br161  1  0.27420706  0.11847542  0.14468063  1  -0.042931  0  0.012168  -0.058252  0  1.288086  0
Br  Br162  1  0.39548813  0.75486577  0.31255357  1  -0.045408  0  0.012653  -0.061114  0  1.322637  0
Br  Br163  1  0.60451014  0.24510679  0.68748711  1  -0.0446  0  0.01258  -0.061204  0  1.322217  0
Br  Br164  1  0.10477416  0.25521789  0.18757781  1  -0.044263  0  0.012714  -0.060864  0  1.3217  0
Br  Br165  1  0.89505485  0.74488655  0.81234547  1  -0.043651  0  0.012555  -0.061315  0  1.321301  0
Br  Br166  1  0.77403921  0.38147774  0.64446222  1  -0.043374  0  0.012191  -0.058407  0  1.288104  0
Br  Br167  1  0.22588678  0.61859594  0.35555267  1  -0.042897  0  0.012195  -0.058346  0  1.289038  0
N  N168  1  0.61655306  0.56063884  0.05880055  1  -0.786692  0  -0.286502  -0.292949  0  3.547397  0
N  N169  1  0.38339247  0.43935289  0.94124198  1  -0.785543  0  -0.286459  -0.292997  0  3.546973  0
N  N170  1  0.37247960  0.57048204  0.95508840  1  -0.803542  0  -0.283082  -0.289857  0  3.513873  0
N  N171  1  0.62748869  0.42950390  0.04493074  1  -0.804519  0  -0.28323  -0.289877  0  3.513575  0
N  N172  1  0.12754325  0.07038891  0.54520195  1  -0.802257  0  -0.282809  -0.289555  0  3.515592  0
N  N173  1  0.87246848  0.92962684  0.45479863  1  -0.801529  0  -0.28308  -0.289719  0  3.516008  0
N  N174  1  0.88384090  0.06069579  0.44116048  1  -0.79166  0  -0.286333  -0.292409  0  3.548942  0
N  N175  1  0.11635009  0.93930298  0.55872605  1  -0.788636  0  -0.286378  -0.292751  0  3.550145  0
N  N176  1  0.36392116  0.42066994  0.06311723  1  -0.780745  0  -0.263599  -0.186902  0  3.514896  0
N  N177  1  0.63609187  0.57930884  0.93692727  1  -0.78179  0  -0.263495  -0.186769  0  3.515521  0
N  N178  1  0.59523528  0.45005332  0.92027558  1  -0.804228  0  -0.27977  -0.214606  0  3.593252  0
N  N179  1  0.40472467  0.54995310  0.07975463  1  -0.803528  0  -0.279461  -0.213812  0  3.592742  0
N  N180  1  0.90463208  0.94984233  0.57949567  1  -0.805873  0  -0.279842  -0.213812  0  3.595753  0
N  N181  1  0.09543097  0.05025000  0.42048110  1  -0.826239  0  -0.280085  -0.214417  0  3.595692  0
N  N182  1  0.13606454  0.92071189  0.43683317  1  -0.781591  0  -0.263471  -0.186864  0  3.513964  0
N  N183  1  0.86391917  0.07931635  0.56305137  1  -0.782108  0  -0.263807  -0.187264  0  3.514625  0
N  N184  1  0.41809708  0.60951727  0.07028802  1  -0.765522  0  -0.273038  -0.243562  0  3.503572  0
N  N185  1  0.58185370  0.39049138  0.92974429  1  -0.765842  0  -0.273012  -0.243662  0  3.503693  0
N  N186  1  0.58808517  0.62228976  0.94906202  1  -0.764202  0  -0.267379  -0.2449  0  3.507636  0
N  N187  1  0.41188713  0.37766366  0.05093703  1  -0.765353  0  -0.267363  -0.244971  0  3.5074  0
N  N188  1  0.91182861  0.12232650  0.55097849  1  -0.766076  0  -0.267339  -0.244753  0  3.507795  0
N  N189  1  0.08816254  0.87770084  0.44894784  1  -0.766851  0  -0.267358  -0.244456  0  3.508184  0
N  N190  1  0.08208252  0.10982591  0.43006171  1  -0.749794  0  -0.272252  -0.242318  0  3.501745  0
N  N191  1  0.91806034  0.89028109  0.56993337  1  -0.771789  0  -0.272401  -0.242725  0  3.502803  0
N  N192  1  0.56357290  0.40936503  0.05953007  1  -0.818163  0  -0.292065  -0.209974  0  3.633539  0
N  N193  1  0.43639055  0.59063471  0.94049348  1  -0.818208  0  -0.292166  -0.210204  0  3.634923  0
N  N194  1  0.43949835  0.40595701  0.92742836  1  -0.791868  0  -0.287362  -0.189806  0  3.569891  0
N  N195  1  0.56046703  0.59406722  0.07259612  1  -0.791079  0  -0.287086  -0.189715  0  3.570401  0
N  N196  1  0.06029258  0.90590065  0.57244274  1  -0.791947  0  -0.287494  -0.18994  0  3.569887  0
N  N197  1  0.93984838  0.09418231  0.42749676  1  -0.789995  0  -0.287504  -0.189552  0  3.570031  0
N  N198  1  0.93642422  0.90951318  0.44016934  1  -0.81921  0  -0.292067  -0.209495  0  3.634361  0
N  N199  1  0.06359958  0.09054576  0.55980321  1  -0.819491  0  -0.292484  -0.210054  0  3.634692  0
O  O200  1  0.72959251  0.56083870  0.07272458  1  -1.083029  0  -0.180669  -0.180909  0  2.602247  0
O  O201  1  0.27034395  0.43910449  0.92733930  1  -1.085668  0  -0.180738  -0.180763  0  2.602897  0
O  O202  1  0.26724150  0.57359709  0.91809030  1  -1.087146  0  -0.184382  -0.177183  0  2.566804  0
O  O203  1  0.73273097  0.42635366  0.08191995  1  -1.087005  0  -0.18427  -0.177058  0  2.567178  0
O  O204  1  0.23280707  0.07358374  0.58213558  1  -1.085401  0  -0.184009  -0.176327  0  2.567803  0
O  O205  1  0.76718210  0.92634028  0.41791347  1  -1.083871  0  -0.184217  -0.176762  0  2.567037  0
O  O206  1  0.77083642  0.06082725  0.42708605  1  -1.08409  0  -0.180825  -0.180658  0  2.601162  0
O  O207  1  0.22935952  0.93907577  0.57278845  1  -1.085467  0  -0.180753  -0.181845  0  2.60147  0
