# generated using pymatgen
data_TbPH11C9SNO9
_symmetry_space_group_name_H-M   'P 1'
_cell_length_a   6.76319702
_cell_length_b   7.54354939
_cell_length_c   13.34175201
_cell_angle_alpha   90.53544168
_cell_angle_beta   93.25799621
_cell_angle_gamma   101.65346820
_symmetry_Int_Tables_number   1
_chemical_formula_structural   TbPH11C9SNO9
_chemical_formula_sum   'Tb2 P2 H22 C18 S2 N2 O18'
_cell_volume   665.41723036
_cell_formula_units_Z   2
loop_
 _symmetry_equiv_pos_site_id
 _symmetry_equiv_pos_as_xyz
  1  'x, y, z'
loop_
 _atom_site_type_symbol
 _atom_site_label
 _atom_site_symmetry_multiplicity
 _atom_site_fract_x
 _atom_site_fract_y
 _atom_site_fract_z
 _atom_site_occupancy
 _atom_site_hle17_bader_spin_density
 _atom_site_hle17_ddec_charge
 _atom_site_hle17_ddec_spin_density
 _atom_site_hle17_ddec_sum_bond_order
 _atom_site_hle17_magmom
 _atom_site_hse06_10hf_bader_spin_density
 _atom_site_hse06_10hf_ddec_charge
 _atom_site_hse06_10hf_ddec_spin_density
 _atom_site_hse06_10hf_ddec_sum_bond_order
 _atom_site_hse06_10hf_magmom
 _atom_site_hse06_bader_spin_density
 _atom_site_hse06_ddec_charge
 _atom_site_hse06_ddec_spin_density
 _atom_site_hse06_ddec_sum_bond_order
 _atom_site_hse06_magmom
 _atom_site_pbe_bader_spin_density
 _atom_site_pbe_cm5_charge
 _atom_site_pbe_ddec_charge
 _atom_site_pbe_ddec_spin_density
 _atom_site_pbe_ddec_sum_bond_order
 _atom_site_pbe_magmom
Tb  Tb0  1  0.28536880  0.76919486  0.45453923  1  0  2.371139  0  1.592937  0  0  2.303228  0  1.917296  0  0  2.34334  0  1.878437  0  0  1.542693  2.208859  0  2.06413  0
Tb  Tb1  1  0.71463296  0.23080400  0.54546122  1  0  2.371133  0  1.592926  0  0  2.303224  0  1.917287  0  0  2.343334  0  1.87843  0  0  1.542679  2.20887  0  2.064072  0
P  P2  1  0.25007593  0.38661284  0.62177481  1  0  1.537069  0  4.925038  0  0  1.372289  0  5.435946  0  0  1.42519  0  5.390238  0  0  0.38075  1.334067  0  5.460463  0
P  P3  1  0.74992435  0.61338602  0.37822559  1  0  1.537078  0  4.925074  0  0  1.372255  0  5.436019  0  0  1.425141  0  5.390357  0  0  0.380747  1.334046  0  5.460513  0
H  H4  1  0.17616605  0.10958911  0.77764946  1  0  0.132881  0  0.932816  0  0  0.143099  0  0.98722  0  0  0.146943  0  0.985597  0  0  0.123334  0.140071  0  0.989131  0
H  H5  1  0.82383454  0.89041111  0.22235246  1  0  0.132859  0  0.932785  0  0  0.143048  0  0.987228  0  0  0.146892  0  0.985606  0  0  0.123313  0.14002  0  0.989141  0
H  H6  1  0.17728336  0.13229941  0.96472111  1  0  0.095998  0  0.932119  0  0  0.111429  0  0.987096  0  0  0.113788  0  0.985359  0  0  0.113425  0.109741  0  0.988301  0
H  H7  1  0.82271280  0.86770082  0.03527993  1  0  0.096007  0  0.932124  0  0  0.111437  0  0.987091  0  0  0.113797  0  0.985353  0  0  0.113426  0.109744  0  0.988308  0
H  H8  1  0.22294205  0.32870077  0.12205684  1  0  0.115843  0  0.958999  0  0  0.123897  0  1.021758  0  0  0.127541  0  1.019143  0  0  0.105125  0.121258  0  1.023655  0
H  H9  1  0.77705707  0.67129945  0.87794354  1  0  0.115827  0  0.959011  0  0  0.123882  0  1.021773  0  0  0.127526  0  1.019157  0  0  0.105126  0.121247  0  1.023673  0
H  H10  1  0.27560345  0.63689778  0.19854289  1  0  0.121981  0  0.954108  0  0  0.129645  0  1.016446  0  0  0.133058  0  1.014831  0  0  0.114166  0.127308  0  1.017199  0
H  H11  1  0.72439777  0.36310514  0.80145606  1  0  0.121999  0  0.954053  0  0  0.129642  0  1.016417  0  0  0.133053  0  1.014803  0  0  0.114183  0.127305  0  1.017174  0
H  H12  1  0.32171699  0.90555000  0.09304043  1  0  0.096655  0  0.947522  0  0  0.106482  0  1.008609  0  0  0.109396  0  1.006735  0  0  0.104305  0.104208  0  1.010283  0
H  H13  1  0.67828360  0.09445021  0.90695849  1  0  0.096657  0  0.947532  0  0  0.106478  0  1.008622  0  0  0.109393  0  1.006747  0  0  0.104314  0.104205  0  1.010299  0
H  H14  1  0.32390498  0.87362451  0.90494163  1  0  0.120697  0  0.967138  0  0  0.128835  0  1.030032  0  0  0.132121  0  1.028817  0  0  0.108959  0.126476  0  1.030917  0
H  H15  1  0.67609740  0.12637705  0.09505735  1  0  0.120647  0  0.967067  0  0  0.128789  0  1.029976  0  0  0.132075  0  1.02876  0  0  0.108928  0.126427  0  1.030857  0
H  H16  1  0.30514503  0.67882369  0.76539633  1  0  0.315811  0  0.901854  0  0  0.292076  0  0.96739  0  0  0.301584  0  0.959816  0  0  0.317933  0.285102  0  0.973399  0
H  H17  1  0.69485525  0.32117517  0.23460332  1  0  0.3158  0  0.901877  0  0  0.292068  0  0.96741  0  0  0.301576  0  0.959835  0  0  0.317936  0.285092  0  0.973419  0
H  H18  1  0.02564393  0.41815531  0.38576532  1  0  0.432734  0  0.864472  0  0  0.403619  0  0.927492  0  0  0.413757  0  0.912332  0  0  0.30999  0.396649  0  0.937432  0
H  H19  1  0.97435456  0.58184220  0.61423427  1  0  0.432768  0  0.864413  0  0  0.403644  0  0.927465  0  0  0.413783  0  0.912305  0  0  0.310005  0.396678  0  0.937398  0
H  H20  1  0.23256916  0.39192267  0.34364985  1  0  0.461361  0  0.825475  0  0  0.433393  0  0.881963  0  0  0.44373  0  0.86686  0  0  0.307877  0.425623  0  0.893287  0
H  H21  1  0.76743174  0.60807890  0.65634984  1  0  0.461367  0  0.825462  0  0  0.43341  0  0.88193  0  0  0.443743  0  0.866832  0  0  0.307886  0.425638  0  0.893258  0
H  H22  1  0.22738635  0.92107109  0.64464271  1  0  0.420781  0  0.890289  0  0  0.391002  0  0.953548  0  0  0.401291  0  0.938283  0  0  0.296766  0.383767  0  0.964062  0
H  H23  1  0.77261510  0.07892641  0.35535847  1  0  0.420788  0  0.890276  0  0  0.391006  0  0.953539  0  0  0.401296  0  0.938273  0  0  0.296773  0.38377  0  0.964057  0
H  H24  1  0.10870641  0.04040900  0.57630360  1  0  0.446933  0  0.850495  0  0  0.41962  0  0.907997  0  0  0.430119  0  0.892677  0  0  0.307354  0.412111  0  0.918581  0
H  H25  1  0.89129387  0.95958986  0.42369681  1  0  0.446925  0  0.850505  0  0  0.419609  0  0.908009  0  0  0.430108  0  0.892689  0  0  0.307347  0.412099  0  0.918598  0
C  C26  1  0.23933115  0.39821940  0.75926526  1  0  0.020234  0  3.548038  0  0  0.02844  0  3.799942  0  0  0.035399  0  3.810901  0  0  0.151136  0.02331  0  3.794545  0
C  C27  1  0.76066914  0.60177946  0.24073590  1  0  0.020178  0  3.548146  0  0  0.028405  0  3.80003  0  0  0.035362  0  3.810994  0  0  0.151109  0.023269  0  3.79463  0
C  C28  1  0.20225096  0.24011931  0.81641007  1  0  -0.073582  0  3.674824  0  0  -0.096494  0  3.93153  0  0  -0.104054  0  3.950249  0  0  -0.06121  -0.092143  0  3.920381  0
C  C29  1  0.79774722  0.75987685  0.18359101  1  0  -0.073624  0  3.674882  0  0  -0.096527  0  3.931602  0  0  -0.104086  0  3.950321  0  0  -0.061219  -0.092174  0  3.920449  0
C  C30  1  0.20321827  0.25366000  0.91948633  1  0  -0.019481  0  3.671681  0  0  -0.047337  0  3.923778  0  0  -0.041359  0  3.939562  0  0  -0.048374  -0.051063  0  3.9132  0
C  C31  1  0.79677788  0.74634024  0.08051321  1  0  -0.019444  0  3.671613  0  0  -0.047319  0  3.923654  0  0  -0.04134  0  3.939434  0  0  -0.048352  -0.051046  0  3.913082  0
C  C32  1  0.23708537  0.42461236  0.96892783  1  0  0.004336  0  3.814511  0  0  0.023676  0  4.042724  0  0  0.019076  0  4.068477  0  0  0.000459  0.026413  0  4.025644  0
C  C33  1  0.76291468  0.57539191  0.03107035  1  0  0.004356  0  3.814552  0  0  0.023801  0  4.042636  0  0  0.019201  0  4.068389  0  0  0.000483  0.02654  0  4.025548  0
C  C34  1  0.24142549  0.44719204  0.07460883  1  0  -0.099554  0  3.706935  0  0  -0.123557  0  3.962486  0  0  -0.125093  0  3.983663  0  0  -0.083515  -0.122242  0  3.948359  0
C  C35  1  0.75857426  0.55281089  0.92539083  1  0  -0.099537  0  3.706998  0  0  -0.123589  0  3.962534  0  0  -0.125126  0  3.98371  0  0  -0.083535  -0.122284  0  3.948424  0
C  C36  1  0.27245150  0.61820837  0.11747994  1  0  -0.048426  0  3.697923  0  0  -0.06751  0  3.955946  0  0  -0.071587  0  3.978867  0  0  -0.080372  -0.065147  0  3.941322  0
C  C37  1  0.72754972  0.38179455  0.88251976  1  0  -0.04847  0  3.697888  0  0  -0.067523  0  3.955895  0  0  -0.0716  0  3.978815  0  0  -0.080414  -0.065162  0  3.941286  0
C  C38  1  0.29955209  0.77257387  0.05644293  1  0  -0.030862  0  3.743371  0  0  -0.04759  0  3.999934  0  0  -0.047019  0  4.021233  0  0  -0.07735  -0.047789  0  3.985866  0
C  C39  1  0.70044913  0.22742905  0.94355603  1  0  -0.030895  0  3.743395  0  0  -0.047612  0  3.999933  0  0  -0.04704  0  4.021232  0  0  -0.077362  -0.047815  0  3.985873  0
C  C40  1  0.29917603  0.75649883  0.95320239  1  0  -0.178123  0  3.718203  0  0  -0.197724  0  3.97281  0  0  -0.204321  0  3.994013  0  0  -0.092052  -0.193364  0  3.958429  0
C  C41  1  0.70082457  0.24350138  0.04679654  1  0  -0.178018  0  3.717981  0  0  -0.197632  0  3.972595  0  0  -0.204227  0  3.993798  0  0  -0.092034  -0.193274  0  3.958208  0
C  C42  1  0.26858332  0.58179895  0.90872049  1  0  0.217059  0  3.718563  0  0  0.207178  0  3.956386  0  0  0.214258  0  3.978036  0  0  0.124457  0.202557  0  3.941893  0
C  C43  1  0.73141759  0.41820262  0.09127920  1  0  0.217026  0  3.71844  0  0  0.207115  0  3.956262  0  0  0.214194  0  3.977912  0  0  0.124501  0.202503  0  3.94175  0
S  S44  1  0.39916685  0.08227108  0.30907829  1  0  1.584372  0  5.848805  0  0  1.458674  0  6.408044  0  0  1.514845  0  6.368871  0  0  0.559133  1.420266  0  6.424837  0
S  S45  1  0.60083195  0.91772779  0.69092283  1  0  1.584433  0  5.848771  0  0  1.458758  0  6.407982  0  0  1.514924  0  6.368814  0  0  0.55919  1.420363  0  6.42476  0
N  N46  1  0.26924862  0.55954806  0.80648781  1  0  -0.233658  0  3.438152  0  0  -0.170125  0  3.64895  0  0  -0.185258  0  3.664687  0  0  -0.325879  -0.160538  0  3.63962  0
N  N47  1  0.73075135  0.44044944  0.19351258  1  0  -0.233579  0  3.438076  0  0  -0.170056  0  3.648873  0  0  -0.185187  0  3.664609  0  0  -0.325872  -0.160466  0  3.639532  0
O  O48  1  0.24557314  0.57928050  0.58833100  1  0  -0.966073  0  2.049793  0  0  -0.897289  0  2.320854  0  0  -0.922336  0  2.298119  0  0  -0.460951  -0.869489  0  2.33721  0
O  O49  1  0.75443158  0.42071834  0.41166878  1  0  -0.966068  0  2.04978  0  0  -0.897269  0  2.320863  0  0  -0.922313  0  2.298139  0  0  -0.460933  -0.869473  0  2.337203  0
O  O50  1  0.44268094  0.32073142  0.60463224  1  0  -0.93725  0  1.991466  0  0  -0.875834  0  2.27285  0  0  -0.902244  0  2.25059  0  0  -0.461692  -0.846177  0  2.290768  0
O  O51  1  0.55731872  0.67926473  0.39536813  1  0  -0.937267  0  1.991404  0  0  -0.875831  0  2.272789  0  0  -0.902242  0  2.250535  0  0  -0.461745  -0.846175  0  2.290702  0
O  O52  1  0.05874629  0.25011988  0.58631366  1  0  -0.943249  0  2.05022  0  0  -0.867319  0  2.308207  0  0  -0.895236  0  2.288439  0  0  -0.440752  -0.83837  0  2.323148  0
O  O53  1  0.94125283  0.74988034  0.41368672  1  0  -0.943235  0  2.05022  0  0  -0.867306  0  2.30825  0  0  -0.895205  0  2.288448  0  0  -0.440717  -0.838358  0  2.323191  0
O  O54  1  0.26885759  0.90094954  0.28700963  1  0  -0.787824  0  1.977714  0  0  -0.749013  0  2.249761  0  0  -0.770108  0  2.233419  0  0  -0.401699  -0.726501  0  2.259665  0
O  O55  1  0.73114300  0.09905068  0.71299229  1  0  -0.787817  0  1.977673  0  0  -0.749015  0  2.249715  0  0  -0.770109  0  2.233374  0  0  -0.401714  -0.726502  0  2.259607  0
O  O56  1  0.43474923  0.08751676  0.42271550  1  0  -0.921439  0  2.104611  0  0  -0.877057  0  2.384607  0  0  -0.898214  0  2.365542  0  0  -0.458214  -0.846377  0  2.395066  0
O  O57  1  0.56525284  0.91248344  0.57728496  1  0  -0.921494  0  2.104617  0  0  -0.877112  0  2.384598  0  0  -0.898267  0  2.365532  0  0  -0.458234  -0.846435  0  2.395057  0
O  O58  1  0.30373368  0.23043117  0.27426337  1  0  -0.687252  0  1.945328  0  0  -0.627435  0  2.179331  0  0  -0.648393  0  2.161252  0  0  -0.336433  -0.613801  0  2.19251  0
O  O59  1  0.69626512  0.76956769  0.72573624  1  0  -0.687252  0  1.945338  0  0  -0.627459  0  2.179354  0  0  -0.648409  0  2.16127  0  0  -0.336443  -0.613832  0  2.19254  0
O  O60  1  0.59802212  0.09673583  0.26229462  1  0  -0.730942  0  1.982594  0  0  -0.668439  0  2.222327  0  0  -0.691118  0  2.205952  0  0  -0.342962  -0.652785  0  2.233064  0
O  O61  1  0.40197731  0.90326574  0.73770502  1  0  -0.730962  0  1.982633  0  0  -0.668462  0  2.222354  0  0  -0.69114  0  2.205978  0  0  -0.342968  -0.652811  0  2.233086  0
O  O62  1  0.16107165  0.48385879  0.36998756  1  0  -0.930319  0  1.869269  0  0  -0.892182  0  2.063953  0  0  -0.909819  0  2.03183  0  0  -0.64346  -0.870777  0  2.09022  0
O  O63  1  0.83892778  0.51614278  0.63001208  1  0  -0.930359  0  1.869182  0  0  -0.892231  0  2.063869  0  0  -0.909867  0  2.031751  0  0  -0.64348  -0.870824  0  2.090139  0
O  O64  1  0.13911484  0.91672761  0.58219935  1  0  -0.907842  0  1.86269  0  0  -0.871656  0  2.053409  0  0  -0.889261  0  2.021843  0  0  -0.652939  -0.851207  0  2.078858  0
O  O65  1  0.86088365  0.08326991  0.41780100  1  0  -0.907836  0  1.862696  0  0  -0.87165  0  2.053427  0  0  -0.889255  0  2.021861  0  0  -0.652931  -0.851199  0  2.078875  0
