# generated using pymatgen
data_Zn4H49C53N17O13
_symmetry_space_group_name_H-M   'P 1'
_cell_length_a   17.80224409
_cell_length_b   19.28410055
_cell_length_c   19.25158783
_cell_angle_alpha   94.35975956
_cell_angle_beta   104.41339824
_cell_angle_gamma   98.99944753
_symmetry_Int_Tables_number   1
_chemical_formula_structural   Zn4H49C53N17O13
_chemical_formula_sum   'Zn4 H49 C53 N17 O13'
_cell_volume   6276.44070384
_cell_formula_units_Z   1
loop_
 _symmetry_equiv_pos_site_id
 _symmetry_equiv_pos_as_xyz
  1  'x, y, z'
loop_
 _atom_site_type_symbol
 _atom_site_label
 _atom_site_symmetry_multiplicity
 _atom_site_fract_x
 _atom_site_fract_y
 _atom_site_fract_z
 _atom_site_occupancy
 _atom_site_pbe_bader_charge
 _atom_site_pbe_bader_spin_density
 _atom_site_pbe_cm5_charge
 _atom_site_pbe_ddec_charge
 _atom_site_pbe_ddec_spin_density
 _atom_site_pbe_ddec_sum_bond_order
 _atom_site_pbe_magmom
Zn  Zn0  1  0.42693333  0.54523907  0.54228727  1  1.316227  0  0.671392  0.964859  0  2.363424  0
Zn  Zn1  1  0.56772754  0.45181232  0.56968663  1  1.310751  0  0.673712  0.969186  0  2.38408  0
Zn  Zn2  1  0.56085505  0.56316925  0.45874831  1  1.310479  0  0.669685  0.950334  0  2.39351  0
Zn  Zn3  1  0.43162448  0.42244360  0.42409362  1  1.312113  0  0.674772  0.95275  0  2.389285  0
H  H4  1  0.38579065  0.06576339  0.46551985  1  0.052845  0  0.098906  0.106318  0  1.029716  0
H  H5  1  0.03694861  0.30307854  0.35147424  1  0.043974  0  0.096626  0.091589  0  1.040282  0
H  H6  1  0.19414044  0.51389103  0.51344853  1  0.099643  0  0.104674  0.110726  0  1.029522  0
H  H7  1  0.85102308  0.39793290  0.45370976  1  0.044786  0  0.099008  0.109998  0  1.024809  0
H  H8  1  0.14316609  0.57400538  0.56711424  1  0.02975  0  0.09972  0.102899  0  1.012293  0
H  H9  1  0.92267961  0.29600189  0.33346965  1  0.411189  0  0.296405  0.284166  0  0.972594  0
H  H10  1  0.84606055  0.30625189  0.36707437  1  0.41694  0  0.305141  0.296712  0  0.943922  0
H  H11  1  0.01980660  0.68429638  0.69319038  1  0.430518  0  0.306107  0.243881  0  0.97236  0
H  H12  1  0.97179068  0.76415255  0.75542921  1  0.050776  0  0.107286  0.111939  0  0.979633  0
H  H13  1  0.89203506  0.69185105  0.74517143  1  0.036118  0  0.094845  0.093356  0  0.990291  0
H  H14  1  0.88526911  0.75642368  0.68341873  1  0.040442  0  0.103017  0.109313  0  0.977589  0
H  H15  1  0.40764182  0.75389714  0.56537219  1  0.068628  0  0.099768  0.123874  0  1.01438  0
H  H16  1  0.31072188  0.14961748  0.43867426  1  0.411053  0  0.299874  0.239455  0  0.94876  0
H  H17  1  0.31038185  0.22466532  0.54640297  1  0.017406  0  0.08259  0.075503  0  1.001496  0
H  H18  1  0.27324310  0.26330858  0.46526345  1  0.063311  0  0.094902  0.106463  0  1.011335  0
H  H19  1  0.37046585  0.29344065  0.51822874  1  0.061327  0  0.099688  0.109673  0  1.018872  0
H  H20  1  0.34816036  0.85959395  0.59086200  1  0.429171  0  0.30546  0.301361  0  0.939581  0
H  H21  1  0.38782479  0.94086429  0.57140282  1  0.462495  0  0.294227  0.27982  0  1.000862  0
H  H22  1  0.60840769  0.89047564  0.40419228  1  0.44214  0  0.301278  0.290638  0  0.965369  0
H  H23  1  0.57465145  0.96523678  0.43359196  1  0.493212  0  0.289418  0.264245  0  1.062192  0
H  H24  1  0.65410764  0.06949142  0.52176062  1  0.462099  0  0.307353  0.240909  0  0.98845  0
H  H25  1  0.77542851  0.14190316  0.54021747  1  0.059162  0  0.109432  0.114291  0  0.977345  0
H  H26  1  0.62322744  0.25448356  0.52859892  1  0.075209  0  0.102755  0.113898  0  1.019863  0
H  H27  1  0.74006769  0.20950865  0.58397453  1  0.042959  0  0.099847  0.102837  0  0.977888  0
H  H28  1  0.72511980  0.20171552  0.48841720  1  0.035282  0  0.09255  0.089387  0  0.993853  0
H  H29  1  0.54999078  0.79097831  0.35342070  1  0.416601  0  0.295827  0.281131  0  0.959489  0
H  H30  1  0.55449280  0.71844841  0.39788480  1  0.477531  0  0.290313  0.30133  0  0.999211  0
H  H31  1  0.36446446  0.52374374  0.69349274  1  0.478304  0  0.294612  0.306656  0  0.989491  0
H  H32  1  0.31625449  0.49922899  0.75746365  1  0.418902  0  0.300282  0.286336  0  0.960688  0
H  H33  1  0.38456827  0.50918404  0.94172199  1  0.498777  0  0.288787  0.265109  0  1.063819  0
H  H34  1  0.34270768  0.54578175  0.86306895  1  0.435282  0  0.302815  0.290873  0  0.957031  0
H  H35  1  0.35051284  0.43542943  0.25135402  1  0.485523  0  0.291057  0.297938  0  1.027535  0
H  H36  1  0.29885207  0.41977120  0.16041102  1  0.406353  0  0.305279  0.299015  0  0.943829  0
H  H37  1  0.79835977  0.45494027  0.50319077  1  0.040709  0  0.096157  0.102175  0  1.036582  0
H  H38  1  0.65458037  0.58015870  0.14543368  1  0.389263  0  0.293205  0.227179  0  0.972946  0
H  H39  1  0.72271981  0.51434129  0.08394019  1  0.036093  0  0.095952  0.105384  0  0.984909  0
H  H40  1  0.69258484  0.45609080  0.14423052  1  0.002608  0  0.07487  0.066976  0  1.014741  0
H  H41  1  0.63694252  0.44751329  0.05164655  1  0.102345  0  0.094656  0.097104  0  1.049045  0
H  H42  1  0.67707878  0.54122379  0.24079742  1  0.431984  0  0.302691  0.289439  0  0.970999  0
H  H43  1  0.63084490  0.54376440  0.31072312  1  0.479324  0  0.296458  0.313948  0  0.993727  0
H  H44  1  0.14007402  0.28018627  0.32479691  1  0.380503  0  0.301714  0.235368  0  0.94699  0
H  H45  1  0.17025858  0.36156328  0.24264955  1  0.032177  0  0.084243  0.077098  0  1.002364  0
H  H46  1  0.25028965  0.31550091  0.27348173  1  0.054722  0  0.103072  0.112385  0  0.975932  0
H  H47  1  0.25544769  0.40298302  0.31220834  1  0.069272  0  0.104987  0.1203  0  1.024601  0
H  H48  1  0.35638910  0.44538137  0.06758320  1  0.04563  0  0.09757  0.114661  0  1.0146  0
H  H49  1  0.61839797  0.47512966  0.78626203  1  0.090412  0  0.102038  0.114297  0  1.00325  0
H  H50  1  0.62425786  0.46119944  0.91607361  1  0.105188  0  0.102846  0.110167  0  1.006452  0
H  H51  1  0.80535082  0.65028995  0.62785803  1  0.063356  0  0.102081  0.114057  0  1.02186  0
H  H52  1  0.07743211  0.64832051  0.62878371  1  0.020256  0  0.095324  0.086985  0  1.028976  0
C  C53  1  0.49767088  0.30836996  0.49347700  1  1.566403  0  0.227161  0.619865  0  4.162827  0
C  C54  1  0.08018569  0.55763123  0.56072809  1  -0.028085  0  -0.100752  -0.135264  0  4.048796  0
C  C55  1  0.04265000  0.59966387  0.59637149  1  -0.054898  0  -0.107675  -0.148378  0  4.079024  0
C  C56  1  0.48039909  0.67988458  0.49151914  1  1.497228  0  0.225015  0.617415  0  4.12685  0
C  C57  1  0.96010738  0.58283318  0.58868524  1  -0.026997  0  -0.018309  -0.021757  0  3.983216  0
C  C58  1  0.91609038  0.51973474  0.54382885  1  0.055833  0  -0.007281  0.050375  0  3.972091  0
C  C59  1  0.91981504  0.62847504  0.62323243  1  0.420998  0  0.096728  0.19493  0  4.065201  0
C  C60  1  0.83767860  0.61430643  0.60636654  1  0.006316  0  -0.113615  -0.242903  0  3.98588  0
C  C61  1  0.83371658  0.50359586  0.53457280  1  -0.019973  0  -0.109451  -0.19717  0  4.002055  0
C  C62  1  0.47848517  0.75625431  0.48967488  1  0.002645  0  -0.031725  -0.125516  0  4.017214  0
C  C63  1  0.51871118  0.79770049  0.44792908  1  0.390067  0  0.076379  0.157558  0  4.041826  0
C  C64  1  0.14998324  0.36862163  0.38912618  1  0.379138  0  0.098745  0.21822  0  4.039841  0
C  C65  1  0.52157690  0.87205189  0.45548332  1  0.460706  0  0.097012  0.157009  0  4.041264  0
C  C66  1  0.47739998  0.90305904  0.49771158  1  0.45407  0  0.076079  -0.017851  0  4.002858  0
C  C67  1  0.43345635  0.85904699  0.53646235  1  0.410355  0  0.087551  0.236863  0  4.135113  0
C  C68  1  0.50102600  0.50321452  0.68542932  1  1.525259  0  0.224513  0.618127  0  4.138365  0
C  C69  1  0.43668490  0.78749532  0.53326418  1  0.028156  0  -0.128112  -0.260234  0  4.034758  0
C  C70  1  0.43725883  0.10819274  0.47790609  1  0.023768  0  -0.11106  -0.272953  0  4.009225  0
C  C71  1  0.42753961  0.17879954  0.47648601  1  0.375651  0  0.082431  0.195317  0  4.079445  0
C  C72  1  0.51159153  0.08858769  0.49192066  1  0.392122  0  0.076523  0.094999  0  4.099125  0
C  C73  1  0.49726557  0.23112164  0.49482517  1  -0.066534  0  -0.023097  -0.101671  0  3.954612  0
C  C74  1  0.57186161  0.21216012  0.51274344  1  0.026224  0  -0.10814  -0.214076  0  3.993347  0
C  C75  1  0.15696327  0.46850900  0.47749898  1  -0.075091  0  -0.077438  -0.110303  0  3.953514  0
C  C76  1  0.58140979  0.14136686  0.50957211  1  0.441354  0  0.094461  0.159816  0  4.093291  0
C  C77  1  0.48848291  0.49206375  0.23462586  1  0.038537  0  -0.050159  -0.288982  0  3.888394  0
C  C78  1  0.55681343  0.51592568  0.20975455  1  0.432088  0  0.104026  0.238592  0  4.061504  0
C  C79  1  0.55375575  0.51041616  0.13484386  1  0.431715  0  0.062639  0.008613  0  3.974264  0
C  C80  1  0.49402991  0.49088499  0.31168422  1  1.474152  0  0.216267  0.621754  0  4.117961  0
C  C81  1  0.47978604  0.48437574  0.08456941  1  0.36413  0  0.087862  0.13936  0  4.115442  0
C  C82  1  0.41228755  0.46371166  0.10834573  1  0.045856  0  -0.131868  -0.336462  0  4.027477  0
C  C83  1  0.41465981  0.46601708  0.18135309  1  0.3562  0  0.097689  0.324241  0  4.113462  0
C  C84  1  0.43940283  0.50129506  0.86257154  1  0.428546  0  0.103198  0.152846  0  3.992006  0
C  C85  1  0.43548811  0.50771055  0.78814051  1  0.388888  0  0.0979  0.197004  0  4.027324  0
C  C86  1  0.07641564  0.45177471  0.47421685  1  0.041392  0  -0.012485  0.024682  0  3.992414  0
C  C87  1  0.50809575  0.48369037  0.90807369  1  0.416428  0  0.080843  0.073716  0  4.046297  0
C  C88  1  0.50111343  0.49882699  0.76177456  1  0.028113  0  -0.03499  -0.155316  0  3.977242  0
C  C89  1  0.56928353  0.48201653  0.80864373  1  -0.039592  0  -0.10877  -0.114747  0  4.079087  0
C  C90  1  0.57237129  0.47408406  0.87942358  1  -0.039136  0  -0.104604  -0.1728  0  4.072137  0
C  C91  1  0.70786216  0.53605127  0.54579656  1  1.582431  0  0.228633  0.620262  0  4.136284  0
C  C92  1  0.28263015  0.45116143  0.45470592  1  1.549601  0  0.222289  0.606305  0  4.168569  0
C  C93  1  0.19517911  0.42947001  0.43781099  1  0.032479  0  -0.027207  -0.138332  0  3.934277  0
C  C94  1  0.79565490  0.55151140  0.56298632  1  -0.112113  0  -0.023515  -0.007487  0  4.063998  0
C  C95  1  0.07042325  0.35027107  0.38748874  1  -0.063566  0  -0.113976  -0.259284  0  4.006011  0
C  C96  1  0.92583819  0.72628869  0.71584949  1  0.293781  0  -0.134495  -0.211459  0  4.009292  0
C  C97  1  0.03230461  0.38959712  0.42794495  1  -0.024058  0  -0.009446  0.015534  0  4.000832  0
C  C98  1  0.32498625  0.24607027  0.49870055  1  0.270616  0  -0.146588  -0.208679  0  3.981965  0
C  C99  1  0.72674028  0.17128114  0.53499363  1  0.320585  0  -0.131855  -0.202834  0  4.019555  0
C  C100  1  0.67137950  0.48557098  0.09819173  1  0.233883  0  -0.153299  -0.227638  0  4.028301  0
C  C101  1  0.21562100  0.35278629  0.29042164  1  0.249514  0  -0.145048  -0.218267  0  3.979502  0
C  C102  1  0.03853151  0.49495796  0.51493130  1  -0.044392  0  -0.015053  0.016776  0  3.993719  0
C  C103  1  0.95643728  0.47516307  0.50718037  1  0.070997  0  -0.007952  0.047318  0  3.991713  0
C  C104  1  0.91426387  0.41302637  0.46055402  1  -0.007702  0  -0.11241  -0.265625  0  3.989779  0
C  C105  1  0.94907263  0.37089643  0.42169982  1  0.349974  0  0.087492  0.244666  0  4.112531  0
N  N106  1  0.47148823  0.97355540  0.50560471  1  -0.553934  0  -0.166849  -0.1172  0  3.358882  0
N  N107  1  0.65416656  0.12214486  0.52601283  1  -1.249242  0  -0.449277  -0.286376  0  3.654245  0
N  N108  1  0.56098801  0.77220189  0.40234956  1  -1.217822  0  -0.615483  -0.626029  0  3.314674  0
N  N109  1  0.36633734  0.52386210  0.74687908  1  -1.224368  0  -0.602077  -0.612636  0  3.328673  0
N  N110  1  0.37520999  0.51100213  0.88698556  1  -1.249434  0  -0.587068  -0.580488  0  3.378827  0
N  N111  1  0.34527259  0.44667801  0.19987348  1  -1.209212  0  -0.605796  -0.626254  0  3.344837  0
N  N112  1  0.62206397  0.53587927  0.11305038  1  -1.109685  0  -0.466362  -0.309706  0  3.563105  0
N  N113  1  0.62805268  0.54517426  0.25736501  1  -1.24048  0  -0.60152  -0.615541  0  3.363816  0
N  N114  1  0.18057631  0.32490825  0.34609128  1  -1.09215  0  -0.449984  -0.294568  0  3.505375  0
N  N115  1  0.52301718  0.01880192  0.48844708  1  -0.628909  0  -0.173847  -0.16006  0  3.379198  0
N  N116  1  0.46431206  0.48328644  0.00963370  1  -0.575732  0  -0.16242  -0.139241  0  3.350293  0
N  N117  1  0.52143470  0.47747744  0.98150275  1  -0.496553  0  -0.145651  -0.093378  0  3.318176  0
N  N118  1  0.90540369  0.30954829  0.37825395  1  -1.188902  0  -0.603488  -0.618511  0  3.309462  0
N  N119  1  0.96261622  0.68667181  0.67082002  1  -1.201649  0  -0.453106  -0.301159  0  3.598466  0
N  N120  1  0.35163922  0.19479331  0.45477207  1  -1.143477  0  -0.462044  -0.315487  0  3.515871  0
N  N121  1  0.39444540  0.89061167  0.58035500  1  -1.237864  0  -0.601964  -0.616772  0  3.344093  0
N  N122  1  0.56495566  0.91208251  0.41807881  1  -1.264153  0  -0.5945  -0.583108  0  3.386081  0
O  O123  1  0.49573689  0.49599400  0.49987527  1  -1.228596  0  -0.579213  -1.029081  0  2.577655  0
O  O124  1  0.67598218  0.47637936  0.55942682  1  -1.169861  0  -0.318862  -0.551194  0  2.29753  0
O  O125  1  0.32072006  0.41097270  0.42688950  1  -1.176434  0  -0.308619  -0.539703  0  2.410989  0
O  O126  1  0.67122226  0.58343694  0.51763358  1  -1.170152  0  -0.319779  -0.548839  0  2.286118  0
O  O127  1  0.31398246  0.50798303  0.49789968  1  -1.181117  0  -0.323424  -0.55836  0  2.339335  0
O  O128  1  0.44294265  0.52501942  0.64357654  1  -1.186253  0  -0.317436  -0.558157  0  2.345153  0
O  O129  1  0.43578696  0.45564556  0.33062642  1  -1.192705  0  -0.322724  -0.563545  0  2.370194  0
O  O130  1  0.54068804  0.34852563  0.54979329  1  -1.171501  0  -0.318507  -0.553183  0  2.328507  0
O  O131  1  0.51821245  0.65075730  0.45164410  1  -1.180463  0  -0.318751  -0.555565  0  2.368079  0
O  O132  1  0.45775042  0.32852020  0.43619464  1  -1.166084  0  -0.315602  -0.541086  0  2.324632  0
O  O133  1  0.44513522  0.64688062  0.53299600  1  -1.173395  0  -0.317713  -0.547384  0  2.330049  0
O  O134  1  0.55924684  0.48492214  0.66543128  1  -1.176968  0  -0.321927  -0.553467  0  2.341859  0
O  O135  1  0.55683583  0.52420979  0.35940461  1  -1.188084  0  -0.324339  -0.566387  0  2.346539  0
