# generated using pymatgen
data_H6PbC6(N2O)4
_symmetry_space_group_name_H-M   'P 1'
_cell_length_a   8.38413249
_cell_length_b   9.28257393
_cell_length_c   9.28238851
_cell_angle_alpha   68.17568787
_cell_angle_beta   66.15398010
_cell_angle_gamma   66.15396423
_symmetry_Int_Tables_number   1
_chemical_formula_structural   H6PbC6(N2O)4
_chemical_formula_sum   'H12 Pb2 C12 N16 O8'
_cell_volume   585.30336261
_cell_formula_units_Z   2
loop_
 _symmetry_equiv_pos_site_id
 _symmetry_equiv_pos_as_xyz
  1  'x, y, z'
loop_
 _atom_site_type_symbol
 _atom_site_label
 _atom_site_symmetry_multiplicity
 _atom_site_fract_x
 _atom_site_fract_y
 _atom_site_fract_z
 _atom_site_occupancy
 _atom_site_hle17_bader_spin_density
 _atom_site_hle17_ddec_charge
 _atom_site_hle17_ddec_spin_density
 _atom_site_hle17_ddec_sum_bond_order
 _atom_site_hle17_magmom
 _atom_site_hse06_10hf_bader_spin_density
 _atom_site_hse06_10hf_ddec_charge
 _atom_site_hse06_10hf_ddec_spin_density
 _atom_site_hse06_10hf_ddec_sum_bond_order
 _atom_site_hse06_10hf_magmom
 _atom_site_hse06_bader_spin_density
 _atom_site_hse06_ddec_charge
 _atom_site_hse06_ddec_spin_density
 _atom_site_hse06_ddec_sum_bond_order
 _atom_site_hse06_magmom
 _atom_site_pbe_bader_spin_density
 _atom_site_pbe_cm5_charge
 _atom_site_pbe_ddec_charge
 _atom_site_pbe_ddec_spin_density
 _atom_site_pbe_ddec_sum_bond_order
 _atom_site_pbe_magmom
H  H0  1  0.79667965  0.89034845  0.50455988  1  0  0.134822  0  0.927377  0  0  0.136915  0  1.000273  0  0  0.140606  0  0.995224  0  0  0.152156  0.134149  0  1.00399  0
H  H1  1  0.70338802  0.49545086  0.10963055  1  0  0.134486  0  0.9278  0  0  0.13666  0  1.000647  0  0  0.140354  0  0.995586  0  0  0.152043  0.133866  0  1.004394  0
H  H2  1  0.20332075  0.10956976  0.49549242  1  0  0.134193  0  0.927635  0  0  0.136551  0  1.000371  0  0  0.140248  0  0.995304  0  0  0.152007  0.133745  0  1.004132  0
H  H3  1  0.29673590  0.50455393  0.89026932  1  0  0.134515  0  0.927708  0  0  0.136768  0  1.000419  0  0  0.140505  0  0.995308  0  0  0.152164  0.133939  0  1.004205  0
H  H4  1  0.81087923  0.08051188  0.68290425  1  0  0.126514  0  0.927852  0  0  0.131742  0  1.003309  0  0  0.134196  0  1.001023  0  0  0.126094  0.130003  0  1.004951  0
H  H5  1  0.68914925  0.31706381  0.91949459  1  0  0.126578  0  0.927923  0  0  0.131736  0  1.003397  0  0  0.134193  0  1.001105  0  0  0.126103  0.129996  0  1.00504  0
H  H6  1  0.18908666  0.91948903  0.31713848  1  0  0.126637  0  0.927882  0  0  0.131882  0  1.003244  0  0  0.134338  0  1.00095  0  0  0.126181  0.130141  0  1.004891  0
H  H7  1  0.31090648  0.68290683  0.08050845  1  0  0.126407  0  0.928235  0  0  0.131703  0  1.003653  0  0  0.13416  0  1.001358  0  0  0.126105  0.129962  0  1.005298  0
H  H8  1  0.64097777  0.06821389  0.87715364  1  0  0.122066  0  0.93949  0  0  0.126314  0  1.015219  0  0  0.129417  0  1.0121  0  0  0.125495  0.124147  0  1.017393  0
H  H9  1  0.85904858  0.12285136  0.93183462  1  0  0.122076  0  0.939699  0  0  0.12621  0  1.015515  0  0  0.129323  0  1.01238  0  0  0.125423  0.12404  0  1.017695  0
H  H10  1  0.35893592  0.93184532  0.12284761  1  0  0.122109  0  0.939596  0  0  0.126348  0  1.015326  0  0  0.129453  0  1.0122  0  0  0.125481  0.12418  0  1.017503  0
H  H11  1  0.14100555  0.87710467  0.06817981  1  0  0.122019  0  0.939527  0  0  0.126229  0  1.01537  0  0  0.129337  0  1.01224  0  0  0.125456  0.124061  0  1.017547  0
Pb  Pb12  1  0.24996285  0.47291173  0.52685204  1  0  1.299  0  1.429924  0  0  1.108552  0  1.828421  0  0  1.17131  0  1.786821  0  0  0.636282  1.063254  0  1.857439  0
Pb  Pb13  1  0.74975926  0.52707893  0.47310526  1  0  1.299065  0  1.429741  0  0  1.108614  0  1.828235  0  0  1.171369  0  1.786634  0  0  0.636306  1.063314  0  1.857252  0
C  C14  1  0.73387799  0.83790278  0.63097524  1  0  0.18336  0  3.599307  0  0  0.102382  0  3.872416  0  0  0.116383  0  3.881192  0  0  0.18607  0.093423  0  3.866304  0
C  C15  1  0.76613769  0.36905819  0.16211765  1  0  0.183886  0  3.59977  0  0  0.102783  0  3.872948  0  0  0.116802  0  3.881707  0  0  0.186264  0.093848  0  3.866851  0
C  C16  1  0.26608117  0.16206404  0.36908259  1  0  0.184619  0  3.59938  0  0  0.103261  0  3.872627  0  0  0.117284  0  3.881392  0  0  0.186576  0.09433  0  3.866539  0
C  C17  1  0.23392925  0.63094895  0.83783974  1  0  0.183807  0  3.599895  0  0  0.102657  0  3.873103  0  0  0.116634  0  3.881839  0  0  0.186271  0.093757  0  3.867027  0
C  C18  1  0.67460256  0.06524576  0.75106151  1  0  -0.181068  0  3.617741  0  0  -0.25359  0  3.862739  0  0  -0.254723  0  3.868303  0  0  -0.046887  -0.252646  0  3.859049  0
C  C19  1  0.82542138  0.24893866  0.93476688  1  0  -0.181009  0  3.617676  0  0  -0.253321  0  3.862642  0  0  -0.254441  0  3.868184  0  0  -0.046872  -0.252379  0  3.858963  0
C  C20  1  0.32534993  0.93477579  0.24894502  1  0  -0.181256  0  3.618188  0  0  -0.25376  0  3.863025  0  0  -0.254878  0  3.86857  0  0  -0.046876  -0.252817  0  3.859343  0
C  C21  1  0.17462543  0.75101979  0.06524284  1  0  -0.180815  0  3.617431  0  0  -0.253549  0  3.862747  0  0  -0.254655  0  3.868282  0  0  -0.04695  -0.252609  0  3.859061  0
C  C22  1  0.53272480  0.20563550  0.67581409  1  0  0.682047  0  3.891025  0  0  0.631186  0  4.195043  0  0  0.665021  0  4.189738  0  0  0.208494  0.608223  0  4.197547  0
C  C23  1  0.96732315  0.32415290  0.79437259  1  0  0.681902  0  3.89022  0  0  0.63093  0  4.194383  0  0  0.664766  0  4.189072  0  0  0.208523  0.607969  0  4.196883  0
C  C24  1  0.46731137  0.79441660  0.32410869  1  0  0.682297  0  3.890383  0  0  0.631521  0  4.194261  0  0  0.665355  0  4.188944  0  0  0.208733  0.608559  0  4.19677  0
C  C25  1  0.03270626  0.67580308  0.20563683  1  0  0.682027  0  3.889959  0  0  0.631183  0  4.194027  0  0  0.665016  0  4.188718  0  0  0.208495  0.608223  0  4.196527  0
N  N26  1  0.69939254  0.69587018  0.69223114  1  0  -0.303086  0  3.04662  0  0  -0.251896  0  3.33915  0  0  -0.269597  0  3.355544  0  0  -0.199342  -0.239822  0  3.32762  0
N  N27  1  0.80058299  0.30783447  0.30418891  1  0  -0.303057  0  3.046145  0  0  -0.251861  0  3.338646  0  0  -0.26955  0  3.355029  0  0  -0.199325  -0.239789  0  3.32711  0
N  N28  1  0.30054280  0.30410512  0.30785804  1  0  -0.303413  0  3.046739  0  0  -0.252132  0  3.339375  0  0  -0.269842  0  3.355758  0  0  -0.199489  -0.240048  0  3.327835  0
N  N29  1  0.19944874  0.69219574  0.69578240  1  0  -0.303096  0  3.045957  0  0  -0.251977  0  3.338594  0  0  -0.269656  0  3.354989  0  0  -0.199478  -0.239914  0  3.327052  0
N  N30  1  0.61899364  0.68068972  0.85508228  1  0  -0.065268  0  2.954631  0  0  -0.06452  0  3.268319  0  0  -0.062824  0  3.279467  0  0  -0.076211  -0.065263  0  3.260417  0
N  N31  1  0.88096151  0.14499413  0.31938322  1  0  -0.064943  0  2.954701  0  0  -0.064155  0  3.268333  0  0  -0.062458  0  3.279469  0  0  -0.075995  -0.0649  0  3.260436  0
N  N32  1  0.38093387  0.31933182  0.14500228  1  0  -0.065046  0  2.954396  0  0  -0.064302  0  3.268039  0  0  -0.062601  0  3.279185  0  0  -0.076122  -0.065045  0  3.26013  0
N  N33  1  0.11904041  0.85502752  0.68063441  1  0  -0.065067  0  2.954672  0  0  -0.06431  0  3.268424  0  0  -0.062625  0  3.279572  0  0  -0.076068  -0.065048  0  3.26052  0
N  N34  1  0.60428421  0.80773297  0.89365737  1  0  -0.098594  0  2.84061  0  0  -0.108175  0  3.114069  0  0  -0.1078  0  3.124075  0  0  -0.067819  -0.10812  0  3.107422  0
N  N35  1  0.89568964  0.10640291  0.19232853  1  0  -0.098794  0  2.840627  0  0  -0.108407  0  3.114147  0  0  -0.108015  0  3.124152  0  0  -0.068027  -0.108345  0  3.107487  0
N  N36  1  0.39565545  0.19230684  0.10639120  1  0  -0.098603  0  2.840443  0  0  -0.108197  0  3.113924  0  0  -0.107806  0  3.123932  0  0  -0.067828  -0.108143  0  3.107276  0
N  N37  1  0.10432913  0.89359201  0.80770046  1  0  -0.099004  0  2.840812  0  0  -0.108573  0  3.114251  0  0  -0.108185  0  3.124265  0  0  -0.068127  -0.108514  0  3.107597  0
N  N38  1  0.67739289  0.90719236  0.75399262  1  0  0.062928  0  3.558931  0  0  0.179911  0  3.745755  0  0  0.169778  0  3.767174  0  0  -0.115661  0.185403  0  3.733088  0
N  N39  1  0.82260675  0.24604095  0.09284170  1  0  0.062404  0  3.559395  0  0  0.179442  0  3.746157  0  0  0.169219  0  3.767738  0  0  -0.115726  0.18494  0  3.733482  0
N  N40  1  0.32256152  0.09281947  0.24603838  1  0  0.062576  0  3.56007  0  0  0.179574  0  3.746945  0  0  0.169375  0  3.768476  0  0  -0.115838  0.185073  0  3.734268  0
N  N41  1  0.17745139  0.75394185  0.90715378  1  0  0.062548  0  3.559511  0  0  0.179667  0  3.746299  0  0  0.169452  0  3.767877  0  0  -0.115797  0.185166  0  3.733612  0
O  O42  1  0.51647981  0.34703871  0.68017755  1  0  -0.702528  0  1.980029  0  0  -0.627973  0  2.219856  0  0  -0.66127  0  2.214286  0  0  -0.309674  -0.604402  0  2.222891  0
O  O43  1  0.98360285  0.31975308  0.65293735  1  0  -0.702492  0  1.97838  0  0  -0.627874  0  2.218181  0  0  -0.661177  0  2.212613  0  0  -0.309852  -0.604301  0  2.221214  0
O  O44  1  0.48355252  0.65298178  0.31982300  1  0  -0.702428  0  1.979294  0  0  -0.627877  0  2.219025  0  0  -0.661181  0  2.213459  0  0  -0.309708  -0.604305  0  2.222059  0
O  O45  1  0.01641601  0.68021870  0.34706788  1  0  -0.702664  0  1.978741  0  0  -0.628037  0  2.218513  0  0  -0.661342  0  2.212937  0  0  -0.309807  -0.604466  0  2.221561  0
O  O46  1  0.05690130  0.38490664  0.82448223  1  0  -0.610553  0  1.924252  0  0  -0.556452  0  2.151242  0  0  -0.584702  0  2.145746  0  0  -0.300764  -0.536607  0  2.154225  0
O  O47  1  0.44311456  0.17552345  0.61508082  1  0  -0.610722  0  1.924272  0  0  -0.556565  0  2.151146  0  0  -0.584838  0  2.145651  0  0  -0.300787  -0.536709  0  2.154134  0
O  O48  1  0.94312263  0.61505785  0.17552386  1  0  -0.610574  0  1.92407  0  0  -0.556477  0  2.150958  0  0  -0.584729  0  2.145459  0  0  -0.300693  -0.536628  0  2.153945  0
O  O49  1  0.55701180  0.82457502  0.38471334  1  0  -0.610811  0  1.924065  0  0  -0.556741  0  2.150895  0  0  -0.584998  0  2.145388  0  0  -0.301001  -0.536892  0  2.153889  0
