# generated using pymatgen
data_Ag3H14C14N5O11
_symmetry_space_group_name_H-M   'P 1'
_cell_length_a   8.35755653
_cell_length_b   11.43801587
_cell_length_c   11.92504825
_cell_angle_alpha   94.36403689
_cell_angle_beta   110.52235474
_cell_angle_gamma   111.42019862
_symmetry_Int_Tables_number   1
_chemical_formula_structural   Ag3H14C14N5O11
_chemical_formula_sum   'Ag6 H28 C28 N10 O22'
_cell_volume   966.24713682
_cell_formula_units_Z   2
loop_
 _symmetry_equiv_pos_site_id
 _symmetry_equiv_pos_as_xyz
  1  'x, y, z'
loop_
 _atom_site_type_symbol
 _atom_site_label
 _atom_site_symmetry_multiplicity
 _atom_site_fract_x
 _atom_site_fract_y
 _atom_site_fract_z
 _atom_site_occupancy
 _atom_site_hle17_bader_spin_density
 _atom_site_hle17_ddec_charge
 _atom_site_hle17_ddec_spin_density
 _atom_site_hle17_ddec_sum_bond_order
 _atom_site_hle17_magmom
 _atom_site_hse06_10hf_bader_spin_density
 _atom_site_hse06_10hf_ddec_charge
 _atom_site_hse06_10hf_ddec_spin_density
 _atom_site_hse06_10hf_ddec_sum_bond_order
 _atom_site_hse06_10hf_magmom
 _atom_site_hse06_bader_spin_density
 _atom_site_hse06_ddec_charge
 _atom_site_hse06_ddec_spin_density
 _atom_site_hse06_ddec_sum_bond_order
 _atom_site_hse06_magmom
 _atom_site_pbe_bader_spin_density
 _atom_site_pbe_cm5_charge
 _atom_site_pbe_ddec_charge
 _atom_site_pbe_ddec_spin_density
 _atom_site_pbe_ddec_sum_bond_order
 _atom_site_pbe_magmom
Ag  Ag0  1  0.02105709  0.03332004  0.11933365  1  0  0.57253  0  1.445008  0  0  0.452422  0  1.920812  0  0  0.488822  0  1.856749  0  0  0.402845  0.427055  0  1.965132  0
Ag  Ag1  1  0.36819239  0.46646428  0.38066387  1  0  0.572854  0  1.443145  0  0  0.452527  0  1.918835  0  0  0.488977  0  1.854713  0  0  0.402741  0.427115  0  1.963196  0
Ag  Ag2  1  0.97894223  0.96667842  0.88066598  1  0  0.572545  0  1.445007  0  0  0.452415  0  1.920832  0  0  0.488819  0  1.856767  0  0  0.402838  0.427048  0  1.965154  0
Ag  Ag3  1  0.63180858  0.53353708  0.61933755  1  0  0.572862  0  1.443125  0  0  0.452546  0  1.918796  0  0  0.488997  0  1.854677  0  0  0.40275  0.427137  0  1.963156  0
Ag  Ag4  1  0.87066860  0.25016038  0.25003183  1  0  0.68305  0  1.118516  0  0  0.558851  0  1.525248  0  0  0.595848  0  1.47119  0  0  0.427615  0.531779  0  1.563486  0
Ag  Ag5  1  0.12933228  0.74983904  0.74996770  1  0  0.683041  0  1.118537  0  0  0.558845  0  1.525257  0  0  0.595845  0  1.471194  0  0  0.427614  0.531773  0  1.563496  0
H  H6  1  0.42120057  0.04465543  0.87607509  1  0  0.133892  0  0.933734  0  0  0.144702  0  0.996008  0  0  0.147675  0  0.994061  0  0  0.123816  0.142459  0  0.9976  0
H  H7  1  0.00019086  0.45531738  0.62385469  1  0  0.133765  0  0.935269  0  0  0.144069  0  0.997824  0  0  0.147046  0  0.995979  0  0  0.123825  0.141848  0  0.999324  0
H  H8  1  0.57880270  0.95534495  0.12392518  1  0  0.133932  0  0.933653  0  0  0.144736  0  0.995934  0  0  0.147711  0  0.993983  0  0  0.123819  0.142492  0  0.997527  0
H  H9  1  0.99980833  0.54468107  0.37614608  1  0  0.133793  0  0.935254  0  0  0.144094  0  0.997814  0  0  0.147069  0  0.995969  0  0  0.123821  0.141871  0  0.999316  0
H  H10  1  0.59270729  0.20778623  0.94018389  1  0  0.127849  0  0.920756  0  0  0.139805  0  0.981498  0  0  0.142277  0  0.97956  0  0  0.123175  0.137953  0  0.982991  0
H  H11  1  0.94478282  0.29225368  0.55964324  1  0  0.128297  0  0.920876  0  0  0.139996  0  0.981661  0  0  0.142522  0  0.979708  0  0  0.12324  0.138101  0  0.983203  0
H  H12  1  0.40729346  0.79221319  0.05981679  1  0  0.127849  0  0.920753  0  0  0.139804  0  0.981497  0  0  0.142275  0  0.979559  0  0  0.123173  0.137951  0  0.98299  0
H  H13  1  0.05521638  0.70774477  0.44035754  1  0  0.128329  0  0.920838  0  0  0.140024  0  0.981629  0  0  0.14255  0  0.979675  0  0  0.123238  0.138129  0  0.983171  0
H  H14  1  0.25033218  0.97601919  0.64525835  1  0  0.126142  0  0.977175  0  0  0.123782  0  1.057915  0  0  0.129015  0  1.050638  0  0  0.143433  0.119911  0  1.063149  0
H  H15  1  0.12887797  0.52396040  0.85485275  1  0  0.125721  0  0.979069  0  0  0.124218  0  1.05866  0  0  0.129502  0  1.051361  0  0  0.143606  0.120255  0  1.063952  0
H  H16  1  0.74966639  0.02398120  0.35474234  1  0  0.126078  0  0.977237  0  0  0.123742  0  1.057958  0  0  0.128975  0  1.050681  0  0  0.143408  0.11987  0  1.063193  0
H  H17  1  0.87112253  0.47603999  0.14514731  1  0  0.125762  0  0.979048  0  0  0.124245  0  1.058642  0  0  0.12953  0  1.051341  0  0  0.14361  0.120283  0  1.063934  0
H  H18  1  0.76947048  0.30911626  0.79335475  1  0  0.141153  0  0.969451  0  0  0.144742  0  1.03587  0  0  0.148595  0  1.033223  0  0  0.129025  0.141855  0  1.038042  0
H  H19  1  0.16682761  0.19088753  0.70658717  1  0  0.140574  0  0.969147  0  0  0.14457  0  1.035082  0  0  0.14841  0  1.032469  0  0  0.128949  0.141699  0  1.037204  0
H  H20  1  0.23052968  0.69088219  0.20664572  1  0  0.141145  0  0.969464  0  0  0.144727  0  1.035903  0  0  0.14858  0  1.033255  0  0  0.129015  0.141841  0  1.03807  0
H  H21  1  0.83317435  0.80911092  0.29341382  1  0  0.140555  0  0.969181  0  0  0.144585  0  1.035081  0  0  0.148424  0  1.032467  0  0  0.128954  0.141712  0  1.037208  0
H  H22  1  0.60665001  0.26814363  0.53291588  1  0  0.132143  0  0.970423  0  0  0.133596  0  1.045173  0  0  0.138198  0  1.040387  0  0  0.126042  0.1302  0  1.048764  0
H  H23  1  0.30568978  0.23183022  0.96705885  1  0  0.131479  0  0.970576  0  0  0.133288  0  1.045137  0  0  0.137804  0  1.040501  0  0  0.126004  0.129941  0  1.048664  0
H  H24  1  0.39334991  0.73185580  0.46708396  1  0  0.132158  0  0.97042  0  0  0.133611  0  1.045168  0  0  0.138214  0  1.040382  0  0  0.12604  0.130216  0  1.048761  0
H  H25  1  0.69431060  0.76817016  0.03294236  1  0  0.131472  0  0.970623  0  0  0.13329  0  1.045166  0  0  0.137805  0  1.040529  0  0  0.126002  0.129944  0  1.04869  0
H  H26  1  0.18859809  0.95518544  0.40226269  1  0  0.120657  0  0.91355  0  0  0.132937  0  0.974633  0  0  0.135089  0  0.97363  0  0  0.120873  0.131397  0  0.975477  0
H  H27  1  0.33157132  0.54487445  0.09786322  1  0  0.120086  0  0.914336  0  0  0.132629  0  0.975192  0  0  0.13477  0  0.974154  0  0  0.12069  0.13111  0  0.976074  0
H  H28  1  0.81139965  0.04481495  0.59773715  1  0  0.120677  0  0.913516  0  0  0.132989  0  0.974556  0  0  0.135142  0  0.973549  0  0  0.12088  0.131421  0  0.975432  0
H  H29  1  0.66842977  0.45512691  0.90213706  1  0  0.120074  0  0.914325  0  0  0.132617  0  0.975192  0  0  0.134755  0  0.97415  0  0  0.120679  0.131093  0  0.976078  0
H  H30  1  0.31931547  0.09826125  0.36698748  1  0  0.127387  0  0.954285  0  0  0.13375  0  1.024543  0  0  0.137103  0  1.021519  0  0  0.117821  0.131314  0  1.026852  0
H  H31  1  0.35434526  0.40169969  0.13302886  1  0  0.127188  0  0.95545  0  0  0.134024  0  1.025177  0  0  0.13733  0  1.022167  0  0  0.11789  0.13164  0  1.027471  0
H  H32  1  0.68068298  0.90173913  0.63301436  1  0  0.127347  0  0.954297  0  0  0.133714  0  1.024545  0  0  0.137064  0  1.021525  0  0  0.117823  0.13128  0  1.026849  0
H  H33  1  0.64565584  0.59830167  0.86697141  1  0  0.12721  0  0.955426  0  0  0.134045  0  1.025146  0  0  0.137351  0  1.022137  0  0  0.117887  0.13166  0  1.027438  0
C  C34  1  0.70877910  0.07263484  0.92221007  1  0  0.690318  0  3.86857  0  0  0.637124  0  4.162848  0  0  0.672141  0  4.159228  0  0  0.208994  0.613207  0  4.164417  0
C  C35  1  0.21397176  0.42756229  0.57795882  1  0  0.688214  0  3.872102  0  0  0.636075  0  4.164477  0  0  0.67116  0  4.160965  0  0  0.208683  0.612122  0  4.165972  0
C  C36  1  0.29122274  0.92736458  0.07778914  1  0  0.690335  0  3.868673  0  0  0.637177  0  4.162881  0  0  0.672196  0  4.159258  0  0  0.208993  0.613259  0  4.164451  0
C  C37  1  0.78602837  0.57243906  0.42204177  1  0  0.688268  0  3.872216  0  0  0.636117  0  4.164604  0  0  0.671204  0  4.16109  0  0  0.208723  0.612163  0  4.166101  0
C  C38  1  0.55095587  0.11750365  0.87631541  1  0  -0.163596  0  3.580531  0  0  -0.218156  0  3.816598  0  0  -0.22043  0  3.823665  0  0  -0.049263  -0.21638  0  3.811754  0
C  C39  1  0.05699810  0.38252924  0.62368435  1  0  -0.163757  0  3.580919  0  0  -0.217871  0  3.816068  0  0  -0.220361  0  3.823453  0  0  -0.04951  -0.215969  0  3.811  0
C  C40  1  0.44904487  0.88249578  0.12368527  1  0  -0.163656  0  3.580457  0  0  -0.218217  0  3.816511  0  0  -0.220491  0  3.823576  0  0  -0.049275  -0.216441  0  3.811668  0
C  C41  1  0.94300182  0.61747018  0.37631549  1  0  -0.163857  0  3.580925  0  0  -0.217968  0  3.816078  0  0  -0.220459  0  3.823467  0  0  -0.049546  -0.216063  0  3.811009  0
C  C42  1  0.36981788  0.06023523  0.64967502  1  0  0.151785  0  3.504246  0  0  0.08103  0  3.766919  0  0  0.098038  0  3.772919  0  0  0.176103  0.070006  0  3.76282  0
C  C43  1  0.15958480  0.43966195  0.85034212  1  0  0.150828  0  3.50637  0  0  0.079801  0  3.768234  0  0  0.096751  0  3.774178  0  0  0.175593  0.068878  0  3.764202  0
C  C44  1  0.63018227  0.93976322  0.35032544  1  0  0.151867  0  3.50425  0  0  0.081094  0  3.766913  0  0  0.098103  0  3.772915  0  0  0.176127  0.070071  0  3.762814  0
C  C45  1  0.84041691  0.56033747  0.14965825  1  0  0.150717  0  3.50647  0  0  0.079742  0  3.768261  0  0  0.096694  0  3.774204  0  0  0.175562  0.068819  0  3.764229  0
C  C46  1  0.63875319  0.23739583  0.72232036  1  0  -0.021304  0  3.607269  0  0  -0.069125  0  3.876787  0  0  -0.065746  0  3.892412  0  0  0.017754  -0.071485  0  3.866721  0
C  C47  1  0.17884840  0.26256679  0.77766373  1  0  -0.021926  0  3.605871  0  0  -0.070052  0  3.875558  0  0  -0.066644  0  3.891152  0  0  0.016978  -0.072422  0  3.865496  0
C  C48  1  0.36124635  0.76260456  0.27768001  1  0  -0.021234  0  3.607269  0  0  -0.069044  0  3.876765  0  0  -0.065664  0  3.892391  0  0  0.017806  -0.071403  0  3.8667  0
C  C49  1  0.82114958  0.73743263  0.22233673  1  0  -0.021808  0  3.605807  0  0  -0.069977  0  3.875502  0  0  -0.066568  0  3.891094  0  0  0.017024  -0.072347  0  3.865442  0
C  C50  1  0.56082617  0.21700654  0.59682106  1  0  -0.051039  0  3.635148  0  0  -0.091531  0  3.904386  0  0  -0.090696  0  3.920448  0  0  0.014686  -0.09218  0  3.894065  0
C  C51  1  0.24713932  0.28301641  0.90317348  1  0  -0.050178  0  3.634344  0  0  -0.091197  0  3.903738  0  0  -0.09029  0  3.919762  0  0  0.01489  -0.09191  0  3.893436  0
C  C52  1  0.43917433  0.78299385  0.40317900  1  0  -0.051137  0  3.635166  0  0  -0.091636  0  3.904414  0  0  -0.090801  0  3.920477  0  0  0.014635  -0.092286  0  3.894096  0
C  C53  1  0.75286358  0.71698494  0.09682732  1  0  -0.050248  0  3.634394  0  0  -0.091275  0  3.903813  0  0  -0.090367  0  3.919837  0  0  0.014855  -0.091986  0  3.893508  0
C  C54  1  0.25158537  0.06107941  0.42831200  1  0  -0.171505  0  3.59411  0  0  -0.228123  0  3.835209  0  0  -0.229075  0  3.840779  0  0  -0.056943  -0.227455  0  3.831666  0
C  C55  1  0.26256421  0.43897368  0.07173020  1  0  -0.170595  0  3.596388  0  0  -0.228437  0  3.838333  0  0  -0.229215  0  3.843727  0  0  -0.057158  -0.227954  0  3.834971  0
C  C56  1  0.74841320  0.93892097  0.57168869  1  0  -0.171462  0  3.594064  0  0  -0.228092  0  3.835153  0  0  -0.22904  0  3.840722  0  0  -0.056936  -0.227403  0  3.831613  0
C  C57  1  0.73743689  0.56102767  0.92827007  1  0  -0.170608  0  3.596365  0  0  -0.228453  0  3.838317  0  0  -0.229218  0  3.843693  0  0  -0.057141  -0.227972  0  3.834975  0
C  C58  1  0.09430898  0.10616621  0.41480961  1  0  0.677167  0  3.882996  0  0  0.628715  0  4.181985  0  0  0.661945  0  4.177342  0  0  0.203253  0.606041  0  4.184235  0
C  C59  1  0.07377549  0.39394116  0.08520509  1  0  0.677498  0  3.881876  0  0  0.629453  0  4.180341  0  0  0.662727  0  4.175604  0  0  0.203258  0.606775  0  4.182647  0
C  C60  1  0.90568830  0.89383321  0.58518887  1  0  0.677081  0  3.882978  0  0  0.628605  0  4.182007  0  0  0.661834  0  4.177366  0  0  0.203173  0.605934  0  4.184252  0
C  C61  1  0.92622598  0.60605923  0.91479466  1  0  0.677499  0  3.881911  0  0  0.629458  0  4.180377  0  0  0.662726  0  4.17564  0  0  0.203239  0.60678  0  4.18268  0
N  N62  1  0.51648935  0.13925947  0.75289033  1  0  -0.01017  0  3.580926  0  0  0.077953  0  3.800331  0  0  0.064684  0  3.825523  0  0  -0.226723  0.086578  0  3.783235  0
N  N63  1  0.12390150  0.36063185  0.74709064  1  0  -0.008987  0  3.578281  0  0  0.07875  0  3.797963  0  0  0.065566  0  3.823124  0  0  -0.22618  0.087322  0  3.780893  0
N  N64  1  0.48351081  0.86073898  0.24711013  1  0  -0.010161  0  3.580927  0  0  0.077953  0  3.800336  0  0  0.064685  0  3.825528  0  0  -0.22674  0.08658  0  3.783239  0
N  N65  1  0.87609901  0.63936854  0.25290942  1  0  -0.008996  0  3.578249  0  0  0.078735  0  3.797931  0  0  0.065549  0  3.823094  0  0  -0.226163  0.087306  0  3.780861  0
N  N66  1  0.39439522  0.10576371  0.55374879  1  0  -0.006454  0  3.579987  0  0  0.081339  0  3.796559  0  0  0.067917  0  3.822242  0  0  -0.229452  0.090082  0  3.77916  0
N  N67  1  0.23507673  0.39427689  0.94625700  1  0  -0.005708  0  3.579372  0  0  0.082127  0  3.796033  0  0  0.068659  0  3.821765  0  0  -0.22918  0.090916  0  3.778634  0
N  N68  1  0.60560335  0.89423667  0.44625189  1  0  -0.006459  0  3.579983  0  0  0.081333  0  3.796563  0  0  0.067907  0  3.822254  0  0  -0.229422  0.090079  0  3.779156  0
N  N69  1  0.76492318  0.60572253  0.05374285  1  0  -0.005624  0  3.579403  0  0  0.082202  0  3.79606  0  0  0.068728  0  3.82179  0  0  -0.229163  0.09099  0  3.778654  0
N  N70  1  0.52099430  0.25011022  0.25008470  1  0  0.700628  0  4.132802  0  0  0.74343  0  4.399204  0  0  0.773264  0  4.407049  0  0  0.088522  0.723335  0  4.393203  0
N  N71  1  0.47900621  0.74989016  0.74991536  1  0  0.700605  0  4.132802  0  0  0.743406  0  4.399206  0  0  0.773242  0  4.407056  0  0  0.088521  0.723312  0  4.393205  0
O  O72  1  0.76416536  0.06805310  0.03491399  1  0  -0.632822  0  2.123907  0  0  -0.553747  0  2.404688  0  0  -0.58704  0  2.39206  0  0  -0.323782  -0.530587  0  2.412709  0
O  O73  1  0.16101141  0.43189348  0.46517070  1  0  -0.632095  0  2.125348  0  0  -0.55326  0  2.405491  0  0  -0.586557  0  2.392795  0  0  -0.323441  -0.530103  0  2.41355  0
O  O74  1  0.23583409  0.93194536  0.96508448  1  0  -0.632814  0  2.123913  0  0  -0.55375  0  2.404692  0  0  -0.587044  0  2.392064  0  0  -0.323764  -0.53059  0  2.412713  0
O  O75  1  0.83898729  0.56810692  0.53482883  1  0  -0.632074  0  2.12536  0  0  -0.553241  0  2.405514  0  0  -0.586539  0  2.39282  0  0  -0.323433  -0.530084  0  2.413573  0
O  O76  1  0.76692850  0.04379705  0.84422890  1  0  -0.613645  0  2.130241  0  0  -0.541209  0  2.403801  0  0  -0.574562  0  2.396602  0  0  -0.324401  -0.518096  0  2.408022  0
O  O77  1  0.37899497  0.45657084  0.65592855  1  0  -0.612785  0  2.129285  0  0  -0.540774  0  2.402481  0  0  -0.574066  0  2.395155  0  0  -0.324318  -0.517712  0  2.406782  0
O  O78  1  0.23307512  0.95620527  0.15577097  1  0  -0.613653  0  2.130331  0  0  -0.541231  0  2.403874  0  0  -0.574586  0  2.396672  0  0  -0.324384  -0.518119  0  2.408097  0
O  O79  1  0.62100566  0.54342955  0.34407036  1  0  -0.612842  0  2.129365  0  0  -0.540827  0  2.402578  0  0  -0.574118  0  2.395247  0  0  -0.324375  -0.517766  0  2.406882  0
O  O80  1  0.07804191  0.14756251  0.50805761  1  0  -0.621096  0  1.967718  0  0  -0.570501  0  2.202171  0  0  -0.596446  0  2.196731  0  0  -0.315296  -0.552141  0  2.205176  0
O  O81  1  0.92275870  0.35246610  0.99200632  1  0  -0.620538  0  1.968505  0  0  -0.570121  0  2.202944  0  0  -0.596129  0  2.19747  0  0  -0.314536  -0.551702  0  2.205949  0
O  O82  1  0.92195478  0.85243595  0.49194065  1  0  -0.621054  0  1.967679  0  0  -0.570447  0  2.202128  0  0  -0.596383  0  2.196677  0  0  -0.315264  -0.552086  0  2.205137  0
O  O83  1  0.07724181  0.64753428  0.00799374  1  0  -0.620555  0  1.968511  0  0  -0.570139  0  2.202958  0  0  -0.596148  0  2.197487  0  0  -0.314533  -0.551717  0  2.205956  0
O  O84  1  0.98541433  0.09294049  0.30246272  1  0  -0.674574  0  2.132391  0  0  -0.588533  0  2.420977  0  0  -0.623093  0  2.407151  0  0  -0.346198  -0.56396  0  2.429527  0
O  O85  1  0.09053735  0.40732412  0.19760344  1  0  -0.675513  0  2.131932  0  0  -0.589497  0  2.420624  0  0  -0.624165  0  2.406781  0  0  -0.34619  -0.56483  0  2.429149  0
O  O86  1  0.01458415  0.90705796  0.69753607  1  0  -0.674585  0  2.132413  0  0  -0.588532  0  2.420999  0  0  -0.623094  0  2.407174  0  0  -0.346165  -0.563959  0  2.429549  0
O  O87  1  0.90946219  0.59267627  0.80239694  1  0  -0.675502  0  2.131955  0  0  -0.589484  0  2.420638  0  0  -0.624152  0  2.406798  0  0  -0.346184  -0.564817  0  2.429163  0
O  O88  1  0.55390760  0.25724874  0.15344761  1  0  -0.491443  0  1.768594  0  0  -0.473841  0  1.99825  0  0  -0.492597  0  1.988954  0  0  -0.20201  -0.46063  0  2.0044  0
O  O89  1  0.64365967  0.24317731  0.34674383  1  0  -0.492399  0  1.770001  0  0  -0.474383  0  1.999228  0  0  -0.493143  0  1.9899  0  0  -0.201909  -0.461151  0  2.005384  0
O  O90  1  0.44609207  0.74275165  0.84655161  1  0  -0.491408  0  1.768583  0  0  -0.473807  0  1.998235  0  0  -0.492562  0  1.988941  0  0  -0.201997  -0.460597  0  2.004385  0
O  O91  1  0.35634084  0.75682307  0.65325623  1  0  -0.492393  0  1.770007  0  0  -0.474375  0  1.999233  0  0  -0.493136  0  1.989907  0  0  -0.201906  -0.461144  0  2.005389  0
O  O92  1  0.37005115  0.24988603  0.25007089  1  0  -0.469067  0  1.846455  0  0  -0.455348  0  2.094616  0  0  -0.471584  0  2.083231  0  0  -0.183811  -0.444226  0  2.102562  0
O  O93  1  0.62994876  0.75011340  0.74992895  1  0  -0.469076  0  1.846472  0  0  -0.455356  0  2.094628  0  0  -0.471594  0  2.083247  0  0  -0.18382  -0.444233  0  2.102574  0
