# generated using pymatgen
data_AgH17C15O11
_symmetry_space_group_name_H-M   'P 1'
_cell_length_a   8.14868338
_cell_length_b   10.66973009
_cell_length_c   11.15056427
_cell_angle_alpha   109.69856230
_cell_angle_beta   100.38336086
_cell_angle_gamma   102.71680332
_symmetry_Int_Tables_number   1
_chemical_formula_structural   AgH17C15O11
_chemical_formula_sum   'Ag2 H34 C30 O22'
_cell_volume   855.50198790
_cell_formula_units_Z   2
loop_
 _symmetry_equiv_pos_site_id
 _symmetry_equiv_pos_as_xyz
  1  'x, y, z'
loop_
 _atom_site_type_symbol
 _atom_site_label
 _atom_site_symmetry_multiplicity
 _atom_site_fract_x
 _atom_site_fract_y
 _atom_site_fract_z
 _atom_site_occupancy
 _atom_site_hle17_bader_spin_density
 _atom_site_hle17_ddec_charge
 _atom_site_hle17_ddec_spin_density
 _atom_site_hle17_ddec_sum_bond_order
 _atom_site_hle17_magmom
 _atom_site_hse06_10hf_bader_spin_density
 _atom_site_hse06_10hf_ddec_charge
 _atom_site_hse06_10hf_ddec_spin_density
 _atom_site_hse06_10hf_ddec_sum_bond_order
 _atom_site_hse06_10hf_magmom
 _atom_site_hse06_bader_spin_density
 _atom_site_hse06_ddec_charge
 _atom_site_hse06_ddec_spin_density
 _atom_site_hse06_ddec_sum_bond_order
 _atom_site_hse06_magmom
 _atom_site_pbe_bader_spin_density
 _atom_site_pbe_cm5_charge
 _atom_site_pbe_ddec_charge
 _atom_site_pbe_ddec_spin_density
 _atom_site_pbe_ddec_sum_bond_order
 _atom_site_pbe_magmom
Ag  Ag0  1  0.88958104  0.44194750  0.28286417  1  0  0.677457  0  1.218005  0  0  0.577464  0  1.616377  0  0  0.60054  0  1.573373  0  0  0.478428  0.559276  0  1.647025  0
Ag  Ag1  1  0.11042012  0.55805753  0.71713301  1  0  0.677373  0  1.21816  0  0  0.577366  0  1.616512  0  0  0.600434  0  1.573519  0  0  0.478346  0.559182  0  1.64716  0
H  H2  1  0.89017410  0.19929456  0.29949587  1  0  0.401388  0  0.908518  0  0  0.37217  0  0.973401  0  0  0.381401  0  0.959801  0  0  0.284343  0.365536  0  0.983107  0
H  H3  1  0.10981600  0.80070106  0.70049416  1  0  0.401362  0  0.908534  0  0  0.372145  0  0.973431  0  0  0.381373  0  0.959833  0  0  0.284334  0.365514  0  0.983136  0
H  H4  1  0.94299471  0.19129419  0.16705876  1  0  0.416896  0  0.887646  0  0  0.388178  0  0.947936  0  0  0.398361  0  0.933297  0  0  0.287577  0.380799  0  0.958527  0
H  H5  1  0.05700361  0.80870666  0.83293583  1  0  0.41694  0  0.887593  0  0  0.388174  0  0.947943  0  0  0.398367  0  0.933293  0  0  0.287548  0.380797  0  0.958529  0
H  H6  1  0.66674843  0.01977907  0.29627146  1  0  0.107707  0  0.936983  0  0  0.126144  0  0.997325  0  0  0.127138  0  0.996252  0  0  0.110214  0.125334  0  0.998193  0
H  H7  1  0.33325440  0.98022698  0.70372357  1  0  0.107753  0  0.937096  0  0  0.126155  0  0.997451  0  0  0.127152  0  0.996375  0  0  0.110216  0.125346  0  0.998319  0
H  H8  1  0.57467035  0.91648611  0.37906032  1  0  0.102459  0  0.954224  0  0  0.116425  0  1.024147  0  0  0.117131  0  1.023828  0  0  0.106307  0.115747  0  1.024607  0
H  H9  1  0.42533382  0.08351056  0.62093557  1  0  0.102503  0  0.954297  0  0  0.116444  0  1.024225  0  0  0.117151  0  1.023904  0  0  0.106338  0.115766  0  1.024688  0
H  H10  1  0.80959123  0.98319014  0.41479638  1  0  0.085491  0  0.939064  0  0  0.104178  0  1.001654  0  0  0.104638  0  1.000909  0  0  0.100746  0.103558  0  1.002621  0
H  H11  1  0.19041502  0.01680858  0.58519685  1  0  0.085534  0  0.9391  0  0  0.104221  0  1.001677  0  0  0.104675  0  1.000941  0  0  0.100758  0.1036  0  1.002644  0
H  H12  1  0.79768256  0.95080403  0.72618890  1  0  0.087758  0  0.955117  0  0  0.10349  0  1.023029  0  0  0.10427  0  1.021953  0  0  0.100053  0.102953  0  1.023592  0
H  H13  1  0.20231610  0.04920101  0.27380793  1  0  0.087706  0  0.955175  0  0  0.103488  0  1.023038  0  0  0.104271  0  1.021957  0  0  0.100067  0.10295  0  1.023602  0
H  H14  1  0.95869788  0.05398147  0.88179161  1  0  0.113502  0  0.952342  0  0  0.126694  0  1.019806  0  0  0.128461  0  1.017884  0  0  0.106229  0.125498  0  1.021061  0
H  H15  1  0.04130131  0.94601830  0.11820007  1  0  0.113515  0  0.952162  0  0  0.126686  0  1.019679  0  0  0.128452  0  1.017763  0  0  0.106246  0.12549  0  1.020935  0
H  H16  1  0.02514176  0.00480734  0.73169907  1  0  0.083434  0  0.959624  0  0  0.101862  0  1.026722  0  0  0.102269  0  1.026037  0  0  0.098828  0.10154  0  1.027173  0
H  H17  1  0.97486497  0.99518617  0.26829440  1  0  0.083425  0  0.959708  0  0  0.101832  0  1.026822  0  0  0.10224  0  1.026137  0  0  0.098804  0.101515  0  1.027269  0
H  H18  1  0.61418117  0.54461052  0.19172239  1  0  0.090141  0  0.976825  0  0  0.097292  0  1.061104  0  0  0.099027  0  1.058802  0  0  0.097519  0.096022  0  1.063116  0
H  H19  1  0.38582902  0.45539875  0.80828274  1  0  0.0902  0  0.976758  0  0  0.097342  0  1.061061  0  0  0.099082  0  1.058758  0  0  0.097537  0.096066  0  1.063082  0
H  H20  1  0.62432580  0.71682803  0.19860126  1  0  0.10452  0  0.925001  0  0  0.12756  0  0.979229  0  0  0.127674  0  0.979805  0  0  0.108463  0.127289  0  0.979142  0
H  H21  1  0.37568442  0.28317812  0.80140470  1  0  0.104485  0  0.925098  0  0  0.127555  0  0.979287  0  0  0.127671  0  0.979865  0  0  0.108469  0.127266  0  0.979225  0
H  H22  1  0.82379864  0.67854602  0.24984934  1  0  0.079624  0  0.985392  0  0  0.087362  0  1.07072  0  0  0.088823  0  1.068381  0  0  0.092615  0.086125  0  1.07274  0
H  H23  1  0.17620581  0.32145803  0.75015337  1  0  0.079696  0  0.985284  0  0  0.08741  0  1.070644  0  0  0.088879  0  1.068297  0  0  0.092636  0.086174  0  1.072661  0
H  H24  1  0.61620916  0.90907627  0.86738950  1  0  0.10126  0  0.944564  0  0  0.115152  0  1.012889  0  0  0.115927  0  1.011968  0  0  0.103021  0.114505  0  1.013506  0
H  H25  1  0.38379834  0.09092244  0.13260390  1  0  0.101287  0  0.944617  0  0  0.115196  0  1.012917  0  0  0.115966  0  1.012002  0  0  0.10302  0.114552  0  1.013533  0
H  H26  1  0.64873892  0.88727186  0.02094949  1  0  0.098125  0  0.927082  0  0  0.115236  0  0.989599  0  0  0.115795  0  0.988892  0  0  0.103488  0.114701  0  0.99021  0
H  H27  1  0.35126561  0.11272900  0.97904776  1  0  0.098111  0  0.927012  0  0  0.115262  0  0.98949  0  0  0.115823  0  0.988782  0  0  0.10347  0.114727  0  0.990103  0
H  H28  1  0.43112973  0.82342744  0.90900162  1  0  0.122029  0  0.94925  0  0  0.138271  0  1.009213  0  0  0.139741  0  1.007831  0  0  0.106847  0.137112  0  1.010408  0
H  H29  1  0.56888215  0.17657972  0.09100309  1  0  0.1221  0  0.94902  0  0  0.138285  0  1.009072  0  0  0.139756  0  1.007687  0  0  0.106864  0.137126  0  1.010269  0
H  H30  1  0.57324697  0.61492933  0.39991852  1  0  0.096072  0  0.962878  0  0  0.112731  0  1.027982  0  0  0.112544  0  1.029639  0  0  0.101121  0.112551  0  1.027304  0
H  H31  1  0.42673586  0.38507375  0.60008357  1  0  0.096077  0  0.96286  0  0  0.112687  0  1.028029  0  0  0.11252  0  1.029655  0  0  0.101135  0.112504  0  1.027354  0
H  H32  1  0.77875176  0.75147455  0.46332466  1  0  0.088389  0  0.962548  0  0  0.107063  0  1.028203  0  0  0.107178  0  1.028412  0  0  0.09855  0.10675  0  1.028396  0
H  H33  1  0.22123060  0.24852760  0.53668515  1  0  0.08845  0  0.962489  0  0  0.107097  0  1.028193  0  0  0.107205  0  1.028416  0  0  0.098577  0.106788  0  1.028376  0
H  H34  1  0.59692606  0.77883255  0.52926908  1  0  0.101255  0  0.936935  0  0  0.116518  0  1.001396  0  0  0.117817  0  1.000209  0  0  0.104452  0.115584  0  1.002195  0
H  H35  1  0.40305763  0.22116948  0.47073191  1  0  0.101182  0  0.936957  0  0  0.116476  0  1.001391  0  0  0.117742  0  1.000241  0  0  0.104424  0.115539  0  1.002197  0
C  C36  1  0.78737760  0.48896173  0.66605435  1  0  -0.224807  0  3.886164  0  0  -0.21176  0  4.152847  0  0  -0.224546  0  4.175308  0  0  -0.071321  -0.203605  0  4.137664  0
C  C37  1  0.21262195  0.51103297  0.33394926  1  0  -0.224537  0  3.886858  0  0  -0.211463  0  4.153466  0  0  -0.224253  0  4.175931  0  0  -0.071243  -0.203305  0  4.138273  0
C  C38  1  0.75919542  0.55307202  0.79282344  1  0  -0.089781  0  3.725337  0  0  -0.09967  0  3.994528  0  0  -0.098596  0  4.011256  0  0  -0.025948  -0.099285  0  3.982669  0
C  C39  1  0.24079254  0.44691546  0.20718170  1  0  -0.089657  0  3.725488  0  0  -0.099551  0  3.994726  0  0  -0.098475  0  4.011441  0  0  -0.025828  -0.099171  0  3.98288  0
C  C40  1  0.75721213  0.45972110  0.85726226  1  0  -0.128703  0  3.763398  0  0  -0.130376  0  4.026662  0  0  -0.140285  0  4.049976  0  0  -0.034977  -0.123904  0  4.010556  0
C  C41  1  0.24279533  0.54026535  0.14275065  1  0  -0.128905  0  3.763523  0  0  -0.130658  0  4.027  0  0  -0.140569  0  4.050317  0  0  -0.035096  -0.12418  0  4.010903  0
C  C42  1  0.77860215  0.33447734  0.77023932  1  0  -0.109473  0  3.762466  0  0  -0.119338  0  4.030453  0  0  -0.123739  0  4.051304  0  0  -0.034684  -0.116215  0  4.016177  0
C  C43  1  0.22140780  0.66551835  0.22976336  1  0  -0.109558  0  3.762073  0  0  -0.119339  0  4.030065  0  0  -0.12372  0  4.050905  0  0  -0.03461  -0.116246  0  4.015822  0
C  C44  1  0.79776121  0.35136176  0.65346096  1  0  -0.156562  0  3.821126  0  0  -0.154171  0  4.083781  0  0  -0.159332  0  4.104118  0  0  -0.047505  -0.150756  0  4.069961  0
C  C45  1  0.20223455  0.64863303  0.34654843  1  0  -0.156736  0  3.821085  0  0  -0.154239  0  4.083648  0  0  -0.159406  0  4.103979  0  0  -0.047556  -0.150817  0  4.069836  0
C  C46  1  0.80879092  0.24181276  0.53507765  1  0  0.616883  0  3.801854  0  0  0.562755  0  4.102763  0  0  0.598232  0  4.090729  0  0  0.234849  0.538504  0  4.110402  0
C  C47  1  0.19120320  0.75818405  0.46492586  1  0  0.617211  0  3.802027  0  0  0.562944  0  4.103138  0  0  0.598425  0  4.091098  0  0  0.234969  0.538694  0  4.110779  0
C  C48  1  0.68394976  0.00284225  0.38880275  1  0  -0.073359  0  3.58435  0  0  -0.174377  0  3.848275  0  0  -0.166099  0  3.8501  0  0  -0.141119  -0.17989  0  3.847485  0
C  C49  1  0.31605552  0.99716385  0.61119803  1  0  -0.073521  0  3.584649  0  0  -0.174459  0  3.848572  0  0  -0.166177  0  3.850391  0  0  -0.14119  -0.17997  0  3.847785  0
C  C50  1  0.77954268  0.20750697  0.79545072  1  0  0.601588  0  3.811859  0  0  0.552043  0  4.111278  0  0  0.585867  0  4.100684  0  0  0.22997  0.528749  0  4.11818  0
C  C51  1  0.22047501  0.79250224  0.20455274  1  0  0.601662  0  3.811275  0  0  0.551972  0  4.110953  0  0  0.585763  0  4.100401  0  0  0.229942  0.528683  0  4.11785  0
C  C52  1  0.92282527  0.03374950  0.77609730  1  0  -0.07224  0  3.598711  0  0  -0.173963  0  3.867099  0  0  -0.165588  0  3.868456  0  0  -0.148919  -0.179298  0  3.865519  0
C  C53  1  0.07717557  0.96624823  0.22389846  1  0  -0.072196  0  3.598437  0  0  -0.17392  0  3.866853  0  0  -0.165553  0  3.868199  0  0  -0.148937  -0.179264  0  3.865276  0
C  C54  1  0.75878758  0.49036650  0.99552985  1  0  0.611046  0  3.789041  0  0  0.561472  0  4.074746  0  0  0.596134  0  4.067109  0  0  0.236321  0.537935  0  4.079126  0
C  C55  1  0.24121405  0.50963332  0.00446667  1  0  0.611131  0  3.788279  0  0  0.561454  0  4.074212  0  0  0.5961  0  4.066596  0  0  0.236339  0.537916  0  4.078592  0
C  C56  1  0.69145318  0.63670948  0.18147173  1  0  -0.086562  0  3.615771  0  0  -0.189657  0  3.88868  0  0  -0.181271  0  3.889417  0  0  -0.147966  -0.195343  0  3.888656  0
C  C57  1  0.30855828  0.36329668  0.81853530  1  0  -0.0867  0  3.615863  0  0  -0.189812  0  3.888727  0  0  -0.181437  0  3.889456  0  0  -0.148029  -0.195483  0  3.888713  0
C  C58  1  0.74901454  0.69780304  0.85073375  1  0  0.625403  0  3.80986  0  0  0.560559  0  4.130801  0  0  0.595381  0  4.119126  0  0  0.243619  0.536367  0  4.138676  0
C  C59  1  0.25097353  0.30218738  0.14925617  1  0  0.62538  0  3.810279  0  0  0.560528  0  4.131315  0  0  0.595363  0  4.119614  0  0  0.24355  0.536327  0  4.139209  0
C  C60  1  0.57048553  0.84089921  0.91705683  1  0  -0.0693  0  3.533377  0  0  -0.164734  0  3.790072  0  0  -0.156787  0  3.792257  0  0  -0.139308  -0.169837  0  3.78856  0
C  C61  1  0.42951643  0.15910483  0.08294463  1  0  -0.069432  0  3.533063  0  0  -0.164848  0  3.789809  0  0  -0.156901  0  3.792003  0  0  -0.139319  -0.169955  0  3.788297  0
C  C62  1  0.74557656  0.52918575  0.55371868  1  0  0.58938  0  3.836182  0  0  0.536408  0  4.134964  0  0  0.571663  0  4.12679  0  0  0.218761  0.512759  0  4.139573  0
C  C63  1  0.25441018  0.47080015  0.44624185  1  0  0.588758  0  3.83727  0  0  0.535765  0  4.136096  0  0  0.571021  0  4.127944  0  0  0.218444  0.512119  0  4.140687  0
C  C64  1  0.66355150  0.70279680  0.48803602  1  0  -0.066658  0  3.573855  0  0  -0.167195  0  3.835083  0  0  -0.159884  0  3.839109  0  0  -0.143471  -0.171991  0  3.832588  0
C  C65  1  0.33642925  0.29720733  0.51196522  1  0  -0.066626  0  3.573934  0  0  -0.167114  0  3.835123  0  0  -0.159795  0  3.839161  0  0  -0.14345  -0.171912  0  3.832639  0
O  O66  1  0.92537942  0.25326723  0.47884348  1  0  -0.561267  0  2.025719  0  0  -0.516641  0  2.265422  0  0  -0.536795  0  2.253443  0  0  -0.273365  -0.502511  0  2.273311  0
O  O67  1  0.07463093  0.74673876  0.52114900  1  0  -0.561366  0  2.026193  0  0  -0.516642  0  2.265879  0  0  -0.536795  0  2.253886  0  0  -0.27343  -0.502519  0  2.27378  0
O  O68  1  0.67617673  0.12274550  0.49577810  1  0  -0.274721  0  2.291315  0  0  -0.19736  0  2.5307  0  0  -0.218666  0  2.528958  0  0  -0.165078  -0.1827  0  2.531504  0
O  O69  1  0.32382364  0.87725127  0.50422357  1  0  -0.274785  0  2.291231  0  0  -0.197447  0  2.530693  0  0  -0.21876  0  2.528956  0  0  -0.165073  -0.182784  0  2.531497  0
O  O70  1  0.91196927  0.15994133  0.75803024  1  0  -0.299464  0  2.299026  0  0  -0.221492  0  2.539581  0  0  -0.243379  0  2.538857  0  0  -0.180456  -0.20619  0  2.539269  0
O  O71  1  0.08802490  0.84005233  0.24197140  1  0  -0.299414  0  2.298672  0  0  -0.221434  0  2.539281  0  0  -0.243286  0  2.538555  0  0  -0.180405  -0.20613  0  2.538965  0
O  O72  1  0.67445677  0.14807449  0.83948570  1  0  -0.514516  0  1.92923  0  0  -0.475406  0  2.142249  0  0  -0.494703  0  2.134936  0  0  -0.274619  -0.462348  0  2.14724  0
O  O73  1  0.32557113  0.85192516  0.16050545  1  0  -0.514549  0  1.928815  0  0  -0.475377  0  2.141907  0  0  -0.494673  0  2.134625  0  0  -0.274628  -0.462318  0  2.146891  0
O  O74  1  0.80659175  0.42300509  0.05849755  1  0  -0.537303  0  2.054365  0  0  -0.47916  0  2.30148  0  0  -0.502381  0  2.291846  0  0  -0.28  -0.462565  0  2.307293  0
O  O75  1  0.19338871  0.57699169  0.94149867  1  0  -0.537336  0  2.054053  0  0  -0.47907  0  2.301093  0  0  -0.502284  0  2.291469  0  0  -0.279984  -0.462477  0  2.306904  0
O  O76  1  0.70139028  0.60108675  0.04706840  1  0  -0.275295  0  2.325989  0  0  -0.192367  0  2.55888  0  0  -0.213895  0  2.558808  0  0  -0.167378  -0.177259  0  2.55844  0
O  O77  1  0.29863000  0.39891310  0.95293700  1  0  -0.27515  0  2.325948  0  0  -0.192175  0  2.558854  0  0  -0.213694  0  2.558801  0  0  -0.167278  -0.177066  0  2.558407  0
O  O78  1  0.58749672  0.70259794  0.85217815  1  0  -0.269188  0  2.318119  0  0  -0.200199  0  2.573599  0  0  -0.222121  0  2.57143  0  0  -0.159555  -0.185069  0  2.574955  0
O  O79  1  0.41249439  0.29740413  0.14782927  1  0  -0.269159  0  2.317974  0  0  -0.200239  0  2.573479  0  0  -0.222167  0  2.571305  0  0  -0.159583  -0.185101  0  2.57484  0
O  O80  1  0.87750145  0.80316159  0.89491680  1  0  -0.537214  0  2.003757  0  0  -0.483681  0  2.224013  0  0  -0.506092  0  2.215405  0  0  -0.260151  -0.468023  0  2.22943  0
O  O81  1  0.12249810  0.19683927  0.10507885  1  0  -0.537112  0  2.004155  0  0  -0.483529  0  2.224357  0  0  -0.505936  0  2.215726  0  0  -0.260031  -0.467866  0  2.22978  0
O  O82  1  0.72001790  0.65624583  0.59127554  1  0  -0.280456  0  2.329739  0  0  -0.195841  0  2.566285  0  0  -0.217759  0  2.566864  0  0  -0.167833  -0.180507  0  2.56559  0
O  O83  1  0.27995601  0.34376061  0.40874251  1  0  -0.28019  0  2.330777  0  0  -0.195602  0  2.567362  0  0  -0.217517  0  2.567937  0  0  -0.167796  -0.180272  0  2.566662  0
O  O84  1  0.72566795  0.45406840  0.43646628  1  0  -0.556655  0  2.074955  0  0  -0.502439  0  2.338525  0  0  -0.523666  0  2.324802  0  0  -0.302935  -0.487686  0  2.347736  0
O  O85  1  0.27433064  0.54593366  0.56354217  1  0  -0.556654  0  2.074046  0  0  -0.502363  0  2.33757  0  0  -0.523604  0  2.323867  0  0  -0.302896  -0.487602  0  2.346771  0
O  O86  1  0.84614684  0.19564630  0.20978182  1  0  -0.818272  0  1.873283  0  0  -0.757207  0  2.052551  0  0  -0.780439  0  2.022987  0  0  -0.585708  -0.740212  0  2.073416  0
O  O87  1  0.15384978  0.80435665  0.79021318  1  0  -0.818272  0  1.873324  0  0  -0.757191  0  2.052712  0  0  -0.780417  0  2.023112  0  0  -0.585697  -0.740203  0  2.073566  0
