# generated using pymatgen
data_CdH8C12N2O5
_symmetry_space_group_name_H-M   'P 1'
_cell_length_a   7.80909723
_cell_length_b   10.52776291
_cell_length_c   16.14201243
_cell_angle_alpha   100.99727032
_cell_angle_beta   90.00061417
_cell_angle_gamma   90.00081854
_symmetry_Int_Tables_number   1
_chemical_formula_structural   CdH8C12N2O5
_chemical_formula_sum   'Cd4 H32 C48 N8 O20'
_cell_volume   1302.70236428
_cell_formula_units_Z   4
loop_
 _symmetry_equiv_pos_site_id
 _symmetry_equiv_pos_as_xyz
  1  'x, y, z'
loop_
 _atom_site_type_symbol
 _atom_site_label
 _atom_site_symmetry_multiplicity
 _atom_site_fract_x
 _atom_site_fract_y
 _atom_site_fract_z
 _atom_site_occupancy
 _atom_site_pbe_bader_charge
 _atom_site_pbe_bader_spin_density
 _atom_site_pbe_cm5_charge
 _atom_site_pbe_ddec_charge
 _atom_site_pbe_ddec_spin_density
 _atom_site_pbe_ddec_sum_bond_order
 _atom_site_pbe_magmom
Cd  Cd0  1  0.80033321  0.52922984  0.11884220  1  1.263921  0  0.778034  0.887802  0  2.135709  0
Cd  Cd1  1  0.30031588  0.47077199  0.38115637  1  1.264066  0  0.778045  0.887835  0  2.135693  0
Cd  Cd2  1  0.19967769  0.47076099  0.88116107  1  1.26397  0  0.778058  0.887831  0  2.135591  0
Cd  Cd3  1  0.69966172  0.52923811  0.61883500  1  1.26372  0  0.778058  0.887756  0  2.135724  0
H  H4  1  0.73427423  0.17597669  0.89428552  1  0.103691  0  0.109332  0.110039  0  1.000323  0
H  H5  1  0.23426011  0.82402673  0.60572244  1  0.103719  0  0.109327  0.110046  0  1.000218  0
H  H6  1  0.26577380  0.82402969  0.10573142  1  0.103737  0  0.109327  0.110022  0  1.000144  0
H  H7  1  0.76571365  0.17597765  0.39428310  1  0.103645  0  0.109336  0.110073  0  1.000273  0
H  H8  1  0.02023658  0.71319696  0.16034791  1  0.629121  0  0.283461  0.371935  0  0.968784  0
H  H9  1  0.52022228  0.28680457  0.33964838  1  0.629094  0  0.283449  0.371906  0  0.96887  0
H  H10  1  0.97975639  0.28679001  0.83965798  1  0.629039  0  0.283426  0.371897  0  0.968862  0
H  H11  1  0.47974636  0.71320262  0.66034202  1  0.629147  0  0.283458  0.371857  0  0.968891  0
H  H12  1  0.12431056  0.63254674  0.08654085  1  0.645397  0  0.28297  0.384584  0  0.956816  0
H  H13  1  0.62429144  0.36745020  0.41346541  1  0.64544  0  0.282984  0.384534  0  0.956883  0
H  H14  1  0.87570290  0.36744703  0.91346897  1  0.645384  0  0.282977  0.384543  0  0.956877  0
H  H15  1  0.37567976  0.63255316  0.58653134  1  0.645291  0  0.28293  0.384462  0  0.95696  0
H  H16  1  0.65848780  0.95163637  0.82881548  1  0.089349  0  0.108541  0.118661  0  0.994215  0
H  H17  1  0.15846180  0.04836986  0.67118753  1  0.089412  0  0.108495  0.118594  0  0.994196  0
H  H18  1  0.34156023  0.04837960  0.17118837  1  0.089297  0  0.108496  0.118582  0  0.994266  0
H  H19  1  0.84152605  0.95164228  0.32882268  1  0.089492  0  0.10861  0.118753  0  0.994153  0
H  H20  1  0.85390921  0.04996979  0.12622368  1  0.112827  0  0.108619  0.12026  0  1.004371  0
H  H21  1  0.35382909  0.95001573  0.37377102  1  0.112804  0  0.108659  0.120195  0  1.00451  0
H  H22  1  0.14616059  0.94999104  0.87377531  1  0.112768  0  0.108695  0.120218  0  1.004438  0
H  H23  1  0.64611010  0.04999538  0.62622853  1  0.112687  0  0.108598  0.120168  0  1.004388  0
H  H24  1  0.82296146  0.75594473  0.78396671  1  0.127289  0  0.128153  0.104467  0  0.978399  0
H  H25  1  0.32295574  0.24404652  0.71601517  1  0.127424  0  0.128102  0.104329  0  0.978491  0
H  H26  1  0.17703791  0.24405366  0.21600713  1  0.127572  0  0.128086  0.104263  0  0.978506  0
H  H27  1  0.67703723  0.75595300  0.28398606  1  0.127303  0  0.128104  0.104315  0  0.97845  0
H  H28  1  0.54496379  0.41561746  0.76056934  1  0.164994  0  0.132176  0.082662  0  1.013239  0
H  H29  1  0.04497877  0.58438336  0.73942879  1  0.164989  0  0.13218  0.082672  0  1.013261  0
H  H30  1  0.45502790  0.58438875  0.23941846  1  0.165314  0  0.13217  0.082718  0  1.013065  0
H  H31  1  0.95500908  0.41561817  0.26058570  1  0.165521  0  0.132125  0.082648  0  1.013039  0
H  H32  1  0.47387777  0.69241641  0.97848123  1  0.163244  0  0.123944  0.096435  0  1.014237  0
H  H33  1  0.97383872  0.30759823  0.52151782  1  0.162546  0  0.12396  0.096524  0  1.014422  0
H  H34  1  0.52617410  0.30758502  0.02151466  1  0.162547  0  0.123947  0.096498  0  1.01435  0
H  H35  1  0.02613760  0.69242165  0.47849333  1  0.1633  0  0.123878  0.09636  0  1.014369  0
C  C36  1  0.83945480  0.26449967  0.05721446  1  1.512947  0  0.195564  0.552632  0  4.226233  0
C  C37  1  0.33943382  0.73549597  0.44278784  1  1.51336  0  0.19543  0.552466  0  4.226747  0
C  C38  1  0.16059068  0.73548157  0.94280188  1  1.514939  0  0.195352  0.552419  0  4.22658  0
C  C39  1  0.66054122  0.26451899  0.55720722  1  1.513176  0  0.195578  0.552701  0  4.226436  0
C  C40  1  0.80028297  0.12843025  0.01502781  1  -0.01478  0  -0.020121  -0.049559  0  4.000857  0
C  C41  1  0.30023807  0.87156484  0.48497799  1  -0.014155  0  -0.020239  -0.049729  0  4.000609  0
C  C42  1  0.19977019  0.87155578  0.98498231  1  -0.016142  0  -0.020115  -0.049509  0  4.000775  0
C  C43  1  0.69971776  0.12844726  0.51502539  1  -0.014958  0  -0.020177  -0.049577  0  4.000643  0
C  C44  1  0.74507502  0.09946484  0.93089067  1  -0.145552  0  -0.074102  -0.065212  0  3.957378  0
C  C45  1  0.24505593  0.90053899  0.56911535  1  -0.146097  0  -0.074111  -0.065154  0  3.957229  0
C  C46  1  0.25496661  0.90053667  0.06912133  1  -0.145969  0  -0.074138  -0.065165  0  3.957264  0
C  C47  1  0.75492808  0.09947024  0.43089202  1  -0.145561  0  -0.074128  -0.06528  0  3.957233  0
C  C48  1  0.70258527  0.97309653  0.89421556  1  0.106043  0  -0.081596  -0.128116  0  3.951599  0
C  C49  1  0.20256147  0.02690364  0.60577751  1  0.106247  0  -0.081444  -0.127949  0  3.951678  0
C  C50  1  0.29746021  0.02690394  0.10578145  1  0.105907  0  -0.081486  -0.128019  0  3.951738  0
C  C51  1  0.79742254  0.97310168  0.39422257  1  0.038409  0  -0.081634  -0.128214  0  3.951486  0
C  C52  1  0.71195143  0.87217913  0.94003960  1  -0.016309  0  0.009852  0.074356  0  3.93274  0
C  C53  1  0.21191834  0.12783105  0.55995148  1  -0.017242  0  0.009774  0.074166  0  3.932929  0
C  C54  1  0.28806459  0.12782612  0.05994994  1  -0.016742  0  0.009784  0.074281  0  3.932773  0
C  C55  1  0.78804518  0.87219459  0.44005294  1  0.050561  0  0.009878  0.074484  0  3.932428  0
C  C56  1  0.76650123  0.90127074  0.02544912  1  -0.041167  0  -0.01441  -0.081832  0  3.909355  0
C  C57  1  0.26644477  0.09871424  0.47454036  1  -0.042911  0  -0.014313  -0.081696  0  3.909465  0
C  C58  1  0.23354168  0.09869970  0.97453927  1  -0.043027  0  -0.014285  -0.081673  0  3.909509  0
C  C59  1  0.73349954  0.90129786  0.52546427  1  -0.04126  0  -0.014488  -0.081993  0  3.909679  0
C  C60  1  0.80990651  0.02894209  0.06103189  1  -0.010889  0  -0.069002  -0.085421  0  3.931047  0
C  C61  1  0.30984210  0.97104558  0.43896236  1  -0.009267  0  -0.068999  -0.085272  0  3.93121  0
C  C62  1  0.19015689  0.97102551  0.93896854  1  -0.010078  0  -0.069148  -0.085459  0  3.931511  0
C  C63  1  0.69010733  0.02896069  0.56103660  1  -0.010749  0  -0.068935  -0.085221  0  3.931291  0
C  C64  1  0.79165069  0.80149367  0.08040315  1  1.573386  0  0.200333  0.569718  0  4.228663  0
C  C65  1  0.29160459  0.19849425  0.41959010  1  1.574596  0  0.200349  0.569492  0  4.227892  0
C  C66  1  0.20837942  0.19847483  0.91958438  1  1.575525  0  0.200296  0.569472  0  4.228506  0
C  C67  1  0.70834484  0.80152076  0.58041426  1  1.560315  0  0.200292  0.569416  0  4.228483  0
C  C68  1  0.66557739  0.74210836  0.89256984  1  0.080877  0  0.012134  0.006161  0  3.942183  0
C  C69  1  0.16553902  0.25788262  0.60742255  1  0.081555  0  0.01227  0.006434  0  3.942267  0
C  C70  1  0.33445016  0.25788238  0.10741855  1  0.080996  0  0.012189  0.006351  0  3.942129  0
C  C71  1  0.83442834  0.74212561  0.39258098  1  0.081279  0  0.012102  0.006083  0  3.941905  0
C  C72  1  0.73272424  0.69760800  0.81215109  1  0.470505  0  0.075112  0.093594  0  3.873846  0
C  C73  1  0.23270347  0.30239236  0.68783917  1  0.470023  0  0.075144  0.093785  0  3.873908  0
C  C74  1  0.26728794  0.30239724  0.18783535  1  0.46993  0  0.075155  0.093951  0  3.873642  0
C  C75  1  0.76727925  0.69761394  0.31216351  1  0.470012  0  0.075186  0.093925  0  3.873705  0
C  C76  1  0.57608146  0.50980515  0.79857156  1  1.077224  0  0.186689  0.252123  0  3.948554  0
C  C77  1  0.07607188  0.49019592  0.70142746  1  1.07715  0  0.186504  0.25191  0  3.948685  0
C  C78  1  0.42392815  0.49019623  0.20141689  1  1.076886  0  0.18654  0.251948  0  3.94849  0
C  C79  1  0.92391469  0.50981526  0.29858263  1  1.076388  0  0.186623  0.252143  0  3.948269  0
C  C80  1  0.54209721  0.66230176  0.91942402  1  0.524865  0  0.08132  0.138106  0  3.859443  0
C  C81  1  0.04206620  0.33770377  0.58057223  1  0.525145  0  0.081044  0.137607  0  3.860062  0
C  C82  1  0.45793674  0.33770161  0.08057334  1  0.52595  0  0.081097  0.137614  0  3.860006  0
C  C83  1  0.95791140  0.66230640  0.41943216  1  0.524937  0  0.081395  0.138156  0  3.859634  0
N  N84  1  0.68913265  0.58167378  0.76596153  1  -1.276583  0  -0.330155  -0.274903  0  3.504295  0
N  N85  1  0.18912877  0.41832586  0.73403039  1  -1.276357  0  -0.330041  -0.274833  0  3.504339  0
N  N86  1  0.31086288  0.41833435  0.23402216  1  -1.276307  0  -0.330045  -0.274976  0  3.504057  0
N  N87  1  0.81085267  0.58167756  0.26597689  1  -1.276441  0  -0.33013  -0.275079  0  3.504381  0
N  N88  1  0.49629660  0.54800133  0.87250280  1  -1.235131  0  -0.32115  -0.28641  0  3.414276  0
N  N89  1  0.99628296  0.45200063  0.62749443  1  -1.23536  0  -0.320943  -0.286115  0  3.414457  0
N  N90  1  0.50371814  0.45200299  0.12749282  1  -1.235506  0  -0.320953  -0.286135  0  3.414819  0
N  N91  1  0.00369977  0.54801054  0.37251628  1  -1.234579  0  -0.321076  -0.286399  0  3.414429  0
O  O92  1  0.07776382  0.62771853  0.14350692  1  -1.253348  0  -0.595221  -0.749748  0  2.017668  0
O  O93  1  0.57774676  0.37227559  0.35649212  1  -1.253357  0  -0.595186  -0.749641  0  2.017888  0
O  O94  1  0.92224196  0.37227038  0.85649984  1  -1.25317  0  -0.595127  -0.74962  0  2.017962  0
O  O95  1  0.42222700  0.62772290  0.64349846  1  -1.25311  0  -0.595139  -0.749513  0  2.017995  0
O  O96  1  0.87317767  0.29143693  0.13487600  1  -1.153729  0  -0.320854  -0.546333  0  2.151546  0
O  O97  1  0.37316048  0.70856200  0.36513374  1  -1.153697  0  -0.320806  -0.5462  0  2.152044  0
O  O98  1  0.12686525  0.70852788  0.86514268  1  -1.153399  0  -0.320652  -0.546252  0  2.152014  0
O  O99  1  0.62681328  0.29146071  0.63486475  1  -1.15354  0  -0.320789  -0.546337  0  2.151838  0
O  O100  1  0.82477712  0.35424401  0.01227846  1  -1.160122  0  -0.331807  -0.570893  0  2.290767  0
O  O101  1  0.32474446  0.64576073  0.48772451  1  -1.160697  0  -0.331697  -0.570862  0  2.291031  0
O  O102  1  0.17528628  0.64574208  0.98774096  1  -1.160267  0  -0.331785  -0.570852  0  2.290891  0
O  O103  1  0.67523442  0.35424648  0.51226961  1  -1.160397  0  -0.331814  -0.570923  0  2.291164  0
O  O104  1  0.86268474  0.83468555  0.15140010  1  -1.192278  0  -0.327718  -0.569232  0  2.148891  0
O  O105  1  0.36263818  0.16529641  0.34858787  1  -1.192639  0  -0.327829  -0.569201  0  2.148597  0
O  O106  1  0.13730311  0.16527913  0.84859564  1  -1.192709  0  -0.327738  -0.569193  0  2.148837  0
O  O107  1  0.63728564  0.83471566  0.65140870  1  -1.178622  0  -0.327611  -0.569002  0  2.148804  0
O  O108  1  0.74018696  0.68586774  0.04943598  1  -1.145826  0  -0.330153  -0.55589  0  2.323128  0
O  O109  1  0.24013069  0.31413458  0.45055159  1  -1.145749  0  -0.330128  -0.555819  0  2.322506  0
O  O110  1  0.25988284  0.31410069  0.95053791  1  -1.146364  0  -0.330086  -0.555721  0  2.322985  0
O  O111  1  0.75982899  0.68589107  0.54945407  1  -1.146055  0  -0.330192  -0.5558  0  2.322935  0
