# generated using pymatgen
data_NdCdH7C5SN2O11
_symmetry_space_group_name_H-M   'P 1'
_cell_length_a   8.69818765
_cell_length_b   10.60436424
_cell_length_c   13.87248964
_cell_angle_alpha   89.99995757
_cell_angle_beta   101.62116347
_cell_angle_gamma   89.99999856
_symmetry_Int_Tables_number   1
_chemical_formula_structural   NdCdH7C5SN2O11
_chemical_formula_sum   'Nd4 Cd4 H28 C20 S4 N8 O44'
_cell_volume   1253.35085711
_cell_formula_units_Z   4
loop_
 _symmetry_equiv_pos_site_id
 _symmetry_equiv_pos_as_xyz
  1  'x, y, z'
loop_
 _atom_site_type_symbol
 _atom_site_label
 _atom_site_symmetry_multiplicity
 _atom_site_fract_x
 _atom_site_fract_y
 _atom_site_fract_z
 _atom_site_occupancy
 _atom_site_hle17_bader_spin_density
 _atom_site_hle17_ddec_charge
 _atom_site_hle17_ddec_spin_density
 _atom_site_hle17_ddec_sum_bond_order
 _atom_site_hle17_magmom
 _atom_site_hse06_10hf_bader_spin_density
 _atom_site_hse06_10hf_ddec_charge
 _atom_site_hse06_10hf_ddec_spin_density
 _atom_site_hse06_10hf_ddec_sum_bond_order
 _atom_site_hse06_10hf_magmom
 _atom_site_hse06_bader_spin_density
 _atom_site_hse06_ddec_charge
 _atom_site_hse06_ddec_spin_density
 _atom_site_hse06_ddec_sum_bond_order
 _atom_site_hse06_magmom
 _atom_site_pbe_bader_spin_density
 _atom_site_pbe_cm5_charge
 _atom_site_pbe_ddec_charge
 _atom_site_pbe_ddec_spin_density
 _atom_site_pbe_ddec_sum_bond_order
 _atom_site_pbe_magmom
Nd  Nd0  1  0.93406150  0.89335193  0.11114080  1  0  2.381969  0  1.595376  0  0  2.27915  0  1.953887  0  0  2.316826  0  1.911896  0  0  1.515294  2.251653  0  1.983529  0
Nd  Nd1  1  0.06593801  0.39335107  0.38885882  1  0  2.381932  0  1.595369  0  0  2.279111  0  1.95388  0  0  2.316786  0  1.911891  0  0  1.515287  2.251609  0  1.983521  0
Nd  Nd2  1  0.06593827  0.10664811  0.88885882  1  0  2.381965  0  1.595333  0  0  2.279158  0  1.953841  0  0  2.316834  0  1.91185  0  0  1.515296  2.251661  0  1.983483  0
Nd  Nd3  1  0.93406176  0.60664898  0.61114008  1  0  2.381932  0  1.595376  0  0  2.279107  0  1.953885  0  0  2.316781  0  1.911896  0  0  1.515296  2.251607  0  1.983526  0
Cd  Cd4  1  0.61814935  0.48604321  0.13422412  1  0  1.206413  0  1.649869  0  0  1.010205  0  2.098633  0  0  1.064994  0  2.046226  0  0  0.815288  0.970503  0  2.134863  0
Cd  Cd5  1  0.38185013  0.98604290  0.36577473  1  0  1.206438  0  1.649834  0  0  1.010226  0  2.098595  0  0  1.065014  0  2.046188  0  0  0.815303  0.970524  0  2.134828  0
Cd  Cd6  1  0.38185042  0.51395683  0.86577479  1  0  1.206397  0  1.649886  0  0  1.010168  0  2.098656  0  0  1.064957  0  2.04625  0  0  0.815282  0.970466  0  2.134889  0
Cd  Cd7  1  0.61814847  0.01395714  0.63422475  1  0  1.206386  0  1.649898  0  0  1.010162  0  2.09867  0  0  1.06495  0  2.046264  0  0  0.815266  0.97046  0  2.134901  0
H  H8  1  0.62557093  0.26259549  0.33615069  1  0  0.094274  0  0.954661  0  0  0.101716  0  1.020022  0  0  0.10433  0  1.016692  0  0  0.131849  0.099788  0  1.022494  0
H  H9  1  0.37442860  0.76259537  0.16384901  1  0  0.094293  0  0.954651  0  0  0.101729  0  1.020017  0  0  0.104343  0  1.016687  0  0  0.131845  0.099801  0  1.02249  0
H  H10  1  0.37443001  0.73740456  0.66384836  1  0  0.094274  0  0.954654  0  0  0.101711  0  1.020021  0  0  0.104326  0  1.01669  0  0  0.131843  0.099784  0  1.022495  0
H  H11  1  0.62557000  0.23740467  0.83615047  1  0  0.094295  0  0.954655  0  0  0.101737  0  1.020012  0  0  0.104351  0  1.016682  0  0  0.131854  0.099809  0  1.022484  0
H  H12  1  0.01041076  0.89935691  0.34252550  1  0  0.44384  0  0.847335  0  0  0.413825  0  0.907996  0  0  0.424359  0  0.89263  0  0  0.305106  0.406382  0  0.918872  0
H  H13  1  0.98959228  0.39935719  0.15747527  1  0  0.44387  0  0.847298  0  0  0.413858  0  0.907952  0  0  0.424392  0  0.892584  0  0  0.305134  0.406414  0  0.918829  0
H  H14  1  0.98959019  0.10064219  0.65747499  1  0  0.443859  0  0.847317  0  0  0.41384  0  0.907978  0  0  0.424373  0  0.892613  0  0  0.305123  0.406397  0  0.918854  0
H  H15  1  0.01040867  0.60064286  0.84252450  1  0  0.443886  0  0.847274  0  0  0.413868  0  0.907938  0  0  0.424402  0  0.892571  0  0  0.305134  0.406425  0  0.918814  0
H  H16  1  0.82476864  0.91287021  0.31709384  1  0  0.429943  0  0.832158  0  0  0.406602  0  0.895423  0  0  0.414177  0  0.884505  0  0  0.321619  0.401253  0  0.903171  0
H  H17  1  0.17523439  0.41287049  0.18290693  1  0  0.430001  0  0.832131  0  0  0.406664  0  0.895343  0  0  0.414239  0  0.884425  0  0  0.321678  0.401314  0  0.903091  0
H  H18  1  0.17523231  0.08712889  0.68290665  1  0  0.429933  0  0.832199  0  0  0.406605  0  0.895416  0  0  0.41418  0  0.884499  0  0  0.321637  0.401257  0  0.903161  0
H  H19  1  0.82476773  0.58712861  0.81709299  1  0  0.429938  0  0.832194  0  0  0.406614  0  0.895404  0  0  0.414189  0  0.884485  0  0  0.321641  0.401266  0  0.903148  0
H  H20  1  0.01576781  0.62588468  0.17460678  1  0  0.449359  0  0.819127  0  0  0.426953  0  0.874346  0  0  0.436741  0  0.859741  0  0  0.318871  0.419779  0  0.885099  0
H  H21  1  0.98423176  0.12588479  0.32539300  1  0  0.449356  0  0.819141  0  0  0.426948  0  0.874357  0  0  0.436735  0  0.859753  0  0  0.318864  0.419773  0  0.885111  0
H  H22  1  0.98423196  0.37411537  0.82539212  1  0  0.449341  0  0.819155  0  0  0.426932  0  0.87438  0  0  0.436721  0  0.859774  0  0  0.318858  0.419758  0  0.885133  0
H  H23  1  0.01577037  0.87411431  0.67460764  1  0  0.449324  0  0.819151  0  0  0.426915  0  0.874402  0  0  0.436702  0  0.859799  0  0  0.318832  0.41974  0  0.885157  0
H  H24  1  0.05554390  0.68684349  0.27822371  1  0  0.447845  0  0.85487  0  0  0.416087  0  0.919384  0  0  0.426661  0  0.903966  0  0  0.303813  0.40859  0  0.930323  0
H  H25  1  0.94445447  0.18684277  0.22177517  1  0  0.447856  0  0.854848  0  0  0.416104  0  0.919351  0  0  0.426678  0  0.903934  0  0  0.30381  0.408608  0  0.93029  0
H  H26  1  0.94445468  0.31315750  0.72177433  1  0  0.447834  0  0.854874  0  0  0.416081  0  0.91938  0  0  0.426656  0  0.903962  0  0  0.303801  0.408585  0  0.930318  0
H  H27  1  0.05554766  0.81315634  0.77822619  1  0  0.44784  0  0.85486  0  0  0.416091  0  0.91936  0  0  0.426665  0  0.903943  0  0  0.303812  0.408595  0  0.930298  0
H  H28  1  0.55430767  0.88646046  0.07020085  1  0  0.452487  0  0.830457  0  0  0.424902  0  0.888125  0  0  0.433888  0  0.875031  0  0  0.308502  0.418542  0  0.89739  0
H  H29  1  0.44569185  0.38645954  0.42980022  1  0  0.452453  0  0.830503  0  0  0.424873  0  0.888164  0  0  0.433859  0  0.87507  0  0  0.308497  0.418514  0  0.897428  0
H  H30  1  0.44569093  0.11353959  0.92979863  1  0  0.452484  0  0.830461  0  0  0.424901  0  0.888126  0  0  0.433887  0  0.875031  0  0  0.308507  0.418541  0  0.897391  0
H  H31  1  0.55430910  0.61354050  0.57020027  1  0  0.452448  0  0.83051  0  0  0.424869  0  0.88817  0  0  0.433855  0  0.875076  0  0  0.308505  0.41851  0  0.897434  0
H  H32  1  0.62123377  0.02526314  0.08246413  1  0  0.435147  0  0.855615  0  0  0.405274  0  0.91877  0  0  0.415135  0  0.904253  0  0  0.304363  0.398279  0  0.929071  0
H  H33  1  0.37876701  0.52526183  0.41753801  1  0  0.43519  0  0.855528  0  0  0.405293  0  0.918753  0  0  0.415154  0  0.904236  0  0  0.304362  0.398292  0  0.929063  0
H  H34  1  0.37876718  0.97473691  0.91753636  1  0  0.435153  0  0.855603  0  0  0.40528  0  0.918758  0  0  0.415141  0  0.904242  0  0  0.304365  0.398284  0  0.92906  0
H  H35  1  0.62123277  0.47473727  0.58246233  1  0  0.435179  0  0.855508  0  0  0.405275  0  0.918778  0  0  0.415135  0  0.904261  0  0  0.304355  0.398274  0  0.929089  0
C  C36  1  0.53002034  0.24566192  0.27391980  1  0  0.267343  0  3.678969  0  0  0.211283  0  3.955455  0  0  0.225219  0  3.968504  0  0  0.144623  0.201931  0  3.946271  0
C  C37  1  0.46998037  0.74566175  0.22608006  1  0  0.267285  0  3.679062  0  0  0.211231  0  3.955541  0  0  0.225168  0  3.96859  0  0  0.14461  0.20188  0  3.94636  0
C  C38  1  0.46997943  0.75433812  0.72607983  1  0  0.267331  0  3.679008  0  0  0.211271  0  3.955491  0  0  0.225208  0  3.96854  0  0  0.144625  0.201919  0  3.94631  0
C  C39  1  0.53001940  0.25433830  0.77391957  1  0  0.267292  0  3.678971  0  0  0.21123  0  3.955451  0  0  0.225167  0  3.968499  0  0  0.1446  0.20188  0  3.946267  0
C  C40  1  0.33202607  0.15709184  0.17711508  1  0  -0.000558  0  3.752642  0  0  -0.004856  0  4.003395  0  0  -0.007874  0  4.024409  0  0  0.077804  -0.003033  0  3.989387  0
C  C41  1  0.66797583  0.65709345  0.32288425  1  0  -0.000635  0  3.752594  0  0  -0.004948  0  4.003359  0  0  -0.007965  0  4.024377  0  0  0.077763  -0.003125  0  3.989352  0
C  C42  1  0.66797487  0.84290727  0.82288469  1  0  -0.000533  0  3.752577  0  0  -0.004853  0  4.003354  0  0  -0.007868  0  4.024371  0  0  0.077789  -0.003032  0  3.989347  0
C  C43  1  0.33202393  0.34290660  0.67711393  1  0  -0.000518  0  3.752492  0  0  -0.00486  0  4.003324  0  0  -0.007879  0  4.024341  0  0  0.077757  -0.003037  0  3.989314  0
C  C44  1  0.37493781  0.26556418  0.13052446  1  0  -0.016758  0  3.761965  0  0  -0.024103  0  4.020055  0  0  -0.025489  0  4.039937  0  0  0.074918  -0.023383  0  4.006777  0
C  C45  1  0.62506289  0.76556575  0.36947466  1  0  -0.016765  0  3.762006  0  0  -0.024121  0  4.020096  0  0  -0.025517  0  4.039989  0  0  0.074927  -0.023401  0  4.006822  0
C  C46  1  0.62506195  0.73443492  0.86947373  1  0  -0.016758  0  3.762002  0  0  -0.024122  0  4.020114  0  0  -0.025518  0  4.040006  0  0  0.074934  -0.023398  0  4.006835  0
C  C47  1  0.37493805  0.23443336  0.63052438  1  0  -0.01683  0  3.762058  0  0  -0.024169  0  4.020149  0  0  -0.02556  0  4.040037  0  0  0.074929  -0.023448  0  4.006874  0
C  C48  1  0.21451878  0.05876064  0.14802644  1  0  0.68695  0  3.893195  0  0  0.637438  0  4.188149  0  0  0.673947  0  4.175364  0  0  0.218207  0.612593  0  4.19638  0
C  C49  1  0.78548197  0.55876128  0.35197281  1  0  0.686962  0  3.893095  0  0  0.637482  0  4.188018  0  0  0.67399  0  4.175234  0  0  0.218191  0.612637  0  4.196248  0
C  C50  1  0.78548099  0.94123941  0.85197319  1  0  0.686904  0  3.893171  0  0  0.637427  0  4.188095  0  0  0.673935  0  4.17531  0  0  0.218194  0.612582  0  4.196327  0
C  C51  1  0.21451779  0.44123971  0.64802537  1  0  0.686917  0  3.893136  0  0  0.637389  0  4.188135  0  0  0.673896  0  4.175354  0  0  0.218173  0.612544  0  4.196364  0
C  C52  1  0.31607384  0.32651460  0.03402951  1  0  0.686946  0  3.909681  0  0  0.634177  0  4.207959  0  0  0.670615  0  4.196036  0  0  0.222482  0.609269  0  4.215497  0
C  C53  1  0.68392803  0.82651513  0.46596972  1  0  0.686996  0  3.909745  0  0  0.63427  0  4.207944  0  0  0.670712  0  4.19602  0  0  0.222484  0.609356  0  4.215496  0
C  C54  1  0.68392593  0.67348450  0.96596939  1  0  0.686999  0  3.909805  0  0  0.634264  0  4.208021  0  0  0.670708  0  4.196094  0  0  0.222494  0.609348  0  4.215573  0
C  C55  1  0.31607175  0.17348491  0.53402991  1  0  0.686997  0  3.90978  0  0  0.634254  0  4.208008  0  0  0.670693  0  4.196083  0  0  0.222482  0.609334  0  4.215569  0
S  S56  1  0.78886342  0.22028663  0.04242123  1  0  1.643693  0  5.75186  0  0  1.516408  0  6.299875  0  0  1.573364  0  6.260833  0  0  0.594752  1.476898  0  6.325949  0
S  S57  1  0.21113730  0.72028718  0.45757936  1  0  1.643635  0  5.751865  0  0  1.51634  0  6.299877  0  0  1.573294  0  6.260842  0  0  0.594749  1.476832  0  6.32595  0
S  S58  1  0.21113636  0.77971247  0.95757984  1  0  1.643648  0  5.751863  0  0  1.516356  0  6.299882  0  0  1.57331  0  6.260847  0  0  0.594741  1.47685  0  6.325954  0
S  S59  1  0.78886364  0.27971381  0.54242041  1  0  1.643646  0  5.751898  0  0  1.516343  0  6.299925  0  0  1.573298  0  6.260888  0  0  0.594727  1.476835  0  6.325996  0
N  N60  1  0.49996455  0.31908834  0.19342025  1  0  -0.42584  0  3.236265  0  0  -0.358086  0  3.521929  0  0  -0.379666  0  3.539104  0  0  -0.360879  -0.342573  0  3.509507  0
N  N61  1  0.50003615  0.81908997  0.30657956  1  0  -0.425801  0  3.236331  0  0  -0.358046  0  3.521987  0  0  -0.379625  0  3.539167  0  0  -0.360863  -0.342534  0  3.509568  0
N  N62  1  0.50003404  0.68091077  0.80657851  1  0  -0.425836  0  3.236293  0  0  -0.35808  0  3.521968  0  0  -0.379658  0  3.539145  0  0  -0.360885  -0.342569  0  3.509547  0
N  N63  1  0.49996363  0.18091102  0.69342078  1  0  -0.425801  0  3.236347  0  0  -0.35804  0  3.522006  0  0  -0.37962  0  3.539183  0  0  -0.360864  -0.342529  0  3.509586  0
N  N64  1  0.42989031  0.14802571  0.26815674  1  0  -0.431896  0  3.206029  0  0  -0.359288  0  3.489653  0  0  -0.3811  0  3.506025  0  0  -0.353936  -0.343667  0  3.477803  0
N  N65  1  0.57011042  0.64802553  0.23184245  1  0  -0.431871  0  3.206016  0  0  -0.359255  0  3.489636  0  0  -0.381066  0  3.506007  0  0  -0.35394  -0.343634  0  3.477787  0
N  N66  1  0.57010946  0.85197433  0.73184289  1  0  -0.431899  0  3.206  0  0  -0.359275  0  3.48961  0  0  -0.381088  0  3.505984  0  0  -0.353934  -0.343651  0  3.47776  0
N  N67  1  0.42988818  0.35197452  0.76815703  1  0  -0.431891  0  3.20597  0  0  -0.35926  0  3.489596  0  0  -0.381071  0  3.505969  0  0  -0.353915  -0.343638  0  3.477745  0
O  O68  1  0.18648534  0.98185885  0.21387899  1  0  -0.697704  0  2.029673  0  0  -0.634309  0  2.284322  0  0  -0.66103  0  2.271669  0  0  -0.362169  -0.615867  0  2.292706  0
O  O69  1  0.81351532  0.48185995  0.28612000  1  0  -0.697632  0  2.029524  0  0  -0.634288  0  2.284213  0  0  -0.661008  0  2.271562  0  0  -0.362127  -0.615843  0  2.292595  0
O  O70  1  0.81351443  0.01814025  0.78612063  1  0  -0.69762  0  2.029576  0  0  -0.634286  0  2.28428  0  0  -0.661009  0  2.271629  0  0  -0.362152  -0.615843  0  2.292663  0
O  O71  1  0.18648444  0.51814009  0.71387818  1  0  -0.69768  0  2.029648  0  0  -0.634261  0  2.28428  0  0  -0.660983  0  2.271629  0  0  -0.362129  -0.61582  0  2.292664  0
O  O72  1  0.13853824  0.04645254  0.05952699  1  0  -0.820163  0  2.225843  0  0  -0.774872  0  2.489699  0  0  -0.799027  0  2.477698  0  0  -0.440061  -0.757902  0  2.497273  0
O  O73  1  0.86146251  0.54645309  0.44047226  1  0  -0.820156  0  2.22583  0  0  -0.774861  0  2.489666  0  0  -0.799016  0  2.477665  0  0  -0.440056  -0.757889  0  2.497233  0
O  O74  1  0.86146153  0.95354750  0.94047263  1  0  -0.820151  0  2.225849  0  0  -0.77485  0  2.489667  0  0  -0.799006  0  2.47767  0  0  -0.440048  -0.757879  0  2.49724  0
O  O75  1  0.13853843  0.45354884  0.55952679  1  0  -0.820097  0  2.225838  0  0  -0.774793  0  2.489694  0  0  -0.798946  0  2.477693  0  0  -0.440035  -0.757822  0  2.497262  0
O  O76  1  0.20630533  0.27953915  0.97087329  1  0  -0.725513  0  2.07578  0  0  -0.67797  0  2.332509  0  0  -0.701458  0  2.318494  0  0  -0.414779  -0.661547  0  2.341672  0
O  O77  1  0.79369349  0.77954104  0.52912537  1  0  -0.725521  0  2.075889  0  0  -0.677994  0  2.332607  0  0  -0.701475  0  2.31857  0  0  -0.414771  -0.661571  0  2.341775  0
O  O78  1  0.79369444  0.72045995  0.02912633  1  0  -0.725546  0  2.075841  0  0  -0.67802  0  2.332566  0  0  -0.701507  0  2.318544  0  0  -0.4148  -0.661596  0  2.341735  0
O  O79  1  0.20630395  0.22045806  0.47087541  1  0  -0.725531  0  2.075886  0  0  -0.677999  0  2.332605  0  0  -0.701487  0  2.318588  0  0  -0.414784  -0.661573  0  2.341776  0
O  O80  1  0.38247398  0.43083675  0.01898067  1  0  -0.656628  0  2.099735  0  0  -0.571756  0  2.364406  0  0  -0.603373  0  2.349204  0  0  -0.323052  -0.549638  0  2.374279  0
O  O81  1  0.61752668  0.93083727  0.48101835  1  0  -0.656648  0  2.099686  0  0  -0.571802  0  2.364361  0  0  -0.603414  0  2.349141  0  0  -0.323053  -0.549679  0  2.374232  0
O  O82  1  0.61752579  0.56916235  0.98101896  1  0  -0.656647  0  2.099809  0  0  -0.571787  0  2.364467  0  0  -0.603403  0  2.349256  0  0  -0.323034  -0.549664  0  2.374341  0
O  O83  1  0.38247426  0.06916278  0.51898141  1  0  -0.65665  0  2.099726  0  0  -0.57179  0  2.364393  0  0  -0.603406  0  2.349184  0  0  -0.323053  -0.549667  0  2.374271  0
O  O84  1  0.62094076  0.18612996  0.01464835  1  0  -0.743219  0  1.939464  0  0  -0.682698  0  2.180254  0  0  -0.705777  0  2.164574  0  0  -0.341814  -0.666451  0  2.190698  0
O  O85  1  0.37905997  0.68613047  0.48535154  1  0  -0.743229  0  1.939459  0  0  -0.682712  0  2.180276  0  0  -0.705791  0  2.164599  0  0  -0.341829  -0.666463  0  2.190719  0
O  O86  1  0.37906019  0.81387009  0.98535142  1  0  -0.743234  0  1.939437  0  0  -0.68271  0  2.180228  0  0  -0.705791  0  2.164553  0  0  -0.341828  -0.666463  0  2.19067  0
O  O87  1  0.62093980  0.31386957  0.51464809  1  0  -0.743238  0  1.939437  0  0  -0.682726  0  2.180268  0  0  -0.705801  0  2.164588  0  0  -0.341836  -0.666476  0  2.190711  0
O  O88  1  0.81110048  0.34625927  0.09199766  1  0  -0.746476  0  1.983682  0  0  -0.670419  0  2.241466  0  0  -0.695503  0  2.220404  0  0  -0.349422  -0.652778  0  2.255754  0
O  O89  1  0.18890022  0.84625987  0.40800285  1  0  -0.746465  0  1.983666  0  0  -0.6704  0  2.241453  0  0  -0.695487  0  2.220395  0  0  -0.349417  -0.652761  0  2.255733  0
O  O90  1  0.18889930  0.65373983  0.90800268  1  0  -0.746455  0  1.983654  0  0  -0.670383  0  2.241431  0  0  -0.695466  0  2.220372  0  0  -0.34941  -0.652741  0  2.255707  0
O  O91  1  0.81109955  0.15374018  0.59199677  1  0  -0.746514  0  1.983715  0  0  -0.670394  0  2.24145  0  0  -0.69548  0  2.220394  0  0  -0.349408  -0.652753  0  2.255728  0
O  O92  1  0.86959051  0.12452979  0.11622284  1  0  -0.847315  0  2.073125  0  0  -0.781914  0  2.328536  0  0  -0.804431  0  2.310712  0  0  -0.411417  -0.765954  0  2.340465  0
O  O93  1  0.13041023  0.62452947  0.38377780  1  0  -0.847302  0  2.073171  0  0  -0.78187  0  2.328555  0  0  -0.804386  0  2.310734  0  0  -0.411393  -0.765904  0  2.340474  0
O  O94  1  0.13040927  0.87547025  0.88377822  1  0  -0.847293  0  2.073133  0  0  -0.78188  0  2.328532  0  0  -0.804398  0  2.31071  0  0  -0.41139  -0.765921  0  2.34046  0
O  O95  1  0.86959072  0.37547057  0.61622197  1  0  -0.847287  0  2.073171  0  0  -0.781888  0  2.328585  0  0  -0.804407  0  2.310765  0  0  -0.411413  -0.765923  0  2.340504  0
O  O96  1  0.86339868  0.22254280  0.95535923  1  0  -0.805865  0  2.012151  0  0  -0.76074  0  2.285357  0  0  -0.781287  0  2.26521  0  0  -0.414028  -0.746137  0  2.298954  0
O  O97  1  0.13660134  0.72254470  0.54464105  1  0  -0.805833  0  2.012157  0  0  -0.76071  0  2.285371  0  0  -0.781254  0  2.265222  0  0  -0.414032  -0.746105  0  2.298968  0
O  O98  1  0.13660227  0.77745535  0.04464126  1  0  -0.805861  0  2.012236  0  0  -0.760739  0  2.285451  0  0  -0.781282  0  2.265302  0  0  -0.414029  -0.746136  0  2.299048  0
O  O99  1  0.86339843  0.27745723  0.45535857  1  0  -0.805809  0  2.012209  0  0  -0.760692  0  2.285445  0  0  -0.781236  0  2.265295  0  0  -0.413991  -0.746089  0  2.299043  0
O  O100  1  0.92030671  0.93870110  0.29583236  1  0  -0.86937  0  1.824532  0  0  -0.81929  0  1.998135  0  0  -0.836813  0  1.968835  0  0  -0.593109  -0.806828  0  2.01879  0
O  O101  1  0.07969514  0.43870041  0.20416824  1  0  -0.869462  0  1.824496  0  0  -0.819381  0  1.998049  0  0  -0.836909  0  1.968758  0  0  -0.593195  -0.806919  0  2.018706  0
O  O102  1  0.07969424  0.06129800  0.70416813  1  0  -0.869377  0  1.824567  0  0  -0.819303  0  1.998178  0  0  -0.836826  0  1.968876  0  0  -0.593142  -0.806842  0  2.018833  0
O  O103  1  0.92030581  0.56129869  0.79583152  1  0  -0.869414  0  1.82452  0  0  -0.819342  0  1.9981  0  0  -0.836872  0  1.968809  0  0  -0.593155  -0.80688  0  2.018753  0
O  O104  1  0.00256123  0.70471730  0.20870375  1  0  -0.935687  0  1.874359  0  0  -0.900049  0  2.079829  0  0  -0.916679  0  2.046772  0  0  -0.663763  -0.888051  0  2.103159  0
O  O105  1  0.99743715  0.20471745  0.29129584  1  0  -0.935687  0  1.874344  0  0  -0.900038  0  2.079782  0  0  -0.916673  0  2.046736  0  0  -0.663746  -0.888038  0  2.10311  0
O  O106  1  0.99743736  0.29528180  0.79129501  1  0  -0.935666  0  1.87438  0  0  -0.900029  0  2.079832  0  0  -0.916653  0  2.046761  0  0  -0.663743  -0.888031  0  2.10316  0
O  O107  1  0.00256498  0.79528165  0.70870480  1  0  -0.93564  0  1.874343  0  0  -0.900001  0  2.07982  0  0  -0.916627  0  2.046755  0  0  -0.663714  -0.888001  0  2.103147  0
O  O108  1  0.64393309  0.93730083  0.10386979  1  0  -0.903232  0  1.813122  0  0  -0.863687  0  1.987182  0  0  -0.880764  0  1.958915  0  0  -0.629081  -0.851671  0  2.007039  0
O  O109  1  0.35606759  0.43729995  0.39613139  1  0  -0.90323  0  1.81307  0  0  -0.863661  0  1.987107  0  0  -0.880736  0  1.958841  0  0  -0.629069  -0.851643  0  2.006968  0
O  O110  1  0.35606786  0.06269922  0.89612998  1  0  -0.903227  0  1.813106  0  0  -0.863694  0  1.98718  0  0  -0.88077  0  1.958915  0  0  -0.629084  -0.851678  0  2.007039  0
O  O111  1  0.64393218  0.56269916  0.60386823  1  0  -0.903216  0  1.813062  0  0  -0.86365  0  1.987133  0  0  -0.880727  0  1.958869  0  0  -0.629073  -0.851632  0  2.006994  0
