# generated using pymatgen
data_MoH9C13SN(O2F3)2
_symmetry_space_group_name_H-M   'P 1'
_cell_length_a   13.19904852
_cell_length_b   13.19539949
_cell_length_c   14.81636617
_cell_angle_alpha   100.37969166
_cell_angle_beta   105.36057075
_cell_angle_gamma   120.05062650
_symmetry_Int_Tables_number   1
_chemical_formula_structural   MoH9C13SN(O2F3)2
_chemical_formula_sum   'Mo4 H36 C52 S4 N4 O16 F24'
_cell_volume   1996.87075141
_cell_formula_units_Z   4
loop_
 _symmetry_equiv_pos_site_id
 _symmetry_equiv_pos_as_xyz
  1  'x, y, z'
loop_
 _atom_site_type_symbol
 _atom_site_label
 _atom_site_symmetry_multiplicity
 _atom_site_fract_x
 _atom_site_fract_y
 _atom_site_fract_z
 _atom_site_occupancy
 _atom_site_hle17_bader_spin_density
 _atom_site_hle17_ddec_charge
 _atom_site_hle17_ddec_spin_density
 _atom_site_hle17_ddec_sum_bond_order
 _atom_site_hle17_magmom
 _atom_site_hse06_10hf_bader_spin_density
 _atom_site_hse06_10hf_ddec_charge
 _atom_site_hse06_10hf_ddec_spin_density
 _atom_site_hse06_10hf_ddec_sum_bond_order
 _atom_site_hse06_10hf_magmom
 _atom_site_hse06_bader_spin_density
 _atom_site_hse06_ddec_charge
 _atom_site_hse06_ddec_spin_density
 _atom_site_hse06_ddec_sum_bond_order
 _atom_site_hse06_magmom
 _atom_site_pbe_bader_spin_density
 _atom_site_pbe_cm5_charge
 _atom_site_pbe_ddec_charge
 _atom_site_pbe_ddec_spin_density
 _atom_site_pbe_ddec_sum_bond_order
 _atom_site_pbe_magmom
Mo  Mo0  1  0.02444910  0.57723582  0.47459153  1  0  0.987236  0  3.506331  0  0  0.91346  0  4.104828  0  0  0.945448  0  4.090947  0  0  0.828929  0.890892  0  4.114928  0
Mo  Mo1  1  0.60262155  0.54978238  0.02537015  1  0  0.985908  0  3.510096  0  0  0.913033  0  4.107165  0  0  0.94501  0  4.093303  0  0  0.82803  0.890542  0  4.117088  0
Mo  Mo2  1  0.97552039  0.42274715  0.52538876  1  0  0.986884  0  3.506565  0  0  0.913426  0  4.104992  0  0  0.945416  0  4.091109  0  0  0.828876  0.890919  0  4.114881  0
Mo  Mo3  1  0.39737433  0.45022151  0.97463522  1  0  0.985722  0  3.509794  0  0  0.912958  0  4.106993  0  0  0.944942  0  4.093128  0  0  0.828058  0.890436  0  4.117026  0
H  H4  1  0.39361107  0.25117822  0.45948333  1  0  0.123798  0  0.944374  0  0  0.142291  0  1.006388  0  0  0.144563  0  1.004509  0  0  0.087512  0.140576  0  1.007815  0
H  H5  1  0.29143534  0.93389749  0.04034135  1  0  0.122552  0  0.945625  0  0  0.140907  0  1.008339  0  0  0.143167  0  1.006456  0  0  0.087007  0.139232  0  1.009734  0
H  H6  1  0.60638684  0.74882372  0.54051344  1  0  0.123773  0  0.944371  0  0  0.142266  0  1.006392  0  0  0.144539  0  1.004508  0  0  0.087494  0.140552  0  1.007815  0
H  H7  1  0.70856859  0.06611202  0.95965871  1  0  0.122286  0  0.946508  0  0  0.140905  0  1.008386  0  0  0.143162  0  1.006512  0  0  0.087023  0.139236  0  1.009758  0
H  H8  1  0.23417923  0.11172590  0.39360643  1  0  0.113805  0  0.94015  0  0  0.136167  0  0.997116  0  0  0.136765  0  0.997981  0  0  0.092835  0.135739  0  0.9965  0
H  H9  1  0.21790733  0.84027571  0.10617583  1  0  0.114577  0  0.937479  0  0  0.136807  0  0.995213  0  0  0.137406  0  0.99607  0  0  0.093237  0.136367  0  0.994623  0
H  H10  1  0.76582242  0.88827036  0.60638699  1  0  0.11381  0  0.940165  0  0  0.136184  0  0.997113  0  0  0.136781  0  0.997976  0  0  0.092835  0.135754  0  0.996496  0
H  H11  1  0.78210090  0.15972906  0.89382115  1  0  0.114354  0  0.938128  0  0  0.136758  0  0.995262  0  0  0.137358  0  0.996119  0  0  0.093199  0.136322  0  0.994668  0
H  H12  1  0.31363669  0.19675873  0.32649644  1  0  0.120622  0  0.964599  0  0  0.135867  0  1.035022  0  0  0.137295  0  1.035502  0  0  0.087415  0.134816  0  1.034747  0
H  H13  1  0.37013860  0.98690265  0.17333799  1  0  0.122183  0  0.963488  0  0  0.13736  0  1.034281  0  0  0.138766  0  1.034791  0  0  0.088129  0.136303  0  1.034001  0
H  H14  1  0.68636316  0.80323849  0.67349872  1  0  0.120543  0  0.964551  0  0  0.135768  0  1.035017  0  0  0.137184  0  1.035505  0  0  0.087358  0.134718  0  1.034735  0
H  H15  1  0.62987222  0.01310121  0.82666217  1  0  0.121779  0  0.964576  0  0  0.137411  0  1.034169  0  0  0.138809  0  1.034691  0  0  0.088142  0.136356  0  1.03388  0
H  H16  1  0.28933161  0.72180489  0.33678662  1  0  0.107929  0  0.967458  0  0  0.123805  0  1.038623  0  0  0.12517  0  1.038489  0  0  0.083941  0.122795  0  1.038763  0
H  H17  1  0.88479176  0.95194514  0.16270724  1  0  0.107434  0  0.969055  0  0  0.12328  0  1.040234  0  0  0.124688  0  1.040078  0  0  0.083743  0.122249  0  1.040383  0
H  H18  1  0.71067606  0.27819894  0.66320941  1  0  0.107917  0  0.967336  0  0  0.123824  0  1.038511  0  0  0.12519  0  1.038376  0  0  0.083959  0.122808  0  1.038659  0
H  H19  1  0.11521193  0.04804934  0.83729921  1  0  0.107439  0  0.968964  0  0  0.123293  0  1.040151  0  0  0.124702  0  1.039996  0  0  0.083695  0.122263  0  1.0403  0
H  H20  1  0.42004679  0.76687107  0.30264529  1  0  0.112701  0  0.944278  0  0  0.136027  0  0.999883  0  0  0.138156  0  0.998655  0  0  0.091235  0.134407  0  1.000882  0
H  H21  1  0.96377944  0.11684646  0.19693020  1  0  0.11212  0  0.94456  0  0  0.135405  0  1.000089  0  0  0.13749  0  0.998924  0  0  0.09136  0.133788  0  1.001078  0
H  H22  1  0.57996278  0.23313464  0.69735149  1  0  0.112461  0  0.944541  0  0  0.135889  0  0.999876  0  0  0.138018  0  0.998647  0  0  0.091188  0.13427  0  1.000873  0
H  H23  1  0.03622773  0.88314992  0.80307873  1  0  0.112035  0  0.944462  0  0  0.135316  0  1.000013  0  0  0.137401  0  0.99885  0  0  0.091304  0.133699  0  1.001002  0
H  H24  1  0.27475921  0.73269975  0.21705983  1  0  0.107544  0  0.936859  0  0  0.129169  0  0.995705  0  0  0.130197  0  0.995663  0  0  0.089273  0.128396  0  0.995774  0
H  H25  1  0.01520291  0.05713750  0.28252260  1  0  0.107784  0  0.9369  0  0  0.129477  0  0.995289  0  0  0.130499  0  0.995252  0  0  0.089417  0.128722  0  0.995329  0
H  H26  1  0.72524902  0.26730500  0.78293445  1  0  0.107236  0  0.937506  0  0  0.129099  0  0.995751  0  0  0.130123  0  0.995714  0  0  0.08922  0.128325  0  0.995822  0
H  H27  1  0.98480102  0.94285605  0.71748512  1  0  0.107735  0  0.936952  0  0  0.129403  0  0.995373  0  0  0.130425  0  0.995337  0  0  0.089378  0.128656  0  0.995405  0
H  H28  1  0.61430390  0.92056210  0.41766323  1  0  0.113692  0  0.945762  0  0  0.13634  0  1.00211  0  0  0.137028  0  1.002868  0  0  0.092753  0.135797  0  1.001625  0
H  H29  1  0.00305523  0.19666980  0.08238907  1  0  0.113724  0  0.944155  0  0  0.136336  0  1.0007  0  0  0.137053  0  1.001411  0  0  0.092817  0.135787  0  1.00022  0
H  H30  1  0.38570734  0.07944643  0.58233167  1  0  0.113503  0  0.945871  0  0  0.136226  0  1.002152  0  0  0.136916  0  1.002907  0  0  0.092701  0.135681  0  1.00167  0
H  H31  1  0.99694649  0.80333607  0.91762812  1  0  0.113814  0  0.944204  0  0  0.136443  0  1.000686  0  0  0.137162  0  1.001395  0  0  0.092817  0.135897  0  1.000205  0
H  H32  1  0.71714189  0.08715980  0.47849457  1  0  0.105262  0  0.968206  0  0  0.125106  0  1.033515  0  0  0.125322  0  1.034622  0  0  0.086815  0.124972  0  1.032697  0
H  H33  1  0.10879698  0.23876517  0.02158127  1  0  0.104438  0  0.968164  0  0  0.124809  0  1.03291  0  0  0.125002  0  1.03404  0  0  0.086758  0.12469  0  1.032081  0
H  H34  1  0.28286541  0.91284872  0.52149939  1  0  0.105233  0  0.968172  0  0  0.125067  0  1.033504  0  0  0.125282  0  1.034611  0  0  0.086794  0.12493  0  1.032687  0
H  H35  1  0.89120552  0.76124066  0.97843071  1  0  0.104442  0  0.968232  0  0  0.124827  0  1.032962  0  0  0.12502  0  1.034092  0  0  0.0868  0.124707  0  1.032133  0
H  H36  1  0.66716330  0.01766122  0.34757684  1  0  0.120539  0  0.955062  0  0  0.138872  0  1.019034  0  0  0.140825  0  1.017322  0  0  0.085245  0.137419  0  1.020306  0
H  H37  1  0.17024544  0.31955414  0.15254716  1  0  0.120845  0  0.953478  0  0  0.139395  0  1.017462  0  0  0.141377  0  1.015718  0  0  0.085245  0.137897  0  1.018802  0
H  H38  1  0.33284748  0.98234919  0.65241757  1  0  0.120401  0  0.954998  0  0  0.13877  0  1.018924  0  0  0.140722  0  1.017213  0  0  0.085225  0.137317  0  1.020193  0
H  H39  1  0.82976136  0.68044700  0.84746782  1  0  0.120819  0  0.953309  0  0  0.139354  0  1.017322  0  0  0.141342  0  1.015576  0  0  0.085221  0.137853  0  1.018666  0
C  C40  1  0.37827544  0.08813180  0.37773298  1  0  0.049689  0  3.71009  0  0  0.059619  0  3.990044  0  0  0.063277  0  4.013248  0  0  -0.009165  0.057333  0  3.974037  0
C  C41  1  0.21032986  0.00037935  0.12213291  1  0  0.04654  0  3.712933  0  0  0.056359  0  3.993747  0  0  0.060039  0  4.016877  0  0  -0.011121  0.054076  0  3.977768  0
C  C42  1  0.62172987  0.91187202  0.62226181  1  0  0.049621  0  3.70996  0  0  0.059613  0  3.98996  0  0  0.063269  0  4.013162  0  0  -0.009208  0.057324  0  3.973956  0
C  C43  1  0.78967388  0.99962452  0.87787029  1  0  0.046247  0  3.713122  0  0  0.05616  0  3.993931  0  0  0.059842  0  4.017065  0  0  -0.011233  0.053877  0  3.977956  0
C  C44  1  0.31033571  0.95760554  0.33300649  1  0  -0.090038  0  3.820835  0  0  -0.087354  0  4.069216  0  0  -0.095261  0  4.097816  0  0  -0.031257  -0.081932  0  4.049693  0
C  C45  1  0.12446941  0.97706646  0.16672625  1  0  -0.087789  0  3.822197  0  0  -0.086003  0  4.07119  0  0  -0.093857  0  4.099856  0  0  -0.031786  -0.080628  0  4.051635  0
C  C46  1  0.68967039  0.04239831  0.66699254  1  0  -0.089858  0  3.820643  0  0  -0.087327  0  4.069243  0  0  -0.095235  0  4.09784  0  0  -0.031208  -0.081907  0  4.049722  0
C  C47  1  0.87553494  0.02293177  0.83327689  1  0  -0.087498  0  3.822166  0  0  -0.085812  0  4.071313  0  0  -0.093658  0  4.099971  0  0  -0.031745  -0.080442  0  4.051768  0
C  C48  1  0.39162640  0.91337231  0.34062346  1  0  0.025245  0  3.775554  0  0  0.033937  0  4.034241  0  0  0.032767  0  4.061133  0  0  -0.032834  0.034684  0  4.015928  0
C  C49  1  0.07265965  0.05076757  0.15918054  1  0  0.022897  0  3.775804  0  0  0.032263  0  4.033049  0  0  0.031085  0  4.059931  0  0  -0.033159  0.033021  0  4.014747  0
C  C50  1  0.60838183  0.08663245  0.65937150  1  0  0.02499  0  3.775962  0  0  0.03398  0  4.034247  0  0  0.032805  0  4.061141  0  0  -0.032777  0.034725  0  4.015932  0
C  C51  1  0.92734044  0.94922877  0.84082263  1  0  0.022711  0  3.775955  0  0  0.032149  0  4.033137  0  0  0.030971  0  4.060016  0  0  -0.033194  0.032908  0  4.014838  0
C  C52  1  0.52031432  0.01217528  0.38882044  1  0  0.012515  0  3.702732  0  0  0.024901  0  3.982234  0  0  0.024885  0  4.006443  0  0  -0.021281  0.024892  0  3.965814  0
C  C53  1  0.12333120  0.13136425  0.11109179  1  0  0.010883  0  3.703093  0  0  0.023811  0  3.98181  0  0  0.023765  0  4.006061  0  0  -0.021529  0.023818  0  3.965359  0
C  C54  1  0.47969220  0.98783327  0.61117739  1  0  0.012495  0  3.70274  0  0  0.024845  0  3.982182  0  0  0.024836  0  4.006383  0  0  -0.021312  0.024838  0  3.965757  0
C  C55  1  0.87666930  0.86863683  0.88891424  1  0  0.010915  0  3.703017  0  0  0.023811  0  3.981764  0  0  0.023765  0  4.006017  0  0  -0.021502  0.023817  0  3.965315  0
C  C56  1  0.16956302  0.87286526  0.28543339  1  0  0.014787  0  3.77804  0  0  0.020958  0  4.01437  0  0  0.024723  0  4.028852  0  0  0.031384  0.018223  0  4.004898  0
C  C57  1  0.08732826  0.88388123  0.21425242  1  0  0.011586  0  3.779711  0  0  0.019003  0  4.015315  0  0  0.02249  0  4.030051  0  0  0.030776  0.016438  0  4.005723  0
C  C58  1  0.83044132  0.12713296  0.71456907  1  0  0.014746  0  3.777851  0  0  0.020958  0  4.014264  0  0  0.024733  0  4.028738  0  0  0.031349  0.018226  0  4.004804  0
C  C59  1  0.91267821  0.11611794  0.78575070  1  0  0.011432  0  3.779976  0  0  0.018896  0  4.015594  0  0  0.022366  0  4.030361  0  0  0.030753  0.016326  0  4.006006  0
C  C60  1  0.11324863  0.77569710  0.32282827  1  0  0.294227  0  3.729816  0  0  0.278607  0  3.999005  0  0  0.29028  0  4.012204  0  0  0.210491  0.270475  0  3.990597  0
C  C61  1  0.95273208  0.79024645  0.17695923  1  0  0.295952  0  3.730605  0  0  0.280003  0  3.99959  0  0  0.291734  0  4.012856  0  0  0.211341  0.271817  0  3.991171  0
C  C62  1  0.88675696  0.22429920  0.67717014  1  0  0.294246  0  3.729958  0  0  0.278617  0  3.999174  0  0  0.290289  0  4.01237  0  0  0.210506  0.270471  0  3.99078  0
C  C63  1  0.04727115  0.20974985  0.82303794  1  0  0.295988  0  3.730846  0  0  0.280027  0  3.999836  0  0  0.291759  0  4.013109  0  0  0.211401  0.271851  0  3.991419  0
C  C64  1  0.32795102  0.16625712  0.39021047  1  0  -0.33396  0  3.763745  0  0  -0.415611  0  4.012385  0  0  -0.418341  0  4.022302  0  0  -0.244581  -0.41343  0  4.005392  0
C  C65  1  0.27588025  0.93749977  0.10962232  1  0  -0.333169  0  3.761567  0  0  -0.41582  0  4.011934  0  0  -0.418494  0  4.021847  0  0  -0.244834  -0.413667  0  4.004893  0
C  C66  1  0.67205073  0.83374199  0.60978544  1  0  -0.333838  0  3.763576  0  0  -0.415486  0  4.012192  0  0  -0.41821  0  4.022135  0  0  -0.244493  -0.413301  0  4.005201  0
C  C67  1  0.72412640  0.06250503  0.89037766  1  0  -0.334075  0  3.763679  0  0  -0.415775  0  4.012042  0  0  -0.418427  0  4.021928  0  0  -0.244794  -0.413621  0  4.005001  0
C  C68  1  0.34143663  0.77705689  0.29736935  1  0  -0.324848  0  3.760114  0  0  -0.405241  0  4.004011  0  0  -0.407333  0  4.014317  0  0  -0.244774  -0.403509  0  3.996893  0
C  C69  1  0.97940829  0.04359764  0.20223537  1  0  -0.32432  0  3.761478  0  0  -0.403961  0  4.004217  0  0  -0.406015  0  4.01443  0  0  -0.245012  -0.402239  0  3.997157  0
C  C70  1  0.65857136  0.22294883  0.70262840  1  0  -0.325003  0  3.760873  0  0  -0.405034  0  4.003816  0  0  -0.407124  0  4.014128  0  0  -0.244692  -0.403295  0  3.996705  0
C  C71  1  0.02059438  0.95639780  0.79777234  1  0  -0.324166  0  3.761301  0  0  -0.403808  0  4.004055  0  0  -0.405863  0  4.01427  0  0  -0.244885  -0.402089  0  3.99697  0
C  C72  1  0.63555557  0.00903580  0.40896330  1  0  -0.31788  0  3.760008  0  0  -0.397707  0  4.001042  0  0  -0.399303  0  4.01192  0  0  -0.244861  -0.396315  0  3.993407  0
C  C73  1  0.10019636  0.22660550  0.09105224  1  0  -0.316359  0  3.756233  0  0  -0.397013  0  3.997234  0  0  -0.39864  0  4.008098  0  0  -0.244357  -0.3956  0  3.989632  0
C  C74  1  0.36445095  0.99097273  0.59103183  1  0  -0.317609  0  3.759792  0  0  -0.397412  0  4.000803  0  0  -0.39901  0  4.011683  0  0  -0.244776  -0.396022  0  3.993166  0
C  C75  1  0.89980818  0.77339848  0.90896398  1  0  -0.316417  0  3.756028  0  0  -0.397074  0  3.996998  0  0  -0.398708  0  4.007857  0  0  -0.244382  -0.395662  0  3.989402  0
C  C76  1  0.19462050  0.66598615  0.68312911  1  0  0.460159  0  3.887796  0  0  0.404294  0  4.198969  0  0  0.435078  0  4.193193  0  0  0.196123  0.383658  0  4.202625  0
C  C77  1  0.48275972  0.51196281  0.81699975  1  0  0.457295  0  3.882246  0  0  0.401887  0  4.193729  0  0  0.432605  0  4.18798  0  0  0.194939  0.381313  0  4.197339  0
C  C78  1  0.80534611  0.33398931  0.31685338  1  0  0.460176  0  3.887298  0  0  0.404178  0  4.198706  0  0  0.434955  0  4.192932  0  0  0.195989  0.383567  0  4.202349  0
C  C79  1  0.51724824  0.48804958  0.18300712  1  0  0.457011  0  3.882582  0  0  0.401604  0  4.193812  0  0  0.432311  0  4.188075  0  0  0.194796  0.381036  0  4.197415  0
C  C80  1  0.30135651  0.75752764  0.78954099  1  0  0.69208  0  3.687405  0  0  0.621889  0  4.027708  0  0  0.649893  0  3.999379  0  0  0.302144  0.601582  0  4.048447  0
C  C81  1  0.46800602  0.51229078  0.71062420  1  0  0.699397  0  3.675655  0  0  0.627692  0  4.018212  0  0  0.655822  0  3.989668  0  0  0.303536  0.607261  0  4.039104  0
C  C82  1  0.69861769  0.24243934  0.21044201  1  0  0.692204  0  3.687063  0  0  0.622054  0  4.027325  0  0  0.650081  0  3.99898  0  0  0.302012  0.601667  0  4.048156  0
C  C83  1  0.53201583  0.48772920  0.28938987  1  0  0.699346  0  3.676197  0  0  0.628173  0  4.017819  0  0  0.65633  0  3.989258  0  0  0.303789  0.607729  0  4.038712  0
C  C84  1  0.83869743  0.53423669  0.55816412  1  0  0.457612  0  3.885468  0  0  0.401976  0  4.197968  0  0  0.432766  0  4.192105  0  0  0.194683  0.381369  0  4.201652  0
C  C85  1  0.47572573  0.28027132  0.94164251  1  0  0.459021  0  3.885141  0  0  0.403838  0  4.197177  0  0  0.434655  0  4.191153  0  0  0.195836  0.38326  0  4.200863  0
C  C86  1  0.16129720  0.46576905  0.44183719  1  0  0.457686  0  3.885181  0  0  0.401986  0  4.197607  0  0  0.432769  0  4.191739  0  0  0.19459  0.381382  0  4.201296  0
C  C87  1  0.52427866  0.71973636  0.05836413  1  0  0.460289  0  3.882294  0  0  0.403936  0  4.197014  0  0  0.43478  0  4.190943  0  0  0.195906  0.383359  0  4.200704  0
C  C88  1  0.74632994  0.55062717  0.59306472  1  0  0.690784  0  3.684008  0  0  0.617622  0  4.028551  0  0  0.645371  0  4.001074  0  0  0.304827  0.597495  0  4.048754  0
C  C89  1  0.45695438  0.15281647  0.90674038  1  0  0.69685  0  3.674373  0  0  0.622913  0  4.020388  0  0  0.651033  0  3.992123  0  0  0.306451  0.602659  0  4.0408  0
C  C90  1  0.25366941  0.44937865  0.40694583  1  0  0.690609  0  3.683959  0  0  0.61771  0  4.028008  0  0  0.645483  0  4.000473  0  0  0.304808  0.597558  0  4.04827  0
C  C91  1  0.54304788  0.84719021  0.09326019  1  0  0.69945  0  3.669785  0  0  0.62278  0  4.02062  0  0  0.650895  0  3.992336  0  0  0.306419  0.602526  0  4.041034  0
S  S92  1  0.54033828  0.15546637  0.42649890  1  0  0.101712  0  2.57062  0  0  0.102329  0  2.891396  0  0  0.09838  0  2.899353  0  0  0.088304  0.104722  0  2.886188  0
S  S93  1  0.22895703  0.11375337  0.07346755  1  0  0.104945  0  2.57274  0  0  0.105234  0  2.893704  0  0  0.101326  0  2.901611  0  0  0.089916  0.107624  0  2.888498  0
S  S94  1  0.45966680  0.84453840  0.57349666  1  0  0.101697  0  2.57061  0  0  0.102323  0  2.891407  0  0  0.098373  0  2.899362  0  0  0.088315  0.104719  0  2.886193  0
S  S95  1  0.77104403  0.88624864  0.92653809  1  0  0.10506  0  2.57268  0  0  0.105329  0  2.893668  0  0  0.101415  0  2.901578  0  0  0.090005  0.107719  0  2.888462  0
N  N96  1  0.07145623  0.70471171  0.36189840  1  0  -0.371961  0  2.698804  0  0  -0.342038  0  2.945648  0  0  -0.348622  0  2.949973  0  0  -0.294509  -0.33811  0  2.943475  0
N  N97  1  0.84261818  0.70954398  0.13803786  1  0  -0.372518  0  2.701685  0  0  -0.342749  0  2.948993  0  0  -0.34932  0  2.953274  0  0  -0.295117  -0.338828  0  2.946848  0
N  N98  1  0.92852764  0.29527037  0.63808789  1  0  -0.371987  0  2.69912  0  0  -0.34206  0  2.945985  0  0  -0.348645  0  2.950312  0  0  -0.294509  -0.3381  0  2.94378  0
N  N99  1  0.15738112  0.29045231  0.86195905  1  0  -0.372552  0  2.701771  0  0  -0.342776  0  2.949067  0  0  -0.349346  0  2.953347  0  0  -0.29518  -0.338866  0  2.946943  0
O  O100  1  0.17683213  0.71115684  0.61587131  1  0  -0.500071  0  2.184926  0  0  -0.464958  0  2.452639  0  0  -0.489885  0  2.450525  0  0  -0.315041  -0.447866  0  2.453772  0
O  O101  1  0.59516795  0.56126475  0.88422981  1  0  -0.498727  0  2.182866  0  0  -0.464214  0  2.450819  0  0  -0.489135  0  2.448743  0  0  -0.313923  -0.447109  0  2.451852  0
O  O102  1  0.82314514  0.28882332  0.38411108  1  0  -0.500021  0  2.185064  0  0  -0.464866  0  2.452842  0  0  -0.489791  0  2.450732  0  0  -0.314896  -0.447757  0  2.453883  0
O  O103  1  0.40483719  0.43874956  0.11578276  1  0  -0.498537  0  2.18301  0  0  -0.464079  0  2.450924  0  0  -0.488999  0  2.448854  0  0  -0.313833  -0.446987  0  2.451996  0
O  O104  1  0.12724820  0.54975605  0.66970389  1  0  -0.484732  0  2.19127  0  0  -0.448664  0  2.44749  0  0  -0.473492  0  2.444941  0  0  -0.308555  -0.43155  0  2.448761  0
O  O105  1  0.37995497  0.45795864  0.83037391  1  0  -0.483683  0  2.187614  0  0  -0.447524  0  2.443388  0  0  -0.472341  0  2.440889  0  0  -0.307758  -0.430426  0  2.444663  0
O  O106  1  0.87270930  0.45022131  0.33028213  1  0  -0.484716  0  2.190649  0  0  -0.4486  0  2.446943  0  0  -0.473425  0  2.444397  0  0  -0.30852  -0.431501  0  2.448261  0
O  O107  1  0.62004877  0.54204521  0.16962523  1  0  -0.483632  0  2.187685  0  0  -0.447535  0  2.443496  0  0  -0.472349  0  2.441  0  0  -0.307762  -0.430435  0  2.444738  0
O  O108  1  0.90094686  0.60866339  0.51897361  1  0  -0.485101  0  2.159945  0  0  -0.450153  0  2.417034  0  0  -0.473382  0  2.412241  0  0  -0.3145  -0.434212  0  2.420039  0
O  O109  1  0.58941581  0.38168128  0.98078998  1  0  -0.486324  0  2.160636  0  0  -0.45153  0  2.417234  0  0  -0.474781  0  2.412441  0  0  -0.315188  -0.435559  0  2.420158  0
O  O110  1  0.09904453  0.39133949  0.48102242  1  0  -0.484997  0  2.159807  0  0  -0.45007  0  2.416894  0  0  -0.473298  0  2.412104  0  0  -0.314388  -0.434107  0  2.419816  0
O  O111  1  0.41058377  0.61832358  0.01921912  1  0  -0.485293  0  2.158899  0  0  -0.451598  0  2.417133  0  0  -0.474861  0  2.412324  0  0  -0.315271  -0.435636  0  2.4201  0
O  O112  1  0.84701263  0.44539133  0.57098971  1  0  -0.508059  0  2.226356  0  0  -0.474415  0  2.495649  0  0  -0.500128  0  2.495084  0  0  -0.313917  -0.456687  0  2.495619  0
O  O113  1  0.37418290  0.27593066  0.92888995  1  0  -0.508584  0  2.226213  0  0  -0.475191  0  2.495325  0  0  -0.500905  0  2.494703  0  0  -0.313348  -0.457459  0  2.495334  0
O  O114  1  0.15296801  0.55460397  0.42900057  1  0  -0.508106  0  2.226121  0  0  -0.474425  0  2.495396  0  0  -0.500137  0  2.49483  0  0  -0.313871  -0.456707  0  2.495426  0
O  O115  1  0.62581747  0.72407417  0.07111528  1  0  -0.508615  0  2.225977  0  0  -0.475195  0  2.495299  0  0  -0.500919  0  2.494664  0  0  -0.313356  -0.457457  0  2.495276  0
F  F116  1  0.39326549  0.86802899  0.78912228  1  0  -0.237477  0  1.211399  0  0  -0.201992  0  1.380706  0  0  -0.211638  0  1.36496  0  0  -0.090918  -0.194979  0  1.391703  0
F  F117  1  0.57893281  0.60478164  0.71120722  1  0  -0.240511  0  1.208622  0  0  -0.204141  0  1.378171  0  0  -0.213845  0  1.362409  0  0  -0.091685  -0.197083  0  1.389204  0
F  F118  1  0.60671274  0.13192476  0.21085490  1  0  -0.237111  0  1.21063  0  0  -0.202089  0  1.380521  0  0  -0.211739  0  1.364772  0  0  -0.090907  -0.195054  0  1.39154  0
F  F119  1  0.42109981  0.39522329  0.28881046  1  0  -0.24057  0  1.208736  0  0  -0.204338  0  1.378101  0  0  -0.214051  0  1.362334  0  0  -0.091797  -0.197275  0  1.389137  0
F  F120  1  0.24968516  0.78462951  0.85097901  1  0  -0.241587  0  1.105086  0  0  -0.211701  0  1.257661  0  0  -0.22022  0  1.240782  0  0  -0.108692  -0.205441  0  1.269554  0
F  F121  1  0.43388790  0.39917066  0.64931186  1  0  -0.242836  0  1.102155  0  0  -0.212626  0  1.255004  0  0  -0.221194  0  1.238128  0  0  -0.108844  -0.206352  0  1.266932  0
F  F122  1  0.75028830  0.21534689  0.14900392  1  0  -0.241762  0  1.105333  0  0  -0.211741  0  1.25765  0  0  -0.220268  0  1.240767  0  0  -0.108651  -0.20546  0  1.269559  0
F  F123  1  0.56609613  0.60083976  0.35068494  1  0  -0.242806  0  1.102439  0  0  -0.212742  0  1.255114  0  0  -0.221317  0  1.238236  0  0  -0.108821  -0.206465  0  1.267044  0
F  F124  1  0.35864360  0.70587118  0.83106980  1  0  -0.223698  0  1.167498  0  0  -0.194555  0  1.333924  0  0  -0.203708  0  1.317049  0  0  -0.098795  -0.187846  0  1.345747  0
F  F125  1  0.37474301  0.52784672  0.66883474  1  0  -0.225474  0  1.165958  0  0  -0.196259  0  1.333023  0  0  -0.205482  0  1.316107  0  0  -0.099279  -0.189517  0  1.344886  0
F  F126  1  0.64132233  0.29409113  0.16891860  1  0  -0.223787  0  1.167656  0  0  -0.194564  0  1.333913  0  0  -0.203725  0  1.317035  0  0  -0.098727  -0.187832  0  1.345753  0
F  F127  1  0.62530074  0.47220911  0.33118538  1  0  -0.225369  0  1.16598  0  0  -0.196302  0  1.332854  0  0  -0.205533  0  1.315936  0  0  -0.0994  -0.189557  0  1.344716  0
F  F128  1  0.75794053  0.53761582  0.68360216  1  0  -0.228345  0  1.154567  0  0  -0.194874  0  1.316093  0  0  -0.204125  0  1.299978  0  0  -0.093088  -0.188116  0  1.327471  0
F  F129  1  0.35288954  0.07359876  0.81647198  1  0  -0.229885  0  1.151984  0  0  -0.196189  0  1.313646  0  0  -0.205451  0  1.297386  0  0  -0.094002  -0.18939  0  1.325056  0
F  F130  1  0.24206349  0.46238057  0.31640669  1  0  -0.228308  0  1.154624  0  0  -0.194908  0  1.316044  0  0  -0.204165  0  1.299916  0  0  -0.093074  -0.188143  0  1.327432  0
F  F131  1  0.64711739  0.92641449  0.18352466  1  0  -0.228474  0  1.150817  0  0  -0.19617  0  1.313615  0  0  -0.20544  0  1.297357  0  0  -0.093966  -0.189371  0  1.325026  0
F  F132  1  0.77007445  0.66526590  0.60299356  1  0  -0.213592  0  1.172164  0  0  -0.179225  0  1.338947  0  0  -0.189146  0  1.32361  0  0  -0.084956  -0.17201  0  1.349733  0
F  F133  1  0.56127220  0.16628014  0.89628861  1  0  -0.214342  0  1.169745  0  0  -0.179631  0  1.336641  0  0  -0.189577  0  1.321177  0  0  -0.084113  -0.172373  0  1.347443  0
F  F134  1  0.22993041  0.33473998  0.39702506  1  0  -0.213555  0  1.171974  0  0  -0.179253  0  1.33865  0  0  -0.189179  0  1.3233  0  0  -0.084975  -0.172032  0  1.349451  0
F  F135  1  0.43873177  0.83372280  0.10371517  1  0  -0.225758  0  1.180986  0  0  -0.179594  0  1.336771  0  0  -0.189543  0  1.321308  0  0  -0.084099  -0.172332  0  1.347572  0
F  F136  1  0.62127989  0.46082776  0.52598558  1  0  -0.248115  0  1.165741  0  0  -0.214143  0  1.330694  0  0  -0.222818  0  1.313316  0  0  -0.101841  -0.20776  0  1.342855  0
F  F137  1  0.43487626  0.09528004  0.97413511  1  0  -0.25153  0  1.16307  0  0  -0.217563  0  1.328553  0  0  -0.226767  0  1.311454  0  0  -0.10385  -0.211147  0  1.340801  0
F  F138  1  0.37871776  0.53918184  0.47402784  1  0  -0.248092  0  1.165776  0  0  -0.214178  0  1.330611  0  0  -0.22286  0  1.313224  0  0  -0.101824  -0.207788  0  1.342783  0
F  F139  1  0.56510689  0.90471149  0.02585517  1  0  -0.249945  0  1.161977  0  0  -0.217504  0  1.328633  0  0  -0.226694  0  1.311524  0  0  -0.10387  -0.211089  0  1.340878  0
