# generated using pymatgen
data_Zr3H10C26Cl5O16
_symmetry_space_group_name_H-M   'P 1'
_cell_length_a   14.80911732
_cell_length_b   14.79308731
_cell_length_c   14.81568091
_cell_angle_alpha   59.87827796
_cell_angle_beta   59.90476929
_cell_angle_gamma   60.17043683
_symmetry_Int_Tables_number   1
_chemical_formula_structural   Zr3H10C26Cl5O16
_chemical_formula_sum   'Zr6 H20 C52 Cl10 O32'
_cell_volume   2294.21953570
_cell_formula_units_Z   2
loop_
 _symmetry_equiv_pos_site_id
 _symmetry_equiv_pos_as_xyz
  1  'x, y, z'
loop_
 _atom_site_type_symbol
 _atom_site_label
 _atom_site_symmetry_multiplicity
 _atom_site_fract_x
 _atom_site_fract_y
 _atom_site_fract_z
 _atom_site_occupancy
 _atom_site_pbe_bader_charge
 _atom_site_pbe_bader_spin_density
 _atom_site_pbe_cm5_charge
 _atom_site_pbe_ddec_charge
 _atom_site_pbe_ddec_spin_density
 _atom_site_pbe_ddec_sum_bond_order
 _atom_site_pbe_magmom
Zr  Zr0  1  0.87670727  0.88393447  0.62028959  1  2.637624  0  1.630688  2.377265  0  2.76013  0
Zr  Zr1  1  0.11940175  0.11975984  0.38483668  1  2.639024  0  1.628505  2.379161  0  2.757282  0
Zr  Zr2  1  0.11497123  0.87982802  0.62529142  1  2.636694  0  1.624379  2.37773  0  2.737679  0
Zr  Zr3  1  0.88090527  0.12337171  0.38133479  1  2.637571  0  1.627084  2.376416  0  2.742513  0
Zr  Zr4  1  0.11773696  0.88259236  0.38405455  1  2.636205  0  1.630086  2.378207  0  2.763135  0
Zr  Zr5  1  0.87891987  0.12073096  0.62252582  1  2.63601  0  1.626855  2.379709  0  2.744915  0
H  H6  1  0.08992957  0.71940586  0.59578307  1  0.613519  0  0.33104  0.422872  0  0.859115  0
H  H7  1  0.09741650  0.09417665  0.22068933  1  0.601403  0  0.331356  0.422546  0  0.859257  0
H  H8  1  0.09112792  0.09339973  0.60059182  1  0.611334  0  0.330955  0.423483  0  0.857277  0
H  H9  1  0.71626268  0.09840528  0.59444491  1  0.606247  0  0.332292  0.425938  0  0.852973  0
H  H10  1  0.14930488  0.57969410  0.38444657  1  0.128976  0  0.11109  0.130247  0  1.010765  0
H  H11  1  0.83011153  0.44512342  0.59517993  1  0.115213  0  0.106354  0.124887  0  1.028065  0
H  H12  1  0.60193783  0.12931606  0.91776871  1  0.141506  0  0.106115  0.126626  0  1.023913  0
H  H13  1  0.40987141  0.85715015  0.10341421  1  0.141536  0  0.108247  0.127762  0  1.018009  0
H  H14  1  0.83261681  0.09974602  0.13094441  1  0.153655  0  0.109352  0.128187  0  1.019519  0
H  H15  1  0.14467888  0.87696038  0.89854256  1  0.152659  0  0.111505  0.130651  0  1.006974  0
H  H16  1  0.59460824  0.41212244  0.36228729  1  0.142346  0  0.11475  0.136348  0  0.996541  0
H  H17  1  0.41906460  0.60848345  0.62742311  1  0.150197  0  0.111988  0.132074  0  1.007025  0
H  H18  1  0.95932618  0.57948213  0.74705032  1  0.075642  0  0.095732  0.102101  0  1.060252  0
H  H19  1  0.94376515  0.41781433  0.75465184  1  0.054301  0  0.093759  0.093006  0  1.019403  0
H  H20  1  0.97400927  0.23819113  0.07850690  1  0.075232  0  0.095746  0.100789  0  1.060309  0
H  H21  1  0.95191965  0.24617673  0.92101509  1  0.070076  0  0.092909  0.092094  0  1.026808  0
H  H22  1  0.04983273  0.47703758  0.14422183  1  0.084795  0  0.110294  0.117031  0  0.987438  0
H  H23  1  0.04550510  0.64757397  0.97569239  1  0.075117  0  0.110365  0.117519  0  0.98375  0
H  H24  1  0.59503041  0.86425758  0.63662929  1  0.110424  0  0.107094  0.128723  0  1.020485  0
H  H25  1  0.41538560  0.12582176  0.35369931  1  0.115997  0  0.107137  0.126989  0  1.020943  0
C  C26  1  0.98612984  0.70726111  0.49717224  1  1.578541  0  0.237337  0.648159  0  4.095927  0
C  C27  1  0.30854112  0.99862263  0.20695530  1  1.581922  0  0.237996  0.651761  0  4.088266  0
C  C28  1  0.99963086  0.30824742  0.49503128  1  1.609285  0  0.236361  0.651253  0  4.092654  0
C  C29  1  0.69771106  0.99404997  0.80879339  1  1.554133  0  0.237946  0.653524  0  4.08364  0
C  C30  1  0.99465543  0.69715416  0.80638069  1  1.539641  0  0.239251  0.648466  0  4.088707  0
C  C31  1  0.69945401  0.00518917  0.49041124  1  1.577972  0  0.238157  0.652906  0  4.081842  0
C  C32  1  0.00168989  0.30417267  0.19692992  1  1.541678  0  0.238608  0.647309  0  4.0912  0
C  C33  1  0.30494108  0.99067912  0.50610745  1  1.587631  0  0.236636  0.650283  0  4.085349  0
C  C34  1  0.30439743  0.70116082  0.49684844  1  1.562004  0  0.23727  0.651396  0  4.089432  0
C  C35  1  0.98512070  0.99603100  0.81577401  1  1.599031  0  0.237587  0.653902  0  4.087804  0
C  C36  1  0.70269337  0.31240449  0.49982416  1  1.580519  0  0.237702  0.652174  0  4.087522  0
C  C37  1  0.99975161  0.99329558  0.20318879  1  1.585569  0  0.236621  0.648855  0  4.095065  0
C  C38  1  0.99883135  0.41311231  0.48829915  1  -0.045103  0  -0.011227  -0.072101  0  3.914533  0
C  C39  1  0.98161821  0.61017187  0.49355275  1  -0.017448  0  -0.011647  -0.073474  0  3.915225  0
C  C40  1  0.08945244  0.45280240  0.42649036  1  0.074071  0  0.02159  0.133654  0  4.015989  0
C  C41  1  0.88981161  0.57258683  0.55213855  1  0.094141  0  0.022809  0.130936  0  4.016985  0
C  C42  1  0.07917371  0.54967885  0.43043485  1  0.00701  0  -0.083913  -0.148635  0  3.951664  0
C  C43  1  0.90024905  0.47518415  0.54903830  1  0.08819  0  -0.084082  -0.150824  0  3.956447  0
C  C44  1  0.41169340  0.99844091  0.10775056  1  -0.058065  0  -0.011939  -0.072929  0  3.910975  0
C  C45  1  0.59975304  0.98854417  0.91314214  1  -0.03047  0  -0.011359  -0.072805  0  3.909432  0
C  C46  1  0.46774243  0.07552377  0.05532443  1  0.073198  0  0.022125  0.137566  0  4.004061  0
C  C47  1  0.54524676  0.90985972  0.96700335  1  0.075761  0  0.022962  0.137833  0  4.006713  0
C  C48  1  0.55924442  0.06939669  0.95954868  1  0.077871  0  -0.086243  -0.152169  0  3.963856  0
C  C49  1  0.45300410  0.91665845  0.06219407  1  0.067446  0  -0.084275  -0.149932  0  3.958829  0
C  C50  1  0.98055245  0.99290341  0.92084598  1  -0.003629  0  -0.011043  -0.07337  0  3.913437  0
C  C51  1  0.99800752  0.98618557  0.10666866  1  -0.031967  0  -0.010484  -0.072214  0  3.909585  0
C  C52  1  0.89081571  0.05520305  0.98866553  1  0.082063  0  0.021826  0.129748  0  4.01789  0
C  C53  1  0.08644020  0.92103043  0.04105390  1  0.064126  0  0.022055  0.135634  0  4.010652  0
C  C54  1  0.90123029  0.05083225  0.07929373  1  0.020581  0  -0.083152  -0.150951  0  3.957319  0
C  C55  1  0.07600541  0.92566700  0.95031696  1  0.019027  0  -0.084374  -0.150842  0  3.955334  0
C  C56  1  0.40896763  0.60370973  0.49098107  1  0.004214  0  -0.01137  -0.074091  0  3.907908  0
C  C57  1  0.60355346  0.41561525  0.50002354  1  -0.008439  0  -0.011302  -0.07339  0  3.908451  0
C  C58  1  0.46039272  0.54781828  0.41435995  1  0.037562  0  0.023497  0.137911  0  4.003468  0
C  C59  1  0.55346369  0.47295938  0.57509154  1  0.043972  0  0.023135  0.135752  0  4.005307  0
C  C60  1  0.55553462  0.45589674  0.42049230  1  0.041817  0  -0.082811  -0.149606  0  3.946871  0
C  C61  1  0.45816279  0.56474994  0.56917681  1  0.071881  0  -0.082512  -0.146013  0  3.947681  0
C  C62  1  0.00046408  0.59087394  0.90149852  1  -0.032903  0  -0.007248  -0.073623  0  3.924776  0
C  C63  1  0.98151541  0.50191871  0.90707718  1  -0.018826  0  0.0017  0.063883  0  3.93536  0
C  C64  1  0.02768472  0.58000073  0.98416704  1  0.022291  0  -0.080516  -0.08991  0  3.991496  0
C  C65  1  0.96520607  0.50452502  0.81886656  1  -0.037035  0  -0.096432  -0.137236  0  3.978519  0
C  C66  1  0.95529229  0.41423511  0.82367985  1  -0.020669  0  -0.094975  -0.076403  0  4.031263  0
C  C67  1  0.00625127  0.39894569  0.09032522  1  -0.037143  0  -0.006303  -0.070978  0  3.923667  0
C  C68  1  0.03037505  0.48438634  0.07845647  1  -0.002302  0  -0.081282  -0.093972  0  3.99638  0
C  C69  1  0.98512578  0.40339481  0.00347723  1  0.000299  0  0.001395  0.062489  0  3.934091  0
C  C70  1  0.97324816  0.31252345  0.00571956  1  -0.038225  0  -0.097514  -0.135089  0  3.975167  0
C  C71  1  0.95969853  0.31742136  0.91766377  1  -0.045495  0  -0.094874  -0.07626  0  4.026271  0
C  C72  1  0.40901523  0.98719713  0.50394883  1  -0.014517  0  -0.011189  -0.07207  0  3.903135  0
C  C73  1  0.60074869  0.00338915  0.48711822  1  0.074084  0  -0.012409  -0.073588  0  3.908184  0
C  C74  1  0.46180393  0.91133609  0.58392985  1  0.077015  0  0.022436  0.138048  0  4.003554  0
C  C75  1  0.54960264  0.07755816  0.40560092  1  0.013535  0  0.023132  0.138696  0  4.003465  0
C  C76  1  0.55515652  0.92136893  0.57428365  1  0.067231  0  -0.086696  -0.154283  0  3.965283  0
C  C77  1  0.45558963  0.06823032  0.41577306  1  0.034894  0  -0.085169  -0.150195  0  3.953259  0
Cl  Cl78  1  0.21686591  0.38681077  0.34747071  1  -0.170066  0  0.001727  -0.060708  0  1.512495  0
Cl  Cl79  1  0.76178789  0.64088485  0.62803974  1  -0.173113  0  0.01268  -0.052066  0  1.55839  0
Cl  Cl80  1  0.43151186  0.17960966  0.10114908  1  -0.17686  0  0.004529  -0.057246  0  1.522018  0
Cl  Cl81  1  0.58383075  0.80367607  0.92303060  1  -0.171708  0  0.002997  -0.056836  0  1.502357  0
Cl  Cl82  1  0.76535919  0.13805345  0.96791877  1  -0.175729  0  0.010827  -0.054974  0  1.556928  0
Cl  Cl83  1  0.21149948  0.83628167  0.06248591  1  -0.175501  0  0.002181  -0.059688  0  1.510442  0
Cl  Cl84  1  0.41308024  0.58398213  0.31135311  1  -0.174531  0  0.003917  -0.060462  0  1.513277  0
Cl  Cl85  1  0.60205933  0.43772104  0.67679383  1  -0.179055  0  0.007948  -0.058187  0  1.53096  0
Cl  Cl86  1  0.41867422  0.80419520  0.69637382  1  -0.176718  0  0.003655  -0.05984  0  1.514495  0
Cl  Cl87  1  0.59534199  0.18208440  0.29110987  1  -0.168152  0  0.007283  -0.05749  0  1.52315  0
O  O88  1  0.91284855  0.74401260  0.57633254  1  -1.177173  0  -0.355962  -0.620296  0  2.359563  0
O  O89  1  0.26626396  0.07553895  0.24649517  1  -1.172867  0  -0.359842  -0.61861  0  2.369966  0
O  O90  1  0.07625639  0.26576919  0.42085343  1  -1.182073  0  -0.360352  -0.621189  0  2.36784  0
O  O91  1  0.73620430  0.92135934  0.76493834  1  -1.167515  0  -0.360126  -0.617644  0  2.365832  0
O  O92  1  0.06975372  0.73843756  0.76991739  1  -1.177298  0  -0.361948  -0.625444  0  2.271598  0
O  O93  1  0.73880047  0.08312043  0.41688675  1  -1.178495  0  -0.359091  -0.621788  0  2.346228  0
O  O94  1  0.92266458  0.26599496  0.23960768  1  -1.178848  0  -0.362793  -0.622417  0  2.299179  0
O  O95  1  0.26137474  0.91700214  0.58402589  1  -1.178996  0  -0.358  -0.621156  0  2.349491  0
O  O96  1  0.26132302  0.74058442  0.42323178  1  -1.172948  0  -0.360529  -0.621937  0  2.366956  0
O  O97  1  0.91409866  0.07637499  0.77100106  1  -1.177131  0  -0.357057  -0.620666  0  2.343071  0
O  O98  1  0.74099845  0.26819652  0.57818094  1  -1.172272  0  -0.360993  -0.62332  0  2.361174  0
O  O99  1  0.07689531  0.92025418  0.24251961  1  -1.173527  0  -0.358823  -0.617648  0  2.374881  0
O  O100  1  0.06295099  0.91972943  0.77677582  1  -1.185392  0  -0.346327  -0.608199  0  2.270122  0
O  O101  1  0.74008854  0.27451869  0.42266025  1  -1.177246  0  -0.343378  -0.603587  0  2.260385  0
O  O102  1  0.92417543  0.07289584  0.23825804  1  -1.18333  0  -0.341878  -0.606453  0  2.278648  0
O  O103  1  0.26490497  0.73703548  0.57603199  1  -1.172433  0  -0.344423  -0.605879  0  2.262268  0
O  O104  1  0.91676072  0.73981249  0.76794960  1  -1.176303  0  -0.346599  -0.60747  0  2.292686  0
O  O105  1  0.26624781  0.06944897  0.42980849  1  -1.185573  0  -0.347429  -0.605892  0  2.292779  0
O  O106  1  0.07504983  0.26841991  0.23898395  1  -1.170812  0  -0.345351  -0.609399  0  2.257247  0
O  O107  1  0.73592536  0.92868452  0.56893698  1  -1.175324  0  -0.347878  -0.608032  0  2.295036  0
O  O108  1  0.73506886  0.07235429  0.77013460  1  -1.17899  0  -0.347842  -0.60967  0  2.28225  0
O  O109  1  0.06613844  0.74294818  0.42312374  1  -1.174748  0  -0.345261  -0.601642  0  2.281182  0
O  O110  1  0.26851801  0.92292099  0.24345487  1  -1.172384  0  -0.348368  -0.608468  0  2.282495  0
O  O111  1  0.92363480  0.26906723  0.57475369  1  -1.180128  0  -0.34412  -0.603138  0  2.262227  0
O  O112  1  0.79637911  0.07141345  0.56788127  1  -1.235688  0  -0.694295  -1.069718  0  2.359773  0
O  O113  1  0.06483560  0.06704382  0.57306629  1  -1.238962  0  -0.691952  -1.066682  0  2.354125  0
O  O114  1  0.06816746  0.06863060  0.30094614  1  -1.231657  0  -0.695437  -1.070958  0  2.370229  0
O  O115  1  0.06322940  0.79963353  0.57015600  1  -1.243236  0  -0.695302  -1.07172  0  2.369388  0
O  O116  1  0.14651023  0.95080363  0.45574782  1  -1.202906  0  -0.791329  -1.149439  0  2.131121  0
O  O117  1  0.94856780  0.95396219  0.45165710  1  -1.202201  0  -0.791736  -1.149654  0  2.128897  0
O  O118  1  0.95038556  0.15013803  0.45335201  1  -1.194571  0  -0.791581  -1.149012  0  2.130617  0
O  O119  1  0.94690843  0.95190000  0.65153826  1  -1.19881  0  -0.791213  -1.148923  0  2.13062  0
