# generated using pymatgen
data_ZnH60C52S2(NO2)6
_symmetry_space_group_name_H-M   'P 1'
_cell_length_a   10.97943807
_cell_length_b   12.27210425
_cell_length_c   12.58359641
_cell_angle_alpha   60.58945531
_cell_angle_beta   80.14248434
_cell_angle_gamma   65.20281880
_symmetry_Int_Tables_number   1
_chemical_formula_structural   ZnH60C52S2(NO2)6
_chemical_formula_sum   'Zn1 H60 C52 S2 N6 O12'
_cell_volume   1339.53179902
_cell_formula_units_Z   1
loop_
 _symmetry_equiv_pos_site_id
 _symmetry_equiv_pos_as_xyz
  1  'x, y, z'
loop_
 _atom_site_type_symbol
 _atom_site_label
 _atom_site_symmetry_multiplicity
 _atom_site_fract_x
 _atom_site_fract_y
 _atom_site_fract_z
 _atom_site_occupancy
 _atom_site_hle17_bader_spin_density
 _atom_site_hle17_ddec_charge
 _atom_site_hle17_ddec_spin_density
 _atom_site_hle17_ddec_sum_bond_order
 _atom_site_hle17_magmom
 _atom_site_hse06_10hf_bader_spin_density
 _atom_site_hse06_10hf_ddec_charge
 _atom_site_hse06_10hf_ddec_spin_density
 _atom_site_hse06_10hf_ddec_sum_bond_order
 _atom_site_hse06_10hf_magmom
 _atom_site_hse06_bader_spin_density
 _atom_site_hse06_ddec_charge
 _atom_site_hse06_ddec_spin_density
 _atom_site_hse06_ddec_sum_bond_order
 _atom_site_hse06_magmom
 _atom_site_pbe_bader_spin_density
 _atom_site_pbe_cm5_charge
 _atom_site_pbe_ddec_charge
 _atom_site_pbe_ddec_spin_density
 _atom_site_pbe_ddec_sum_bond_order
 _atom_site_pbe_magmom
Zn  Zn0  1  0.00000000  0.00000000  0.00000000  1  0  0.938425  0  1.924952  0  0  0.736488  0  2.377005  0  0  0.784044  0  2.330548  0  0  0.687304  0.703684  0  2.408381  0
H  H1  1  0.54753495  0.03554045  0.81821761  1  0  0.102203  0  0.970974  0  0  0.10727  0  1.041696  0  0  0.110589  0  1.039802  0  0  0.102795  0.104844  0  1.043146  0
H  H2  1  0.45246239  0.96445826  0.18178191  1  0  0.102191  0  0.970996  0  0  0.107265  0  1.041704  0  0  0.110586  0  1.039808  0  0  0.102787  0.104841  0  1.043153  0
H  H3  1  0.66247702  0.92134565  0.68993916  1  0  0.104541  0  0.970021  0  0  0.111812  0  1.036429  0  0  0.11576  0  1.033951  0  0  0.10015  0.109045  0  1.038171  0
H  H4  1  0.33752112  0.07865104  0.31006040  1  0  0.104534  0  0.97002  0  0  0.111787  0  1.036443  0  0  0.115735  0  1.033965  0  0  0.100142  0.109024  0  1.03818  0
H  H5  1  0.58909999  0.31331798  0.37443817  1  0  0.100451  0  0.949312  0  0  0.111943  0  1.008619  0  0  0.115289  0  1.00679  0  0  0.100478  0.109562  0  1.010022  0
H  H6  1  0.41090407  0.68667774  0.62556017  1  0  0.100361  0  0.949353  0  0  0.111905  0  1.00862  0  0  0.115251  0  1.006791  0  0  0.100458  0.109523  0  1.010025  0
H  H7  1  0.47262797  0.42596452  0.50030465  1  0  0.100322  0  0.963785  0  0  0.1086  0  1.02905  0  0  0.111904  0  1.026541  0  0  0.103708  0.106203  0  1.030951  0
H  H8  1  0.52737145  0.57403831  0.49968862  1  0  0.100313  0  0.963837  0  0  0.108611  0  1.02907  0  0  0.111916  0  1.02656  0  0  0.103711  0.106214  0  1.03097  0
H  H9  1  0.80486468  0.03248355  0.42796028  1  0  0.108331  0  0.93987  0  0  0.128597  0  1.002498  0  0  0.130146  0  1.002644  0  0  0.09116  0.127617  0  1.002175  0
H  H10  1  0.19513780  0.96751620  0.57204034  1  0  0.108342  0  0.93991  0  0  0.128587  0  1.002562  0  0  0.130137  0  1.002707  0  0  0.091159  0.127609  0  1.002236  0
H  H11  1  0.64745592  0.09827581  0.35436890  1  0  0.109149  0  0.942819  0  0  0.130912  0  1.002784  0  0  0.132139  0  1.002851  0  0  0.091621  0.129994  0  1.00275  0
H  H12  1  0.35255052  0.90172093  0.64563097  1  0  0.109143  0  0.942859  0  0  0.130918  0  1.002802  0  0  0.132144  0  1.002869  0  0  0.091632  0.129998  0  1.002769  0
H  H13  1  0.70255401  0.93716823  0.48691070  1  0  0.116832  0  0.941533  0  0  0.139912  0  0.996811  0  0  0.141672  0  0.996595  0  0  0.096003  0.138624  0  0.997032  0
H  H14  1  0.29745111  0.06282953  0.51308730  1  0  0.116844  0  0.94151  0  0  0.139917  0  0.996797  0  0  0.141678  0  0.996582  0  0  0.096003  0.13863  0  0.997016  0
H  H15  1  0.57965212  0.30451862  0.88147513  1  0  0.074949  0  0.937699  0  0  0.085438  0  0.998482  0  0  0.087731  0  0.997122  0  0  0.116061  0.083738  0  0.999611  0
H  H16  1  0.42035009  0.69548420  0.11852329  1  0  0.0749  0  0.937745  0  0  0.08548  0  0.998438  0  0  0.087773  0  0.997077  0  0  0.116062  0.083779  0  0.999569  0
H  H17  1  0.46541762  0.16658747  0.12844804  1  0  0.081847  0  0.940152  0  0  0.100285  0  1.000212  0  0  0.101246  0  1.000719  0  0  0.098335  0.099573  0  0.999875  0
H  H18  1  0.53457998  0.83341530  0.87155189  1  0  0.081861  0  0.940136  0  0  0.10031  0  1.000203  0  0  0.101271  0  1.000712  0  0  0.098351  0.099597  0  0.999866  0
H  H19  1  0.59239178  0.22751383  0.10701167  1  0  0.072584  0  0.938505  0  0  0.092433  0  0.99659  0  0  0.093391  0  0.996538  0  0  0.095541  0.091674  0  0.996735  0
H  H20  1  0.40760701  0.77248591  0.89298873  1  0  0.072566  0  0.938501  0  0  0.092436  0  0.996586  0  0  0.093395  0  0.996534  0  0  0.095534  0.091676  0  0.996732  0
H  H21  1  0.31430548  0.40535988  0.97639926  1  0  0.108938  0  0.935357  0  0  0.120979  0  1.002912  0  0  0.123474  0  1.001679  0  0  0.104174  0.119102  0  1.003959  0
H  H22  1  0.68569540  0.59464395  0.02359808  1  0  0.108945  0  0.935457  0  0  0.120989  0  1.002955  0  0  0.123481  0  1.001724  0  0  0.104178  0.119113  0  1.004001  0
H  H23  1  0.43772796  0.46364410  0.97186618  1  0  0.105104  0  0.938106  0  0  0.116917  0  1.002607  0  0  0.119695  0  1.001037  0  0  0.100517  0.114906  0  1.003857  0
H  H24  1  0.56227426  0.53635870  0.02813542  1  0  0.105122  0  0.938147  0  0  0.116902  0  1.002667  0  0  0.119685  0  1.001085  0  0  0.100521  0.114891  0  1.003919  0
H  H25  1  0.16598635  0.52933217  0.25174524  1  0  0.089629  0  0.956447  0  0  0.104585  0  1.024858  0  0  0.105679  0  1.023609  0  0  0.10048  0.103736  0  1.025784  0
H  H26  1  0.83401432  0.47066045  0.74825746  1  0  0.089572  0  0.956493  0  0  0.104528  0  1.024914  0  0  0.105622  0  1.023666  0  0  0.100474  0.103679  0  1.025841  0
H  H27  1  0.22198837  0.66712357  0.18388800  1  0  0.105309  0  0.96888  0  0  0.116808  0  1.041319  0  0  0.117796  0  1.041161  0  0  0.103326  0.115945  0  1.041615  0
H  H28  1  0.77801139  0.33286901  0.81611962  1  0  0.105269  0  0.968872  0  0  0.116807  0  1.041278  0  0  0.117794  0  1.041124  0  0  0.103334  0.115945  0  1.041574  0
H  H29  1  0.32445525  0.50245346  0.30140021  1  0  0.091297  0  0.938271  0  0  0.109213  0  1.002949  0  0  0.109204  0  1.002771  0  0  0.101064  0.109104  0  1.003175  0
H  H30  1  0.67554320  0.49754012  0.69860873  1  0  0.091199  0  0.938294  0  0  0.109105  0  1.002991  0  0  0.109102  0  1.002807  0  0  0.101033  0.10899  0  1.003233  0
H  H31  1  0.82802350  0.10663428  0.78022541  1  0  0.078498  0  0.951313  0  0  0.08636  0  1.015625  0  0  0.087927  0  1.015119  0  0  0.113668  0.085131  0  1.016126  0
H  H32  1  0.17198230  0.89335941  0.21977442  1  0  0.078491  0  0.951368  0  0  0.086355  0  1.015682  0  0  0.087916  0  1.015196  0  0  0.11369  0.085123  0  1.016179  0
H  H33  1  0.80743249  0.25900821  0.55650094  1  0  0.106916  0  0.962206  0  0  0.116612  0  1.022446  0  0  0.118834  0  1.02367  0  0  0.103898  0.114944  0  1.021963  0
H  H34  1  0.19257238  0.74098546  0.44350063  1  0  0.10688  0  0.962264  0  0  0.116575  0  1.0225  0  0  0.118797  0  1.023724  0  0  0.103897  0.114909  0  1.022015  0
H  H35  1  0.17286644  0.29319224  0.59338294  1  0  0.115931  0  0.943949  0  0  0.126023  0  1.001057  0  0  0.129441  0  1.000244  0  0  0.108761  0.123488  0  1.002  0
H  H36  1  0.82712694  0.70681660  0.40661871  1  0  0.115973  0  0.943891  0  0  0.126072  0  1.000993  0  0  0.129492  0  1.000179  0  0  0.108789  0.123536  0  1.001934  0
H  H37  1  0.17614536  0.14246538  0.81551484  1  0  0.088007  0  0.969736  0  0  0.091906  0  1.040015  0  0  0.094825  0  1.037084  0  0  0.115282  0.08968  0  1.042234  0
H  H38  1  0.82385329  0.85753944  0.18448395  1  0  0.088028  0  0.969683  0  0  0.091891  0  1.040002  0  0  0.09481  0  1.037066  0  0  0.115283  0.089664  0  1.04222  0
H  H39  1  0.88989386  0.47185563  0.39300793  1  0  0.101255  0  0.953219  0  0  0.118952  0  1.010833  0  0  0.120543  0  1.010244  0  0  0.099054  0.117784  0  1.011298  0
H  H40  1  0.11010402  0.52814409  0.60699261  1  0  0.101312  0  0.953185  0  0  0.118926  0  1.010863  0  0  0.120514  0  1.010274  0  0  0.099031  0.117758  0  1.011327  0
H  H41  1  0.06705480  0.41312441  0.39492821  1  0  0.075635  0  0.943132  0  0  0.094349  0  1.002247  0  0  0.095626  0  1.001641  0  0  0.093307  0.093385  0  1.00275  0
H  H42  1  0.93294292  0.58688040  0.60507072  1  0  0.075621  0  0.943152  0  0  0.094309  0  1.00225  0  0  0.095584  0  1.001646  0  0  0.093334  0.093345  0  1.002755  0
H  H43  1  0.90871874  0.26578719  0.37918411  1  0  0.055764  0  0.945797  0  0  0.074943  0  1.00781  0  0  0.075529  0  1.008326  0  0  0.087776  0.074497  0  1.007477  0
H  H44  1  0.09128242  0.73421359  0.62081464  1  0  0.055722  0  0.945802  0  0  0.074902  0  1.007823  0  0  0.075491  0  1.008334  0  0  0.087754  0.074456  0  1.007491  0
H  H45  1  0.08362525  0.22171429  0.36496777  1  0  0.063786  0  0.934829  0  0  0.084907  0  0.992614  0  0  0.085294  0  0.993694  0  0  0.089755  0.084573  0  0.991912  0
H  H46  1  0.91637696  0.77828853  0.63503144  1  0  0.06377  0  0.93483  0  0  0.084892  0  0.992618  0  0  0.085277  0  0.993702  0  0  0.089748  0.084559  0  0.991914  0
H  H47  1  0.86550789  0.48918348  0.19252002  1  0  0.087488  0  0.946093  0  0  0.101046  0  1.013478  0  0  0.102607  0  1.012499  0  0  0.093569  0.099867  0  1.014247  0
H  H48  1  0.13449419  0.51081730  0.80747938  1  0  0.087502  0  0.946076  0  0  0.101062  0  1.013446  0  0  0.102627  0  1.012463  0  0  0.093582  0.099884  0  1.014214  0
H  H49  1  0.04048419  0.44636082  0.17500432  1  0  0.079912  0  0.94301  0  0  0.095971  0  1.005139  0  0  0.09685  0  1.005892  0  0  0.092256  0.095302  0  1.004742  0
H  H50  1  0.95951709  0.55364199  0.82499424  1  0  0.079936  0  0.943049  0  0  0.096006  0  1.005156  0  0  0.096885  0  1.005909  0  0  0.09227  0.095335  0  1.004761  0
H  H51  1  0.77787774  0.30597184  0.21266771  1  0  0.104297  0  0.945708  0  0  0.11728  0  1.002312  0  0  0.120081  0  1.002128  0  0  0.105723  0.115275  0  1.00261  0
H  H52  1  0.22212142  0.69403402  0.78732813  1  0  0.104339  0  0.945616  0  0  0.117281  0  1.002281  0  0  0.12008  0  1.002101  0  0  0.105712  0.115279  0  1.002581  0
H  H53  1  0.80186136  0.15795754  0.12075907  1  0  0.06987  0  0.976982  0  0  0.076863  0  1.045153  0  0  0.079232  0  1.042791  0  0  0.10979  0.07512  0  1.046773  0
H  H54  1  0.19813267  0.84204726  0.87923885  1  0  0.069911  0  0.976946  0  0  0.076887  0  1.045134  0  0  0.079256  0  1.042769  0  0  0.109805  0.075144  0  1.046753  0
H  H55  1  0.16295021  0.17810126  0.97335762  1  0  0.087168  0  0.989743  0  0  0.091169  0  1.059262  0  0  0.094861  0  1.055222  0  0  0.112126  0.088409  0  1.062226  0
H  H56  1  0.83704727  0.82189948  0.02664250  1  0  0.087187  0  0.989758  0  0  0.091161  0  1.059298  0  0  0.09485  0  1.055266  0  0  0.112121  0.088417  0  1.062245  0
H  H57  1  0.15613844  0.32382973  0.06042793  1  0  0.102531  0  0.964272  0  0  0.113901  0  1.024518  0  0  0.116267  0  1.025075  0  0  0.103509  0.112229  0  1.024219  0
H  H58  1  0.84386179  0.67617104  0.93957016  1  0  0.102513  0  0.964274  0  0  0.113848  0  1.02456  0  0  0.116214  0  1.025118  0  0  0.103497  0.112176  0  1.024258  0
H  H59  1  0.41649783  0.14167674  0.93466930  1  0  0.330959  0  0.922398  0  0  0.308585  0  0.994623  0  0  0.317769  0  0.985919  0  0  0.304244  0.302026  0  1.000907  0
H  H60  1  0.58350200  0.85832505  0.06532838  1  0  0.330985  0  0.922372  0  0  0.308593  0  0.994613  0  0  0.317776  0  0.985907  0  0  0.304244  0.302034  0  1.000897  0
C  C61  1  0.55724530  0.09550689  0.72087909  1  0  -0.064023  0  3.757879  0  0  -0.087814  0  4.008745  0  0  -0.087037  0  4.029514  0  0  -0.08956  -0.088267  0  3.994772  0
C  C62  1  0.44275217  0.90449386  0.27911864  1  0  -0.064071  0  3.757839  0  0  -0.087857  0  4.008709  0  0  -0.087079  0  4.029476  0  0  -0.089549  -0.088312  0  3.99474  0
C  C63  1  0.62226966  0.03212240  0.64849617  1  0  -0.132121  0  3.710122  0  0  -0.147819  0  3.949253  0  0  -0.152649  0  3.969934  0  0  -0.091313  -0.14457  0  3.9353  0
C  C64  1  0.37772914  0.96787734  0.35150344  1  0  -0.132068  0  3.710188  0  0  -0.147736  0  3.949317  0  0  -0.152565  0  3.969997  0  0  -0.091301  -0.144487  0  3.935364  0
C  C65  1  0.63342283  0.10854785  0.52269372  1  0  0.155038  0  3.743981  0  0  0.181672  0  3.975357  0  0  0.184563  0  3.999286  0  0  -0.002654  0.179874  0  3.958968  0
C  C66  1  0.36657516  0.89145393  0.47730344  1  0  0.155041  0  3.743957  0  0  0.18164  0  3.975391  0  0  0.184533  0  3.999315  0  0  -0.002645  0.179841  0  3.959005  0
C  C67  1  0.58047508  0.25078903  0.47154096  1  0  -0.127975  0  3.725056  0  0  -0.147135  0  3.972246  0  0  -0.151197  0  3.992096  0  0  -0.092812  -0.144476  0  3.958834  0
C  C68  1  0.41952239  0.74921173  0.52845597  1  0  -0.127848  0  3.725039  0  0  -0.147047  0  3.972256  0  0  -0.151109  0  3.992109  0  0  -0.092781  -0.144389  0  3.958846  0
C  C69  1  0.51487861  0.31546504  0.54244991  1  0  -0.072424  0  3.778734  0  0  -0.097359  0  4.031211  0  0  -0.095716  0  4.050054  0  0  -0.089667  -0.09828  0  4.018673  0
C  C70  1  0.48512467  0.68453269  0.45755076  1  0  -0.0725  0  3.778832  0  0  -0.097446  0  4.031323  0  0  -0.095803  0  4.050168  0  0  -0.089714  -0.098366  0  4.018787  0
C  C71  1  0.50237101  0.23730400  0.66710630  1  0  -0.13604  0  3.769552  0  0  -0.110949  0  4.020386  0  0  -0.118837  0  4.044219  0  0  -0.029017  -0.105817  0  4.004416  0
C  C72  1  0.49763214  0.76269170  0.33289377  1  0  -0.135989  0  3.769407  0  0  -0.110918  0  4.020271  0  0  -0.118806  0  4.044103  0  0  -0.029016  -0.105786  0  4.004305  0
C  C73  1  0.70033163  0.04036892  0.44414725  1  0  -0.340098  0  3.734951  0  0  -0.421082  0  3.970212  0  0  -0.423987  0  3.979337  0  0  -0.237074  -0.418845  0  3.963652  0
C  C74  1  0.29967113  0.95962779  0.55585399  1  0  -0.340117  0  3.734994  0  0  -0.421083  0  3.970283  0  0  -0.42399  0  3.979408  0  0  -0.237077  -0.418848  0  3.96372  0
C  C75  1  0.54945974  0.22204095  0.94941738  1  0  0.051507  0  3.623191  0  0  0.032525  0  3.862221  0  0  0.032603  0  3.873575  0  0  0.005524  0.032386  0  3.854505  0
C  C76  1  0.45053917  0.77796084  0.05057884  1  0  0.051651  0  3.623154  0  0  0.032607  0  3.862248  0  0  0.032684  0  3.873606  0  0  0.005579  0.032468  0  3.854531  0
C  C77  1  0.67205056  0.08648888  0.98752294  1  0  0.637129  0  3.887828  0  0  0.584878  0  4.198453  0  0  0.617217  0  4.190805  0  0  0.20719  0.562966  0  4.202941  0
C  C78  1  0.32794521  0.91350677  0.01247588  1  0  0.637224  0  3.887671  0  0  0.584928  0  4.198394  0  0  0.617269  0  4.190739  0  0  0.207178  0.563018  0  4.202875  0
C  C79  1  0.50399805  0.24365093  0.06262064  1  0  -0.104553  0  3.649442  0  0  -0.153036  0  3.908302  0  0  -0.15319  0  3.92035  0  0  -0.155836  -0.152788  0  3.899966  0
C  C80  1  0.49600115  0.75634778  0.93738098  1  0  -0.104548  0  3.649441  0  0  -0.153114  0  3.908384  0  0  -0.15327  0  3.920432  0  0  -0.155851  -0.152867  0  3.900051  0
C  C81  1  0.39759739  0.38557811  0.03014779  1  0  -0.260851  0  3.705141  0  0  -0.306948  0  3.970699  0  0  -0.312185  0  3.977586  0  0  -0.161756  -0.303237  0  3.965975  0
C  C82  1  0.60240602  0.61442165  0.96985429  1  0  -0.260892  0  3.705258  0  0  -0.306879  0  3.970721  0  0  -0.312112  0  3.977606  0  0  -0.161746  -0.30317  0  3.966  0
C  C83  1  0.33850394  0.40188491  0.14135607  1  0  0.62035  0  3.763578  0  0  0.577615  0  4.061861  0  0  0.609407  0  4.054409  0  0  0.232622  0.555905  0  4.066666  0
C  C84  1  0.66149066  0.59811376  0.85864706  1  0  0.620314  0  3.76352  0  0  0.577564  0  4.061814  0  0  0.609361  0  4.054357  0  0  0.232593  0.555854  0  4.066616  0
C  C85  1  0.25317797  0.55733484  0.22323313  1  0  -0.076032  0  3.593428  0  0  -0.177271  0  3.862586  0  0  -0.169368  0  3.864867  0  0  -0.1457  -0.182462  0  3.861157  0
C  C86  1  0.74682548  0.44265776  0.77677472  1  0  -0.075725  0  3.59337  0  0  -0.176961  0  3.862496  0  0  -0.169059  0  3.864769  0  0  -0.145603  -0.182159  0  3.861065  0
C  C87  1  0.90200333  0.15077789  0.73474439  1  0  0.125613  0  3.737391  0  0  0.094497  0  3.987567  0  0  0.101797  0  4.006683  0  0  0.040018  0.089827  0  3.974588  0
C  C88  1  0.09800102  0.84921477  0.26525615  1  0  0.125542  0  3.737364  0  0  0.094434  0  3.987554  0  0  0.101732  0  4.006664  0  0  0.040004  0.089768  0  3.974572  0
C  C89  1  0.89179741  0.23547833  0.60985119  1  0  -0.186191  0  3.717641  0  0  -0.197885  0  3.956275  0  0  -0.207006  0  3.979038  0  0  -0.089068  -0.19201  0  3.941098  0
C  C90  1  0.10820456  0.76452040  0.39015159  1  0  -0.186074  0  3.717602  0  0  -0.197785  0  3.956208  0  0  -0.206902  0  3.978965  0  0  -0.089043  -0.191911  0  3.941031  0
C  C91  1  0.98963371  0.28987818  0.55437520  1  0  0.161329  0  3.730115  0  0  0.176522  0  3.966445  0  0  0.181973  0  3.989152  0  0  0.015907  0.173118  0  3.950762  0
C  C92  1  0.01036798  0.71012361  0.44562538  1  0  0.161374  0  3.730159  0  0  0.176612  0  3.966356  0  0  0.182061  0  3.98906  0  0  0.015922  0.173206  0  3.950679  0
C  C93  1  0.09367360  0.25461653  0.63010709  1  0  -0.172578  0  3.699887  0  0  -0.188293  0  3.943492  0  0  -0.197223  0  3.965235  0  0  -0.084945  -0.182515  0  3.92885  0
C  C94  1  0.90632597  0.74538830  0.36989156  1  0  -0.172697  0  3.69982  0  0  -0.188437  0  3.943404  0  0  -0.197372  0  3.965152  0  0  -0.085013  -0.182656  0  3.928761  0
C  C95  1  0.09616609  0.17036761  0.75503527  1  0  0.139483  0  3.682891  0  0  0.108736  0  3.932564  0  0  0.116507  0  3.950169  0  0  0.047427  0.103837  0  3.920588  0
C  C96  1  0.90383084  0.82963924  0.24496282  1  0  0.139513  0  3.682818  0  0  0.108797  0  3.932509  0  0  0.116569  0  3.950118  0  0  0.047447  0.103899  0  3.920536  0
C  C97  1  0.98303756  0.37985966  0.41935435  1  0  -0.171659  0  3.699469  0  0  -0.214742  0  3.948463  0  0  -0.216651  0  3.960054  0  0  -0.161855  -0.213233  0  3.940206  0
C  C98  1  0.01696109  0.62014516  0.58064524  1  0  -0.171766  0  3.699678  0  0  -0.214708  0  3.948532  0  0  -0.216607  0  3.96011  0  0  -0.161871  -0.2132  0  3.940273  0
C  C99  1  0.98655052  0.30820337  0.34712146  1  0  -0.07733  0  3.666522  0  0  -0.117213  0  3.925512  0  0  -0.118085  0  3.939356  0  0  -0.156016  -0.116368  0  3.915703  0
C  C100  1  0.01344840  0.69179841  0.65287715  1  0  -0.077238  0  3.666506  0  0  -0.117154  0  3.925486  0  0  -0.118028  0  3.939326  0  0  -0.155987  -0.11631  0  3.915676  0
C  C101  1  0.96313419  0.40377170  0.20917455  1  0  -0.170647  0  3.708745  0  0  -0.213719  0  3.962049  0  0  -0.215724  0  3.974475  0  0  -0.162411  -0.212205  0  3.953363  0
C  C102  1  0.03686790  0.59622907  0.79082644  1  0  -0.170723  0  3.708744  0  0  -0.213807  0  3.96206  0  0  -0.215817  0  3.974487  0  0  -0.162434  -0.212294  0  3.953373  0
C  C103  1  0.96637026  0.32750685  0.14467453  1  0  0.157018  0  3.742817  0  0  0.172085  0  3.980196  0  0  0.177671  0  4.003056  0  0  0.01204  0.168645  0  3.964583  0
C  C104  1  0.03362826  0.67249594  0.85532446  1  0  0.157074  0  3.742845  0  0  0.17215  0  3.980195  0  0  0.177736  0  4.003053  0  0  0.012043  0.168709  0  3.96458  0
C  C105  1  0.86498908  0.28037881  0.15979947  1  0  -0.191273  0  3.730248  0  0  -0.207595  0  3.979726  0  0  -0.216844  0  4.001965  0  0  -0.092961  -0.201684  0  3.964683  0
C  C106  1  0.13500744  0.71962906  0.84019581  1  0  -0.191331  0  3.730278  0  0  -0.207617  0  3.979745  0  0  -0.216869  0  4.001992  0  0  -0.092933  -0.20171  0  3.964708  0
C  C107  1  0.87714068  0.19860259  0.10894307  1  0  0.131627  0  3.738717  0  0  0.097032  0  3.997634  0  0  0.105252  0  4.014717  0  0  0.03743  0.091834  0  3.985872  0
C  C108  1  0.12285824  0.80139918  0.89105714  1  0  0.131584  0  3.738786  0  0  0.09701  0  3.997702  0  0  0.105232  0  4.01478  0  0  0.0374  0.091813  0  3.985942  0
C  C109  1  0.07776457  0.21054182  0.02495518  1  0  0.130812  0  3.692969  0  0  0.100832  0  3.942442  0  0  0.108592  0  3.958909  0  0  0.042194  0.0959  0  3.931222  0
C  C110  1  0.92223303  0.78946096  0.97504394  1  0  0.130764  0  3.693117  0  0  0.100821  0  3.942583  0  0  0.108581  0  3.959052  0  0  0.04217  0.095878  0  3.931359  0
C  C111  1  0.07364909  0.29146764  0.07453659  1  0  -0.174347  0  3.710057  0  0  -0.188885  0  3.952231  0  0  -0.198013  0  3.974919  0  0  -0.088316  -0.183072  0  3.936898  0
C  C112  1  0.92635368  0.70852906  0.92546704  1  0  -0.174329  0  3.710019  0  0  -0.188846  0  3.952188  0  0  -0.197973  0  3.974874  0  0  -0.088292  -0.183034  0  3.93686  0
S  S113  1  0.39715260  0.32248570  0.75054603  1  0  1.211447  0  5.446145  0  0  1.114353  0  5.964795  0  0  1.158828  0  5.948396  0  0  0.555172  1.083732  0  5.975146  0
S  S114  1  0.60284699  0.67751201  0.24945283  1  0  1.211631  0  5.445951  0  0  1.11454  0  5.964615  0  0  1.159019  0  5.948208  0  0  0.555261  1.083918  0  5.974974  0
N  N115  1  0.43793179  0.22797488  0.89520903  1  0  -0.573473  0  3.195676  0  0  -0.515922  0  3.463643  0  0  -0.534521  0  3.464132  0  0  -0.457151  -0.502957  0  3.4629  0
N  N116  1  0.56206793  0.77202486  0.10479042  1  0  -0.573629  0  3.195696  0  0  -0.516038  0  3.463667  0  0  -0.534636  0  3.464148  0  0  -0.457161  -0.503073  0  3.462929  0
N  N117  1  0.00165504  0.11935860  0.80708892  1  0  -0.335368  0  3.320239  0  0  -0.255448  0  3.585094  0  0  -0.275271  0  3.603408  0  0  -0.330191  -0.242175  0  3.572387  0
N  N118  1  0.99834600  0.88064013  0.19291161  1  0  -0.335311  0  3.320178  0  0  -0.255422  0  3.585045  0  0  -0.275244  0  3.603362  0  0  -0.330184  -0.24215  0  3.572338  0
N  N119  1  0.98184111  0.16284730  0.04281414  1  0  -0.325133  0  3.24357  0  0  -0.250818  0  3.508196  0  0  -0.268907  0  3.524778  0  0  -0.321394  -0.238702  0  3.496784  0
N  N120  1  0.01815688  0.83715448  0.95718382  1  0  -0.325098  0  3.243697  0  0  -0.250807  0  3.508329  0  0  -0.268895  0  3.524908  0  0  -0.321365  -0.23869  0  3.496923  0
O  O121  1  0.78445488  0.09648111  0.98027354  1  0  -0.651196  0  2.106058  0  0  -0.587771  0  2.384502  0  0  -0.613876  0  2.372376  0  0  -0.323655  -0.569442  0  2.39207  0
O  O122  1  0.21554483  0.90351863  0.01972592  1  0  -0.651185  0  2.106277  0  0  -0.587711  0  2.38471  0  0  -0.613825  0  2.372608  0  0  -0.323601  -0.569384  0  2.392274  0
O  O123  1  0.65279489  0.97921108  0.02649689  1  0  -0.625138  0  2.00643  0  0  -0.574737  0  2.243485  0  0  -0.598037  0  2.234031  0  0  -0.321876  -0.558327  0  2.249537  0
O  O124  1  0.34720506  0.02079275  0.97349900  1  0  -0.625241  0  2.006033  0  0  -0.574864  0  2.243161  0  0  -0.598171  0  2.233703  0  0  -0.321942  -0.558453  0  2.249213  0
O  O125  1  0.41904586  0.44568781  0.70977036  1  0  -0.61074  0  1.918093  0  0  -0.565959  0  2.162655  0  0  -0.585941  0  2.151218  0  0  -0.324395  -0.551849  0  2.170063  0
O  O126  1  0.58095373  0.55430990  0.29022929  1  0  -0.610811  0  1.918045  0  0  -0.566044  0  2.162626  0  0  -0.586029  0  2.151186  0  0  -0.324445  -0.551935  0  2.170036  0
O  O127  1  0.26357432  0.33312602  0.73660144  1  0  -0.60329  0  1.98044  0  0  -0.554197  0  2.229884  0  0  -0.575291  0  2.219448  0  0  -0.307195  -0.539344  0  2.236343  0
O  O128  1  0.73642540  0.66687372  0.26339802  1  0  -0.603339  0  1.980324  0  0  -0.554261  0  2.229783  0  0  -0.575358  0  2.219344  0  0  -0.307218  -0.539404  0  2.236234  0
O  O129  1  0.30970815  0.31650686  0.23361492  1  0  -0.535399  0  1.911757  0  0  -0.494035  0  2.11906  0  0  -0.513408  0  2.11218  0  0  -0.284454  -0.480826  0  2.123621  0
O  O130  1  0.69027969  0.68349485  0.76638062  1  0  -0.535381  0  1.911644  0  0  -0.49404  0  2.118979  0  0  -0.513411  0  2.112094  0  0  -0.28449  -0.480815  0  2.123507  0
O  O131  1  0.31799492  0.52562506  0.12576320  1  0  -0.292224  0  2.288748  0  0  -0.216941  0  2.532918  0  0  -0.238876  0  2.532853  0  0  -0.176061  -0.201808  0  2.532515  0
O  O132  1  0.68200958  0.47436958  0.87424512  1  0  -0.292314  0  2.288776  0  0  -0.217062  0  2.53298  0  0  -0.239004  0  2.53292  0  0  -0.17609  -0.201927  0  2.532577  0
