# generated using pymatgen
data_Cu5H17C27N8
_symmetry_space_group_name_H-M   'P 1'
_cell_length_a   6.89738630
_cell_length_b   11.90637270
_cell_length_c   16.57534126
_cell_angle_alpha   71.39611860
_cell_angle_beta   80.17939258
_cell_angle_gamma   83.78995135
_symmetry_Int_Tables_number   1
_chemical_formula_structural   Cu5H17C27N8
_chemical_formula_sum   'Cu10 H34 C54 N16'
_cell_volume   1269.07426127
_cell_formula_units_Z   2
loop_
 _symmetry_equiv_pos_site_id
 _symmetry_equiv_pos_as_xyz
  1  'x, y, z'
loop_
 _atom_site_type_symbol
 _atom_site_label
 _atom_site_symmetry_multiplicity
 _atom_site_fract_x
 _atom_site_fract_y
 _atom_site_fract_z
 _atom_site_occupancy
 _atom_site_hle17_bader_spin_density
 _atom_site_hle17_ddec_charge
 _atom_site_hle17_ddec_spin_density
 _atom_site_hle17_ddec_sum_bond_order
 _atom_site_hle17_magmom
 _atom_site_hse06_10hf_bader_charge
 _atom_site_hse06_10hf_bader_spin_density
 _atom_site_hse06_10hf_ddec_charge
 _atom_site_hse06_10hf_ddec_spin_density
 _atom_site_hse06_10hf_ddec_sum_bond_order
 _atom_site_hse06_10hf_magmom
 _atom_site_hse06_bader_spin_density
 _atom_site_hse06_ddec_charge
 _atom_site_hse06_ddec_spin_density
 _atom_site_hse06_ddec_sum_bond_order
 _atom_site_hse06_magmom
 _atom_site_pbe_bader_spin_density
 _atom_site_pbe_cm5_charge
 _atom_site_pbe_ddec_charge
 _atom_site_pbe_ddec_spin_density
 _atom_site_pbe_ddec_sum_bond_order
 _atom_site_pbe_magmom
Cu  Cu0  1  0.99999696  0.00001402  0.99998777  1  0  0.556798  0  1.759985  0  0.661195  0  0.450229  0  2.171904  0  0  0.464527  0  2.131887  0  0  0.567911  0.44201  0  2.198192  0
Cu  Cu1  1  0.00000155  0.49999739  0.99999804  1  0  0.286393  0  2.014786  0  0.520097  0  0.19645  0  2.447817  0  0  0.205376  0  2.396008  0  0  0.34809  0.191576  0  2.483659  0
Cu  Cu2  1  0.65284493  0.33091814  0.07972215  1  0  0.451666  0  2.238857  0  0.70263  0  0.374935  0  2.719779  0  0  0.366694  0  2.677981  0  0  0.522075  0.383295  0  2.746349  0
Cu  Cu3  1  0.34716699  0.66910464  0.92027204  1  0  0.451686  0  2.238563  0  0.702777  0  0.374934  0  2.719473  0  0  0.366701  0  2.677667  0  0  0.522113  0.383298  0  2.746054  0
Cu  Cu4  1  0.72399096  0.49625482  0.30906779  1  0  0.42094  0  1.959851  0  0.592407  0  0.326568  0  2.395963  0  0  0.333303  0  2.35404  0  0  0.46188  0.323919  0  2.423355  0
Cu  Cu5  1  0.27602132  0.50372879  0.69094056  1  0  0.420995  0  1.959829  0  0.592661  0  0.326628  0  2.395938  0  0  0.33336  0  2.354026  0  0  0.461887  0.323979  0  2.42333  0
Cu  Cu6  1  0.92952893  0.72115621  0.47269489  1  0  0.417567  0  2.372946  0  0.713773  0  0.337217  0  2.871182  0  0  0.323941  0  2.833339  0  0  0.55636  0.349086  0  2.894137  0
Cu  Cu7  1  0.07045843  0.27883877  0.52730784  1  0  0.417499  0  2.372766  0  0.713818  0  0.337139  0  2.870999  0  0  0.323889  0  2.833107  0  0  0.556358  0.349005  0  2.89395  0
Cu  Cu8  1  0.60835450  0.62953492  0.53811628  1  0  0.336765  0  2.248555  0  0.591579  0  0.25171  0  2.730111  0  0  0.247019  0  2.683869  0  0  0.444512  0.257805  0  2.759128  0
Cu  Cu9  1  0.39164604  0.37044864  0.46188808  1  0  0.336715  0  2.248564  0  0.591715  0  0.251659  0  2.730099  0  0  0.246932  0  2.683954  0  0  0.444444  0.257746  0  2.759113  0
H  H10  1  0.97893134  0.87024122  0.28225911  1  0  0.074938  0  0.927514  0  0.098046  0  0.087  0  0.987157  0  0  0.089221  0  0.985501  0  0  0.11702  0.085237  0  0.988595  0
H  H11  1  0.02106327  0.12975474  0.71774108  1  0  0.074992  0  0.927463  0  0.098283  0  0.087031  0  0.987142  0  0  0.089271  0  0.985467  0  0  0.117039  0.085266  0  0.988581  0
H  H12  1  0.91074100  0.08338112  0.19945708  1  0  0.105376  0  0.961809  0  0.158261  0  0.116263  0  1.020872  0  0  0.118468  0  1.020987  0  0  0.106418  0.114683  0  1.020887  0
H  H13  1  0.08925486  0.91661661  0.80054444  1  0  0.105381  0  0.961775  0  0.158232  0  0.116279  0  1.020826  0  0  0.118486  0  1.020942  0  0  0.106417  0.1147  0  1.020843  0
H  H14  1  0.77256538  0.22511679  0.28210878  1  0  0.09484  0  0.983142  0  0.152564  0  0.107188  0  1.04218  0  0  0.109027  0  1.041199  0  0  0.102097  0.105775  0  1.042991  0
H  H15  1  0.22743287  0.77488542  0.71789097  1  0  0.094829  0  0.983226  0  0.152565  0  0.10717  0  1.042257  0  0  0.109017  0  1.041265  0  0  0.102112  0.105758  0  1.043065  0
H  H16  1  0.70102273  0.14939617  0.44085343  1  0  0.102509  0  0.986627  0  0.073527  0  0.112889  0  1.050189  0  0  0.115097  0  1.049993  0  0  0.100678  0.111256  0  1.050502  0
H  H17  1  0.29898173  0.85060342  0.55914708  1  0  0.102546  0  0.986548  0  0.073531  0  0.112907  0  1.050144  0  0  0.115117  0  1.049945  0  0  0.100678  0.111276  0  1.050459  0
H  H18  1  0.69900174  0.08144850  0.56808114  1  0  0.112524  0  0.974251  0  0.084299  0  0.123347  0  1.037197  0  0  0.126128  0  1.036481  0  0  0.108308  0.121351  0  1.037812  0
H  H19  1  0.30099853  0.91854929  0.43191824  1  0  0.112512  0  0.974244  0  0.084272  0  0.123342  0  1.037184  0  0  0.126115  0  1.036492  0  0  0.108302  0.121347  0  1.037802  0
H  H20  1  0.47367388  0.14986827  0.64642675  1  0  0.090795  0  0.968232  0  0.048753  0  0.099864  0  1.033897  0  0  0.101963  0  1.03359  0  0  0.097796  0.098372  0  1.034086  0
H  H21  1  0.52633014  0.85013488  0.35357238  1  0  0.09078  0  0.968173  0  0.048713  0  0.099837  0  1.033852  0  0  0.101936  0  1.033547  0  0  0.097764  0.098349  0  1.034043  0
H  H22  1  0.35486961  0.26826968  0.74303173  1  0  0.081991  0  1.001321  0  0.064113  0  0.089654  0  1.073298  0  0  0.093347  0  1.07102  0  0  0.088271  0.08695  0  1.075031  0
H  H23  1  0.64512298  0.73173070  0.25696822  1  0  0.081964  0  1.001242  0  0.064142  0  0.08962  0  1.073238  0  0  0.09331  0  1.070963  0  0  0.088279  0.086919  0  1.07497  0
H  H24  1  0.27686042  0.18290108  0.95902035  1  0  0.102689  0  0.969423  0  0.06022  0  0.1219  0  1.03745  0  0  0.123152  0  1.03749  0  0  0.083468  0.120992  0  1.037396  0
H  H25  1  0.72312651  0.81709748  0.04097920  1  0  0.102712  0  0.969487  0  0.060249  0  0.121919  0  1.037498  0  0  0.123167  0  1.037539  0  0  0.083492  0.121012  0  1.037445  0
H  H26  1  0.35240331  0.31094895  0.87417751  1  0  0.107505  0  0.961034  0  0.06066  0  0.126954  0  1.025357  0  0  0.127995  0  1.02605  0  0  0.085608  0.126174  0  1.024874  0
H  H27  1  0.64758520  0.68904873  0.12582273  1  0  0.107484  0  0.961038  0  0.060391  0  0.126948  0  1.025345  0  0  0.127986  0  1.026041  0  0  0.08559  0.12617  0  1.024861  0
H  H28  1  0.51750003  0.22920822  0.94635641  1  0  0.116501  0  0.962331  0  0.066178  0  0.135633  0  1.025764  0  0  0.136345  0  1.027189  0  0  0.087611  0.135139  0  1.024664  0
H  H29  1  0.48248668  0.77079208  0.05364578  1  0  0.116535  0  0.962236  0  0.066152  0  0.135624  0  1.025726  0  0  0.136335  0  1.027139  0  0  0.087638  0.135128  0  1.024643  0
H  H30  1  0.61345054  0.00596521  0.94725603  1  0  0.084481  0  0.986921  0  0.040348  0  0.094329  0  1.05614  0  0  0.097615  0  1.053868  0  0  0.093112  0.091874  0  1.058004  0
H  H31  1  0.38654646  0.99403521  0.05274420  1  0  0.084527  0  0.986883  0  0.040408  0  0.094378  0  1.056087  0  0  0.097664  0  1.053816  0  0  0.093121  0.091925  0  1.057949  0
H  H32  1  0.71980992  0.88120404  0.85359367  1  0  0.094405  0  0.952946  0  0.064872  0  0.106615  0  1.012106  0  0  0.109012  0  1.011398  0  0  0.101794  0.104872  0  1.012691  0
H  H33  1  0.28019590  0.11879646  0.14640593  1  0  0.094404  0  0.952997  0  0.065118  0  0.106652  0  1.012115  0  0  0.109029  0  1.011433  0  0  0.101807  0.104907  0  1.012704  0
H  H34  1  0.66069014  0.76180016  0.78362322  1  0  0.115054  0  0.970196  0  0.112331  0  0.121006  0  1.040876  0  0  0.125626  0  1.037354  0  0  0.106817  0.117585  0  1.043691  0
H  H35  1  0.33930811  0.23820204  0.21637653  1  0  0.11506  0  0.970168  0  0.112326  0  0.121005  0  1.04087  0  0  0.125626  0  1.037343  0  0  0.10681  0.117582  0  1.043685  0
H  H36  1  0.88121784  0.60922524  0.80709505  1  0  0.10874  0  0.968133  0  0.107092  0  0.120583  0  1.024185  0  0  0.122016  0  1.025848  0  0  0.107178  0.119567  0  1.023172  0
H  H37  1  0.11878923  0.39077707  0.19290225  1  0  0.108737  0  0.968204  0  0.10704  0  0.120577  0  1.024261  0  0  0.121992  0  1.025946  0  0  0.107203  0.11957  0  1.023222  0
H  H38  1  0.89162527  0.38862718  0.86736883  1  0  0.095437  0  0.940679  0  0.118731  0  0.105637  0  1.003234  0  0  0.108428  0  1.000375  0  0  0.107029  0.103515  0  1.005422  0
H  H39  1  0.10837558  0.61137768  0.13263376  1  0  0.095539  0  0.940681  0  0.118786  0  0.105735  0  1.003228  0  0  0.108528  0  1.000368  0  0  0.107065  0.103615  0  1.005417  0
H  H40  1  0.79830669  0.27142794  0.77823354  1  0  0.101413  0  0.953215  0  0.107266  0  0.115002  0  1.006039  0  0  0.117353  0  1.006881  0  0  0.108862  0.113337  0  1.005586  0
H  H41  1  0.20169322  0.72857242  0.22177314  1  0  0.101352  0  0.953194  0  0.107274  0  0.11499  0  1.005974  0  0  0.11734  0  1.006817  0  0  0.108868  0.113326  0  1.005524  0
H  H42  1  0.69781485  0.38113521  0.63482348  1  0  0.085798  0  0.953792  0  0.129559  0  0.095183  0  1.017333  0  0  0.097151  0  1.015911  0  0  0.115211  0.093599  0  1.018713  0
H  H43  1  0.30218448  0.61885808  0.36518181  1  0  0.085796  0  0.953822  0  0.129582  0  0.095154  0  1.017377  0  0  0.097123  0  1.015954  0  0  0.115222  0.093573  0  1.018756  0
C  C44  1  0.91787910  0.93514786  0.31501045  1  0  0.129809  0  3.715463  0  0.452178  0  0.100374  0  3.969606  0  0  0.105864  0  3.986346  0  0  0.049131  0.096854  0  3.958512  0
C  C45  1  0.08212150  0.06484729  0.68498830  1  0  0.129771  0  3.715453  0  0.452178  0  0.10033  0  3.969644  0  0  0.105805  0  3.986395  0  0  0.049093  0.096812  0  3.958544  0
C  C46  1  0.88059778  0.05357493  0.26941125  1  0  -0.107559  0  3.725273  0  -0.059921  0  -0.119696  0  3.971892  0  0  -0.125898  0  3.993882  0  0  -0.078526  -0.115806  0  3.957305  0
C  C47  1  0.11939481  0.94642544  0.73058931  1  0  -0.107596  0  3.725296  0  -0.060071  0  -0.119723  0  3.97189  0  0  -0.125932  0  3.993893  0  0  -0.078538  -0.115836  0  3.957307  0
C  C48  1  0.80345468  0.13179811  0.31545021  1  0  -0.005364  0  3.711036  0  -0.146749  0  -0.023238  0  3.955564  0  0  -0.019998  0  3.974926  0  0  -0.071203  -0.025156  0  3.94262  0
C  C49  1  0.19654423  0.86819879  0.68454887  1  0  -0.005324  0  3.711008  0  -0.146793  0  -0.023185  0  3.955527  0  0  -0.019949  0  3.974883  0  0  -0.071218  -0.025108  0  3.94259  0
C  C50  1  0.76318656  0.08889922  0.40473605  1  0  -0.126269  0  3.687284  0  0.069055  0  -0.14473  0  3.930738  0  0  -0.151529  0  3.953941  0  0  -0.080444  -0.14045  0  3.915439  0
C  C51  1  0.23681136  0.91110565  0.59526252  1  0  -0.126419  0  3.687529  0  0.068945  0  -0.144891  0  3.930962  0  0  -0.151691  0  3.954165  0  0  -0.080496  -0.140612  0  3.915667  0
C  C52  1  0.80235599  0.96838865  0.44629413  1  0  0.162158  0  3.74877  0  0.487569  0  0.159228  0  3.989556  0  0  0.164347  0  4.008729  0  0  0.110397  0.155852  0  3.976833  0
C  C53  1  0.19764428  0.03160918  0.55370284  1  0  0.162153  0  3.748944  0  0.487636  0  0.159259  0  3.989633  0  0  0.164375  0  4.008805  0  0  0.110355  0.15588  0  3.976908  0
C  C54  1  0.76206662  0.91501620  0.54075990  1  0  0.18589  0  3.751347  0  0.481649  0  0.182186  0  3.997467  0  0  0.189282  0  4.014491  0  0  0.113491  0.17741  0  3.986285  0
C  C55  1  0.23793795  0.08498255  0.45923716  1  0  0.185804  0  3.751562  0  0.48187  0  0.182183  0  3.997565  0  0  0.189282  0  4.014584  0  0  0.113511  0.177405  0  3.986382  0
C  C56  1  0.70758683  0.98519946  0.59508417  1  0  -0.171642  0  3.652427  0  -0.024762  0  -0.199728  0  3.899867  0  0  -0.206939  0  3.920381  0  0  -0.079071  -0.195129  0  3.886363  0
C  C57  1  0.29241165  0.01480098  0.40491475  1  0  -0.171593  0  3.652569  0  -0.024817  0  -0.199685  0  3.900003  0  0  -0.206896  0  3.920515  0  0  -0.07906  -0.195091  0  3.886508  0
C  C58  1  0.66982569  0.93279272  0.68438410  1  0  0.117882  0  3.777443  0  0.021878  0  0.12932  0  4.009146  0  0  0.135646  0  4.030532  0  0  0.013018  0.125122  0  3.994748  0
C  C59  1  0.33017899  0.06720512  0.31561436  1  0  0.117891  0  3.777388  0  0.021842  0  0.129247  0  4.009213  0  0  0.135563  0  4.030631  0  0  0.012979  0.12505  0  3.994819  0
C  C60  1  0.60496719  0.00523900  0.74226492  1  0  0.013047  0  3.805214  0  0.047521  0  0.029272  0  4.035324  0  0  0.025954  0  4.059695  0  0  -0.018867  0.031493  0  4.018748  0
C  C61  1  0.39502823  0.99476229  0.25773463  1  0  0.013148  0  3.805254  0  0.047676  0  0.029405  0  4.035369  0  0  0.026096  0  4.059729  0  0  -0.01879  0.031628  0  4.018793  0
C  C62  1  0.50423231  0.11630622  0.71256902  1  0  -0.087276  0  3.741747  0  -0.111172  0  -0.105488  0  3.98221  0  0  -0.106601  0  4.006043  0  0  -0.089257  -0.104483  0  3.965873  0
C  C63  1  0.49577340  0.88369519  0.28742857  1  0  -0.087278  0  3.741761  0  -0.111264  0  -0.105483  0  3.982216  0  0  -0.106598  0  4.006048  0  0  -0.089215  -0.104482  0  3.965885  0
C  C64  1  0.43640827  0.18366996  0.76749172  1  0  -0.139735  0  3.758944  0  -0.02712  0  -0.152932  0  3.993563  0  0  -0.159223  0  4.017125  0  0  -0.098486  -0.14869  0  3.977638  0
C  C65  1  0.56358567  0.81633130  0.23250914  1  0  -0.139633  0  3.758943  0  -0.027151  0  -0.152814  0  3.993579  0  0  -0.159105  0  4.01715  0  0  -0.098444  -0.148573  0  3.977655  0
C  C66  1  0.47259038  0.14596961  0.85301289  1  0  0.147316  0  3.766607  0  0.006691  0  0.175289  0  3.995116  0  0  0.17766  0  4.019195  0  0  -0.006477  0.173695  0  3.978736  0
C  C67  1  0.52740559  0.85402725  0.14698761  1  0  0.147366  0  3.766334  0  0.006694  0  0.175316  0  3.994874  0  0  0.177692  0  4.01895  0  0  -0.00649  0.173723  0  3.978498  0
C  C68  1  0.40210106  0.22126106  0.91068284  1  0  -0.344311  0  3.730423  0  -0.112073  0  -0.419479  0  3.954402  0  0  -0.423521  0  3.966874  0  0  -0.246706  -0.416314  0  3.945594  0
C  C69  1  0.59789028  0.77873752  0.08931760  1  0  -0.344327  0  3.730427  0  -0.111793  0  -0.41947  0  3.954451  0  0  -0.423494  0  3.966919  0  0  -0.246725  -0.416313  0  3.945642  0
C  C70  1  0.57817886  0.03646711  0.88179654  1  0  -0.139851  0  3.752934  0  -0.018229  0  -0.159637  0  4.000348  0  0  -0.164215  0  4.021754  0  0  -0.097659  -0.156611  0  3.986007  0
C  C71  1  0.42182086  0.96353509  0.11820431  1  0  -0.140028  0  3.752983  0  -0.018194  0  -0.159806  0  4.000427  0  0  -0.164392  0  4.021829  0  0  -0.097718  -0.15678  0  3.986084  0
C  C72  1  0.64003866  0.96618582  0.82830868  1  0  -0.094197  0  3.752232  0  -0.102238  0  -0.116281  0  4.003583  0  0  -0.116618  0  4.024024  0  0  -0.087394  -0.115828  0  3.989649  0
C  C73  1  0.35996128  0.03381463  0.17169074  1  0  -0.094192  0  3.752508  0  -0.102568  0  -0.11631  0  4.003846  0  0  -0.116631  0  4.024289  0  0  -0.087413  -0.115855  0  3.989907  0
C  C74  1  0.69427839  0.80856703  0.71517334  1  0  -0.176767  0  3.644298  0  0.005878  0  -0.200808  0  3.888687  0  0  -0.208905  0  3.908919  0  0  -0.076366  -0.19558  0  3.87545  0
C  C75  1  0.30572291  0.19143430  0.28482760  1  0  -0.176818  0  3.644248  0  0.005894  0  -0.200862  0  3.888653  0  0  -0.208958  0  3.908885  0  0  -0.076367  -0.195636  0  3.875419  0
C  C76  1  0.75289994  0.74299715  0.65784478  1  0  0.19512  0  3.743792  0  0.524615  0  0.19276  0  3.986334  0  0  0.199066  0  4.00426  0  0  0.118391  0.188523  0  3.97452  0
C  C77  1  0.24709706  0.25700328  0.34215425  1  0  0.195102  0  3.74384  0  0.524536  0  0.192829  0  3.986298  0  0  0.199136  0  4.004222  0  0  0.118403  0.188593  0  3.974481  0
C  C78  1  0.77583283  0.61181777  0.69144924  1  0  0.173795  0  3.728747  0  0.400532  0  0.168782  0  3.969145  0  0  0.175109  0  3.986854  0  0  0.114588  0.164574  0  3.957532  0
C  C79  1  0.22416596  0.38817998  0.30855268  1  0  0.173806  0  3.728687  0  0.400678  0  0.168744  0  3.969091  0  0  0.175072  0  3.986801  0  0  0.11463  0.164537  0  3.957465  0
C  C80  1  0.83945861  0.55615539  0.77100151  1  0  -0.135693  0  3.719857  0  0.074644  0  -0.153512  0  3.963559  0  0  -0.160149  0  3.985462  0  0  -0.078912  -0.149375  0  3.949075  0
C  C81  1  0.16053905  0.44383975  0.22899563  1  0  -0.135532  0  3.719582  0  0.074621  0  -0.153327  0  3.963257  0  0  -0.159951  0  3.985169  0  0  -0.078871  -0.14919  0  3.948781  0
C  C82  1  0.84660015  0.43271160  0.80429622  1  0  0.003612  0  3.705407  0  -0.122223  0  -0.014543  0  3.952449  0  0  -0.009964  0  3.96875  0  0  -0.063806  -0.017464  0  3.941503  0
C  C83  1  0.15340713  0.56728887  0.19570690  1  0  0.003303  0  3.705633  0  -0.122222  0  -0.014856  0  3.952684  0  0  -0.010282  0  3.968994  0  0  -0.063923  -0.017777  0  3.941739  0
C  C84  1  0.79526192  0.36794076  0.75538960  1  0  -0.09631  0  3.713381  0  0.022002  0  -0.106629  0  3.956782  0  0  -0.113554  0  3.978603  0  0  -0.075727  -0.102288  0  3.942346  0
C  C85  1  0.20474433  0.63205618  0.24461137  1  0  -0.096151  0  3.713418  0  0.02208  0  -0.10652  0  3.956801  0  0  -0.113446  0  3.978629  0  0  -0.0757  -0.10218  0  3.942369  0
C  C86  1  0.73708479  0.42850430  0.67560118  1  0  0.123282  0  3.681495  0  0.480076  0  0.092477  0  3.936911  0  0  0.099613  0  3.951286  0  0  0.042843  0.087584  0  3.927908  0
C  C87  1  0.26291241  0.57149428  0.32440428  1  0  0.123215  0  3.681199  0  0.480069  0  0.092439  0  3.936611  0  0  0.099577  0  3.950984  0  0  0.042788  0.08754  0  3.927614  0
C  C88  1  0.80716650  0.21373001  0.04340128  1  0  -0.083439  0  3.501437  0  0.758492  0  -0.086721  0  3.858311  0  0  -0.067215  0  3.850739  0  0  -0.034306  -0.100547  0  3.863048  0
C  C89  1  0.19284069  0.78629543  0.95658903  1  0  -0.083493  0  3.501703  0  0.758299  0  -0.086758  0  3.858544  0  0  -0.067255  0  3.850974  0  0  -0.034281  -0.100582  0  3.863284  0
C  C90  1  0.23574725  0.42226802  0.03099477  1  0  -0.058887  0  3.487499  0  0.74453  0  -0.041679  0  3.829581  0  0  -0.032932  0  3.823213  0  0  -0.038418  -0.048584  0  3.835017  0
C  C91  1  0.76425815  0.57773609  0.96899923  1  0  -0.05889  0  3.487569  0  0.744882  0  -0.041696  0  3.829671  0  0  -0.032949  0  3.823305  0  0  -0.038382  -0.048599  0  3.835105  0
C  C92  1  0.68949778  0.43739637  0.22361254  1  0  -0.102307  0  3.532335  0  0.740644  0  -0.085984  0  3.887193  0  0  -0.077186  0  3.882408  0  0  -0.042284  -0.092657  0  3.890652  0
C  C93  1  0.31051107  0.56260319  0.77639370  1  0  -0.102319  0  3.532576  0  0.740522  0  -0.085982  0  3.887417  0  0  -0.077192  0  3.882633  0  0  -0.042232  -0.092653  0  3.890882  0
C  C94  1  0.80548180  0.62319088  0.42886869  1  0  -0.091693  0  3.618723  0  0.679704  0  -0.096592  0  4.004203  0  0  -0.07079  0  3.987786  0  0  -0.075086  -0.11532  0  4.015433  0
C  C95  1  0.19452981  0.37679800  0.57114335  1  0  -0.091398  0  3.618124  0  0.680341  0  -0.096245  0  4.003511  0  0  -0.070448  0  3.987096  0  0  -0.074831  -0.114972  0  4.014739  0
C  C96  1  0.35619215  0.67203400  0.51113154  1  0  -0.109024  0  3.531943  0  0.719292  0  -0.104122  0  3.908103  0  0  -0.08964  0  3.897019  0  0  -0.05578  -0.114897  0  3.915695  0
C  C97  1  0.64379768  0.32795307  0.48886735  1  0  -0.1091  0  3.532016  0  0.719107  0  -0.104218  0  3.90822  0  0  -0.089738  0  3.897147  0  0  -0.055857  -0.114992  0  3.915809  0
N  N98  1  0.88934709  0.13096920  0.02527119  1  0  -0.44785  0  3.442484  0  -1.436251  0  -0.365073  0  3.780411  0  0  -0.38639  0  3.781478  0  0  -0.466432  -0.350993  0  3.779239  0
N  N99  1  0.11064690  0.86905622  0.97471040  1  0  -0.44773  0  3.442794  0  -1.436009  0  -0.364947  0  3.780661  0  0  -0.386266  0  3.781744  0  0  -0.466402  -0.350863  0  3.779481  0
N  N100  1  0.38699576  0.37679880  0.05157690  1  0  -0.365384  0  3.22314  0  -1.388203  0  -0.302387  0  3.522461  0  0  -0.31526  0  3.529944  0  0  -0.403852  -0.294308  0  3.517623  0
N  N101  1  0.61301261  0.62321682  0.94841974  1  0  -0.365419  0  3.22324  0  -1.388482  0  -0.302409  0  3.522548  0  0  -0.315284  0  3.530033  0  0  -0.403906  -0.294331  0  3.517709  0
N  N102  1  0.67708617  0.39898686  0.16768425  1  0  -0.374275  0  3.295994  0  -1.390047  0  -0.316265  0  3.611528  0  0  -0.327991  0  3.616703  0  0  -0.41887  -0.308828  0  3.607845  0
N  N103  1  0.32292328  0.60101985  0.83231793  1  0  -0.374322  0  3.296291  0  -1.390065  0  -0.316308  0  3.611762  0  0  -0.328048  0  3.616977  0  0  -0.418925  -0.308863  0  3.608059  0
N  N104  1  0.77855171  0.57625990  0.37893812  1  0  -0.371825  0  3.345883  0  -1.365724  0  -0.296883  0  3.670329  0  0  -0.316873  0  3.67267  0  0  -0.450407  -0.28386  0  3.668823  0
N  N105  1  0.22146349  0.42372368  0.62107547  1  0  -0.37203  0  3.345839  0  -1.366493  0  -0.297124  0  3.670324  0  0  -0.317125  0  3.67269  0  0  -0.450641  -0.2841  0  3.66882  0
N  N106  1  0.19620016  0.69341451  0.49225595  1  0  -0.367674  0  3.293654  0  -1.408186  0  -0.317307  0  3.628701  0  0  -0.327254  0  3.630426  0  0  -0.433275  -0.311054  0  3.627314  0
N  N107  1  0.80379238  0.30657434  0.50774477  1  0  -0.367601  0  3.293495  0  -1.408059  0  -0.317223  0  3.628546  0  0  -0.327171  0  3.630272  0  0  -0.433188  -0.310972  0  3.627155  0
N  N108  1  0.72575343  0.54796498  0.64422666  1  0  -0.31214  0  3.388886  0  -1.271415  0  -0.244821  0  3.676896  0  0  -0.253892  0  3.681168  0  0  -0.362746  -0.23957  0  3.674391  0
N  N109  1  0.27424716  0.45203013  0.35577512  1  0  -0.312049  0  3.388579  0  -1.271694  0  -0.244728  0  3.676572  0  0  -0.253802  0  3.680848  0  0  -0.362718  -0.239466  0  3.674055  0
N  N110  1  0.78464001  0.79493338  0.57162824  1  0  -0.352775  0  3.247245  0  -1.233591  0  -0.295863  0  3.522804  0  0  -0.303107  0  3.52644  0  0  -0.338751  -0.291667  0  3.520737  0
N  N111  1  0.21536140  0.20506707  0.42837228  1  0  -0.352755  0  3.247266  0  -1.233681  0  -0.295926  0  3.522827  0  0  -0.30316  0  3.526439  0  0  -0.338769  -0.291729  0  3.520757  0
N  N112  1  0.88044351  0.89340761  0.40107623  1  0  -0.313238  0  3.340136  0  -1.237063  0  -0.252143  0  3.624866  0  0  -0.260756  0  3.633195  0  0  -0.352888  -0.246869  0  3.619059  0
N  N113  1  0.11955350  0.10659283  0.59892159  1  0  -0.313157  0  3.339919  0  -1.237033  0  -0.252092  0  3.62468  0  0  -0.260707  0  3.633021  0  0  -0.352836  -0.246815  0  3.618864  0
