# generated using pymatgen
data_CoH6C12(N2F)2
_symmetry_space_group_name_H-M   'P 1'
_cell_length_a   6.90590462
_cell_length_b   8.44541356
_cell_length_c   24.84379384
_cell_angle_alpha   89.99984980
_cell_angle_beta   90.00000486
_cell_angle_gamma   129.14595468
_symmetry_Int_Tables_number   1
_chemical_formula_structural   CoH6C12(N2F)2
_chemical_formula_sum   'Co4 H24 C48 N16 F8'
_cell_volume   1123.73470541
_cell_formula_units_Z   4
loop_
 _symmetry_equiv_pos_site_id
 _symmetry_equiv_pos_as_xyz
  1  'x, y, z'
loop_
 _atom_site_type_symbol
 _atom_site_label
 _atom_site_symmetry_multiplicity
 _atom_site_fract_x
 _atom_site_fract_y
 _atom_site_fract_z
 _atom_site_occupancy
 _atom_site_hle17_ddec_charge
 _atom_site_hle17_ddec_spin_density
 _atom_site_hle17_ddec_sum_bond_order
 _atom_site_hle17_magmom
 _atom_site_hse06_10hf_bader_charge
 _atom_site_hse06_10hf_bader_spin_density
 _atom_site_hse06_10hf_ddec_charge
 _atom_site_hse06_10hf_ddec_spin_density
 _atom_site_hse06_10hf_ddec_sum_bond_order
 _atom_site_hse06_10hf_magmom
 _atom_site_hse06_ddec_charge
 _atom_site_hse06_ddec_spin_density
 _atom_site_hse06_ddec_sum_bond_order
 _atom_site_hse06_magmom
 _atom_site_pbe_cm5_charge
 _atom_site_pbe_ddec_charge
 _atom_site_pbe_ddec_spin_density
 _atom_site_pbe_ddec_sum_bond_order
 _atom_site_pbe_magmom
Co  Co0  1  0.27907314  0.54066608  0.49553595  1  0.750139  2.761317  2.252424  2.474  1.187376  2.592192  0.663497  2.789368  2.728629  2.521  0.751771  2.845131  2.654358  2.626  0.726171  0.593689  2.734911  2.78646  2.423
Co  Co1  1  0.72091782  0.95933335  0.99553706  1  0.750222  2.761327  2.252323  2.474  1.18736  2.592194  0.663569  2.789378  2.728516  2.521  0.751846  2.845138  2.654245  2.626  0.726186  0.593755  2.734925  2.786358  2.423
Co  Co2  1  0.72088001  0.45930720  0.50446255  1  0.750209  2.761326  2.252373  2.474  1.187231  2.592164  0.663543  2.789346  2.728629  2.521  0.75183  2.845116  2.654338  2.626  0.726243  0.593723  2.734896  2.786473  2.423
Co  Co3  1  0.27912447  0.04070150  0.00446507  1  0.750158  2.76132  2.252388  2.474  1.187388  2.592161  0.663479  2.789336  2.728657  2.521  0.751755  2.8451  2.6544  2.626  0.726249  0.593652  2.734882  2.786535  2.423
H  H4  1  0.61927876  0.84187658  0.78550479  1  0.130097  -6.9e-05  0.950597  0.0  0.120235  5.7e-05  0.135223  -5e-06  1.01864  0.0  0.139546  -3e-06  1.015635  0.0  0.105107  0.132344  -1e-05  1.020891  0.0
H  H5  1  0.38069075  0.65810878  0.28550154  1  0.130093  -6.8e-05  0.950594  0.0  0.139171  5.5e-05  0.135717  -5e-06  1.018103  0.0  0.139552  -3e-06  1.015626  0.0  0.105126  0.132353  -1e-05  1.02086  0.0
H  H6  1  0.38071262  0.15811160  0.21449211  1  0.13012  -6.7e-05  0.950581  0.0  0.120731  5.7e-05  0.135715  -5e-06  1.018141  0.0  0.139538  -3e-06  1.01569  0.0  0.105151  0.132362  -1e-05  1.020879  0.0
H  H7  1  0.61928760  0.34185963  0.71449092  1  0.130168  -6.8e-05  0.950514  0.0  0.120625  5.7e-05  0.135203  -5e-06  1.018872  0.0  0.13958  -3e-06  1.015606  0.0  0.105148  0.132428  -1e-05  1.020792  0.0
H  H8  1  0.95847378  0.82274823  0.69866821  1  0.132498  -4.3e-05  0.947823  0.0  0.115062  3.9e-05  0.137554  -6e-06  1.01463  0.0  0.14173  -6e-06  1.011346  0.0  0.106887  0.134275  -7e-06  1.017332  0.0
H  H9  1  0.04151131  0.67724606  0.19867020  1  0.132583  -4.6e-05  0.947769  0.0  0.115148  3.9e-05  0.137731  -6e-06  1.01432  0.0  0.1418  -6e-06  1.011302  0.0  0.106908  0.134319  -7e-06  1.017325  0.0
H  H10  1  0.04150977  0.17724928  0.30133513  1  0.13252  -4.6e-05  0.947826  0.0  0.115121  3.9e-05  0.137684  -6e-06  1.01437  0.0  0.14174  -6e-06  1.011369  0.0  0.106885  0.134274  -7e-06  1.017368  0.0
H  H11  1  0.95852016  0.32276272  0.80133635  1  0.132679  -4.4e-05  0.947719  0.0  0.114929  3.9e-05  0.137324  -6e-06  1.015018  0.0  0.141888  -6e-06  1.011247  0.0  0.106938  0.134427  -7e-06  1.017241  0.0
H  H12  1  0.58601964  0.88345634  0.58564117  1  0.110856  -1.2e-05  0.932575  0.0  0.135077  0.001312  0.119891  0.000474  0.992932  0.001  0.122448  0.000294  0.989877  0.0  0.121579  0.11787  0.000662  0.995633  0.001
H  H13  1  0.41398252  0.61653932  0.08564280  1  0.110877  -1e-05  0.932619  0.0  0.135128  0.001312  0.119931  0.000474  0.992964  0.001  0.122482  0.000294  0.989897  0.0  0.12161  0.117905  0.000662  0.995648  0.001
H  H14  1  0.41393995  0.11653552  0.41435411  1  0.110793  -1.1e-05  0.932762  0.0  0.134904  0.001313  0.119949  0.000474  0.992986  0.001  0.122501  0.000294  0.989918  0.0  0.121549  0.11792  0.000662  0.995674  0.001
H  H15  1  0.58606709  0.38347271  0.91435853  1  0.110834  -1.2e-05  0.932715  0.0  0.134665  0.001313  0.119692  0.000474  0.99344  0.001  0.122514  0.000294  0.98989  0.0  0.12157  0.117931  0.000662  0.99565  0.001
H  H16  1  0.83104960  0.64923409  0.61870104  1  0.101393  -0.000329  0.967655  0.0  0.13468  0.000895  0.113675  0.000173  1.025981  0.0  0.115089  7.6e-05  1.025325  0.0  0.11994  0.112569  0.000284  1.026727  0.001
H  H17  1  0.16895113  0.85077175  0.11870004  1  0.101328  -0.000328  0.967715  0.0  0.134731  0.000895  0.113624  0.000173  1.026065  0.0  0.11503  7.5e-05  1.025381  0.0  0.119924  0.112513  0.000284  1.026776  0.001
H  H18  1  0.16890293  0.35072299  0.38130350  1  0.101305  -0.000329  0.96756  0.0  0.134679  0.000895  0.113615  0.000173  1.025897  0.0  0.115023  7.6e-05  1.025208  0.0  0.119905  0.112496  0.000284  1.026619  0.001
H  H19  1  0.83109797  0.14926968  0.88130088  1  0.101373  -0.000328  0.967539  0.0  0.134842  0.000895  0.113563  0.000173  1.026059  0.0  0.115043  7.5e-05  1.025242  0.0  0.119918  0.112511  0.000284  1.02666  0.001
H  H20  1  0.55934991  0.74660919  0.87935886  1  0.101267  0.000137  0.945809  0.001  0.093854  0.001382  0.111633  0.00051  1.00778  0.001  0.11323  0.000344  1.006301  0.001  0.118635  0.110553  0.000679  1.008827  0.001
H  H21  1  0.44061990  0.75337675  0.37935672  1  0.101239  0.000136  0.945801  0.001  0.094087  0.001382  0.111739  0.00051  1.007533  0.001  0.113222  0.000345  1.006272  0.001  0.118605  0.110543  0.000679  1.008803  0.001
H  H22  1  0.44067800  0.25341370  0.12064286  1  0.101161  0.000137  0.945902  0.001  0.093925  0.001382  0.111688  0.00051  1.007619  0.001  0.113175  0.000345  1.006352  0.001  0.118611  0.110495  0.000679  1.008886  0.001
H  H23  1  0.55933149  0.24659354  0.62063614  1  0.101168  0.000137  0.945873  0.001  0.094227  0.001381  0.11158  0.00051  1.007812  0.001  0.113176  0.000345  1.006311  0.001  0.118616  0.110496  0.000679  1.008843  0.001
H  H24  1  0.08910487  0.91982188  0.88861422  1  0.098456  -8.6e-05  0.984932  0.0  0.101891  0.00097  0.103673  0.000243  1.055724  0.001  0.105658  0.000102  1.053787  0.0  0.114708  0.102626  0.000401  1.056517  0.001
H  H25  1  0.91090287  0.58019356  0.38861343  1  0.098337  -8.6e-05  0.984951  0.0  0.100794  0.000972  0.103993  0.000243  1.055001  0.001  0.105565  0.000102  1.053797  0.0  0.114637  0.102518  0.000401  1.05654  0.001
H  H26  1  0.91091120  0.08019084  0.11139032  1  0.098398  -8.6e-05  0.98492  0.0  0.101071  0.000971  0.104034  0.000243  1.055019  0.001  0.105608  0.000102  1.053811  0.0  0.114668  0.102568  0.000401  1.056538  0.001
H  H27  1  0.08908037  0.41979584  0.61138708  1  0.098413  -8.6e-05  0.984842  0.0  0.10012  0.000972  0.103632  0.000243  1.055656  0.001  0.105609  0.000102  1.053724  0.0  0.114681  0.102571  0.000401  1.056448  0.001
C  C28  1  0.27805784  0.83391725  0.68408350  1  -0.006701  0.001457  3.826537  0.002  0.072453  0.002137  -0.003192  0.001085  4.072705  0.001  -0.002752  0.000696  4.095397  0.001  -0.016638  -0.003484  0.00171  4.057792  0.002
C  C29  1  0.72194218  0.66607984  0.18408344  1  -0.006553  0.001434  3.826435  0.002  0.072861  0.002148  -0.00285  0.001092  4.072227  0.001  -0.002607  0.000699  4.095318  0.001  -0.01656  -0.003343  0.00171  4.057716  0.002
C  C30  1  0.72191696  0.16606527  0.31591702  1  -0.006623  0.001434  3.826617  0.002  0.073079  0.002141  -0.002854  0.001088  4.072281  0.001  -0.002609  0.000697  4.09537  0.001  -0.016612  -0.00336  0.00171  4.057785  0.002
C  C31  1  0.27809238  0.33392413  0.81591667  1  -0.00642  0.001448  3.826591  0.002  0.072945  0.002139  -0.003164  0.001086  4.07354  0.001  -0.002406  0.000696  4.095332  0.001  -0.016545  -0.003133  0.001709  4.057758  0.002
C  C32  1  0.46156629  0.84335093  0.71209290  1  0.259879  0.00072  3.754113  0.001  0.332525  0.001294  0.23241  0.000641  4.051497  0.001  0.242148  0.000306  4.06128  0.0  0.087952  0.224838  0.001107  4.045652  0.001
C  C33  1  0.53842464  0.65664830  0.21208803  1  0.259949  0.000734  3.753949  0.001  0.332073  0.001289  0.232783  0.000639  4.050764  0.001  0.242181  0.000306  4.061174  0.0  0.087928  0.224858  0.001107  4.045552  0.001
C  C34  1  0.53841695  0.15663847  0.28790682  1  0.259831  0.000741  3.75425  0.001  0.331847  0.001295  0.232667  0.000642  4.051012  0.001  0.242067  0.000306  4.061418  0.0  0.087922  0.224729  0.001107  4.045829  0.001
C  C35  1  0.46159060  0.34334281  0.78790685  1  0.25985  0.000728  3.754333  0.001  0.331767  0.001294  0.231136  0.000641  4.053122  0.001  0.242054  0.000306  4.061564  0.0  0.087927  0.22471  0.001107  4.045976  0.001
C  C36  1  0.47128297  0.83629556  0.76755222  1  -0.210096  0.00101  3.738955  0.001  0.111396  0.001511  -0.244292  0.000788  4.009188  0.001  -0.248554  0.000521  4.02752  0.001  -0.101538  -0.241446  0.00115  3.99729  0.001
C  C37  1  0.52868336  0.66368940  0.26754816  1  -0.210152  0.000997  3.738877  0.001  0.092446  0.001507  -0.244077  0.000784  4.008389  0.001  -0.248611  0.000518  4.027437  0.001  -0.101602  -0.241494  0.00115  3.997218  0.001
C  C38  1  0.52870455  0.16369864  0.23244789  1  -0.210076  0.000988  3.738941  0.001  0.110767  0.001505  -0.243979  0.000784  4.008468  0.001  -0.248511  0.00052  4.02751  0.001  -0.101588  -0.2414  0.00115  3.997301  0.001
C  C39  1  0.47131385  0.33630117  0.73244793  1  -0.210325  0.001001  3.73908  0.001  0.110617  0.001509  -0.244985  0.000786  4.010399  0.001  -0.248828  0.000521  4.027715  0.001  -0.101625  -0.241739  0.00115  3.997452  0.001
C  C40  1  0.29267893  0.82093351  0.79999817  1  0.000576  0.000809  3.824088  0.001  0.072039  0.001541  0.003872  0.000796  4.070266  0.001  0.005461  0.000379  4.091497  0.0  -0.015227  0.003308  0.001395  4.054838  0.001
C  C41  1  0.70729390  0.67905500  0.29999649  1  0.000619  0.000827  3.823788  0.001  0.072181  0.001549  0.004535  0.000801  4.068579  0.001  0.005575  0.000382  4.091183  0.0  -0.015175  0.003405  0.001394  4.054543  0.001
C  C42  1  0.70732044  0.17907085  0.20000195  1  0.000691  0.000829  3.823777  0.001  0.072132  0.001546  0.004496  0.000799  4.068642  0.001  0.005524  0.00038  4.091244  0.0  -0.015167  0.003373  0.001394  4.05458  0.001
C  C43  1  0.29269924  0.32093618  0.70000201  1  0.000575  0.000816  3.823905  0.001  0.072242  0.001542  0.004198  0.000797  4.06947  0.001  0.00563  0.000379  4.091124  0.0  -0.015234  0.003475  0.001394  4.054483  0.001
C  C44  1  0.11515473  0.81976085  0.77194650  1  0.259377  0.001005  3.746619  0.001  0.315869  0.00142  0.231837  0.000713  4.040923  0.001  0.242389  0.000446  4.050039  0.001  0.089559  0.225781  0.001145  4.033395  0.001
C  C45  1  0.88481982  0.68022553  0.27194883  1  0.259421  0.000982  3.746446  0.001  0.315548  0.001418  0.233563  0.000712  4.038923  0.001  0.242418  0.000445  4.049902  0.001  0.089567  0.225785  0.001145  4.033277  0.001
C  C46  1  0.88484552  0.18024501  0.22805361  1  0.259416  0.00098  3.746222  0.001  0.315815  0.001418  0.233555  0.000712  4.038706  0.001  0.242411  0.000446  4.049685  0.001  0.089545  0.225822  0.001145  4.033022  0.001
C  C47  1  0.11519615  0.31978448  0.72805450  1  0.25943  0.000997  3.746545  0.001  0.315852  0.00142  0.232003  0.000713  4.040269  0.001  0.242394  0.000446  4.049931  0.001  0.089555  0.225796  0.001144  4.033271  0.001
C  C48  1  0.10465607  0.82574416  0.71655681  1  -0.21063  0.000451  3.74571  0.001  0.081815  0.00102  -0.243241  0.00054  4.014713  0.001  -0.246705  0.000248  4.032088  0.0  -0.10168  -0.240375  0.000886  4.002241  0.001
C  C49  1  0.89535689  0.67427507  0.21656076  1  -0.210807  0.000483  3.745754  0.001  0.082036  0.001011  -0.242758  0.000536  4.013342  0.001  -0.246888  0.000245  4.032228  0.0  -0.101766  -0.240551  0.000886  4.00242  0.001
C  C50  1  0.89535701  0.17427606  0.28344250  1  -0.210721  0.000483  3.745612  0.001  0.081975  0.001016  -0.242743  0.000539  4.013198  0.001  -0.246868  0.000247  4.032095  0.0  -0.101735  -0.240526  0.000886  4.00225  0.001
C  C51  1  0.10468081  0.32574689  0.78344258  1  -0.210929  0.000461  3.745805  0.001  0.082124  0.001017  -0.243573  0.000539  4.015126  0.001  -0.24696  0.000248  4.032134  0.0  -0.101701  -0.240623  0.000886  4.002279  0.001
C  C52  1  0.23973508  0.80093710  0.62613182  1  -0.050818  0.00654  3.84788  0.008  0.055395  0.010028  -0.033904  0.004944  4.095603  0.006  -0.042078  0.002855  4.120759  0.004  -0.033954  -0.028539  0.007308  4.079036  0.009
C  C53  1  0.76027034  0.69906415  0.12613173  1  -0.050948  0.00654  3.848005  0.008  0.055387  0.010032  -0.033974  0.004947  4.095721  0.006  -0.042215  0.002856  4.120918  0.004  -0.033984  -0.028665  0.007307  4.079183  0.009
C  C54  1  0.76023311  0.19904424  0.37386870  1  -0.050954  0.006542  3.848399  0.008  0.05583  0.010029  -0.033976  0.004946  4.096091  0.006  -0.042218  0.002856  4.12129  0.004  -0.03402  -0.028655  0.007309  4.079533  0.009
C  C55  1  0.23977366  0.30095089  0.87386839  1  -0.050993  0.006538  3.848506  0.008  0.055797  0.010027  -0.034301  0.004945  4.096749  0.006  -0.042264  0.002856  4.121377  0.004  -0.034048  -0.02878  0.007308  4.079728  0.009
C  C56  1  0.39067446  0.81623746  0.58488488  1  0.009166  0.009546  3.686234  0.013  0.408519  0.022092  -0.038678  0.012762  3.963952  0.016  -0.028796  0.010053  3.979478  0.013  0.013577  -0.04566  0.015708  3.953615  0.02
C  C57  1  0.60933013  0.68375730  0.08488482  1  0.009187  0.009543  3.686346  0.013  0.408456  0.022091  -0.038669  0.012761  3.964124  0.016  -0.0288  0.010055  3.979586  0.013  0.013579  -0.045666  0.015711  3.953724  0.02
C  C58  1  0.60927900  0.18374392  0.41511563  1  0.009103  0.009548  3.686585  0.013  0.408208  0.022095  -0.038843  0.012764  3.964354  0.016  -0.028975  0.010056  3.979817  0.013  0.013553  -0.045844  0.015712  3.953949  0.02
C  C59  1  0.39071978  0.31626283  0.91511650  1  0.009007  0.009551  3.686723  0.013  0.408432  0.022094  -0.039202  0.012764  3.965202  0.016  -0.029035  0.010056  3.979944  0.013  0.013532  -0.045884  0.015711  3.954101  0.02
C  C60  1  0.00446676  0.69582381  0.60158651  1  0.005602  0.008944  3.701138  0.013  0.350942  0.020074  -0.036937  0.011342  3.962933  0.015  -0.028171  0.008588  3.981503  0.012  0.012146  -0.042797  0.014236  3.949746  0.018
C  C61  1  0.99553299  0.80417530  0.10158630  1  0.005622  0.008941  3.701233  0.013  0.350912  0.020071  -0.036869  0.01134  3.963016  0.015  -0.028146  0.008588  3.981608  0.012  0.012109  -0.042775  0.014237  3.949845  0.018
C  C62  1  0.99548773  0.30414167  0.39841601  1  0.00582  0.008941  3.701096  0.013  0.350744  0.020073  -0.036699  0.01134  3.962869  0.015  -0.027972  0.008587  3.981456  0.012  0.012197  -0.042608  0.014235  3.9497  0.018
C  C63  1  0.00451229  0.19585204  0.89841341  1  0.005854  0.008944  3.701047  0.013  0.350649  0.020075  -0.03668  0.011341  3.962835  0.015  -0.027902  0.008587  3.981393  0.012  0.01223  -0.042507  0.014235  3.949656  0.018
C  C64  1  0.30627774  0.82142439  0.85856289  1  -0.047368  0.008472  3.828404  0.011  0.007368  0.012113  -0.032129  0.00591  4.07631  0.008  -0.040143  0.003796  4.099894  0.005  -0.035343  -0.02645  0.008367  4.059692  0.01
C  C65  1  0.69369308  0.67856325  0.35856122  1  -0.047318  0.008462  3.828122  0.011  0.006856  0.012122  -0.031832  0.005914  4.075328  0.008  -0.040172  0.003799  4.099711  0.005  -0.035344  -0.026453  0.008367  4.059477  0.01
C  C66  1  0.69374018  0.17859403  0.14143843  1  -0.047568  0.008472  3.828612  0.011  0.007178  0.012118  -0.031991  0.005913  4.07575  0.008  -0.040294  0.003797  4.100084  0.005  -0.035388  -0.026604  0.008366  4.059881  0.01
C  C67  1  0.30628424  0.32142107  0.64143648  1  -0.047377  0.008471  3.828333  0.011  0.007358  0.012116  -0.032084  0.005911  4.075892  0.008  -0.040188  0.003797  4.099768  0.005  -0.03529  -0.026504  0.008367  4.059573  0.01
C  C68  1  0.45213902  0.79501542  0.89074196  1  0.002562  0.004784  3.699926  0.008  0.413023  0.016804  -0.038239  0.009852  3.967559  0.013  -0.029191  0.007291  3.985904  0.01  0.01273  -0.044328  0.012672  3.954514  0.016
C  C69  1  0.54784587  0.70498116  0.39073987  1  0.002588  0.004796  3.699704  0.008  0.412808  0.0168  -0.038172  0.009849  3.967429  0.013  -0.029157  0.00729  3.985722  0.01  0.012831  -0.044311  0.01267  3.954342  0.016
C  C70  1  0.54789230  0.20501076  0.10925976  1  0.002712  0.004787  3.699894  0.008  0.41286  0.016805  -0.038091  0.009852  3.967547  0.013  -0.02909  0.007293  3.985833  0.01  0.012777  -0.044233  0.012674  3.95446  0.016
C  C71  1  0.45211047  0.29499001  0.60925421  1  0.002684  0.004785  3.699775  0.008  0.41291  0.016804  -0.038134  0.009853  3.967428  0.013  -0.029104  0.007291  3.985744  0.01  0.012719  -0.044243  0.012673  3.954375  0.016
C  C72  1  0.21028686  0.88196124  0.89570413  1  0.009396  0.005313  3.70157  0.008  0.458706  0.016584  -0.038764  0.009727  3.974808  0.013  -0.028337  0.007051  3.990928  0.01  0.009253  -0.04541  0.012558  3.962263  0.016
C  C73  1  0.78971511  0.61805445  0.39570412  1  0.009523  0.005326  3.701477  0.008  0.460546  0.016576  -0.038173  0.009725  3.973522  0.013  -0.028186  0.007052  3.9908  0.01  0.009316  -0.04526  0.012558  3.962132  0.016
C  C74  1  0.78973183  0.11805597  0.10429799  1  0.009638  0.005311  3.701473  0.008  0.459753  0.016583  -0.038108  0.009727  3.973535  0.013  -0.028131  0.007053  3.990804  0.01  0.009334  -0.045189  0.012559  3.962125  0.016
C  C75  1  0.21027318  0.38193854  0.60429599  1  0.009601  0.005317  3.701655  0.008  0.46076  0.016582  -0.038447  0.009728  3.974681  0.013  -0.02812  0.007052  3.99098  0.01  0.00936  -0.045177  0.012558  3.962307  0.016
N  N76  1  0.25196729  0.72004362  0.54001498  1  -0.253504  0.043576  3.276543  0.064  -0.801001  0.069316  -0.212809  0.034879  3.600882  0.042  -0.24083  0.024997  3.623704  0.029  -0.285697  -0.19127  0.043865  3.583839  0.054
N  N77  1  0.74803701  0.77995819  0.04001481  1  -0.253611  0.043575  3.276582  0.064  -0.800866  0.069312  -0.212884  0.034878  3.600929  0.042  -0.240906  0.024995  3.623723  0.029  -0.285737  -0.191347  0.043862  3.583858  0.054
N  N78  1  0.74798112  0.27993417  0.45998594  1  -0.253238  0.043569  3.2764  0.064  -0.800382  0.069321  -0.212558  0.034875  3.600769  0.042  -0.240585  0.024993  3.623574  0.029  -0.285596  -0.191023  0.043858  3.583685  0.054
N  N79  1  0.25201760  0.22007753  0.95998732  1  -0.253146  0.043565  3.276249  0.064  -0.800484  0.069315  -0.21246  0.034872  3.600553  0.042  -0.240479  0.02499  3.623396  0.029  -0.285554  -0.190914  0.043855  3.583499  0.054
N  N80  1  0.01185556  0.64387507  0.55090104  1  -0.25547  0.049189  3.352164  0.075  -0.829403  0.077115  -0.210612  0.039401  3.676939  0.05  -0.239188  0.030005  3.700325  0.037  -0.286957  -0.188995  0.04779  3.659913  0.061
N  N81  1  0.98814965  0.85613083  0.05090078  1  -0.255319  0.049191  3.352158  0.075  -0.829601  0.077122  -0.210468  0.039403  3.676955  0.05  -0.239043  0.030006  3.700309  0.037  -0.286903  -0.188853  0.04779  3.659903  0.061
N  N82  1  0.98808925  0.35609403  0.44910108  1  -0.25556  0.049196  3.352008  0.075  -0.829787  0.077103  -0.210668  0.039406  3.676834  0.05  -0.239244  0.030009  3.700185  0.037  -0.286923  -0.189059  0.047796  3.659788  0.061
N  N83  1  0.01190604  0.14391179  0.94910054  1  -0.255698  0.049193  3.351915  0.075  -0.82974  0.077107  -0.21082  0.039405  3.67666  0.05  -0.239393  0.030007  3.700093  0.037  -0.28698  -0.189203  0.047795  3.659688  0.061
N  N84  1  0.45100955  0.84479595  0.94239065  1  -0.248487  0.046336  3.306026  0.07  -0.796812  0.070821  -0.20647  0.035574  3.628797  0.044  -0.23372  0.026203  3.650196  0.031  -0.28429  -0.185573  0.044207  3.613031  0.055
N  N85  1  0.54898446  0.65521120  0.44238981  1  -0.248408  0.046333  3.305556  0.07  -0.796897  0.070827  -0.20639  0.035572  3.628431  0.044  -0.233642  0.0262  3.64973  0.031  -0.284314  -0.185497  0.044205  3.612577  0.055
N  N86  1  0.54903099  0.15523590  0.05760986  1  -0.248575  0.04634  3.305953  0.07  -0.796494  0.070827  -0.206553  0.035577  3.628844  0.044  -0.233804  0.026205  3.650149  0.031  -0.28436  -0.185657  0.04421  3.612995  0.055
N  N87  1  0.45095704  0.34475731  0.55760507  1  -0.248651  0.04634  3.305941  0.07  -0.796984  0.070825  -0.206626  0.035577  3.628761  0.044  -0.233881  0.026204  3.650131  0.031  -0.284383  -0.18573  0.044212  3.612978  0.055
N  N88  1  0.30166247  0.89935927  0.94517322  1  -0.249272  0.050936  3.338304  0.078  -0.817387  0.07876  -0.205142  0.040248  3.660569  0.052  -0.234227  0.030631  3.684267  0.039  -0.286156  -0.183071  0.048841  3.64318  0.063
N  N89  1  0.69834338  0.60065801  0.44517162  1  -0.249424  0.05093  3.33817  0.078  -0.817478  0.078761  -0.205297  0.040248  3.660478  0.052  -0.234394  0.030629  3.684151  0.039  -0.286208  -0.183242  0.048841  3.643073  0.063
N  N90  1  0.69837127  0.10066600  0.05482810  1  -0.249281  0.050938  3.338365  0.078  -0.817778  0.078764  -0.205148  0.040248  3.66065  0.052  -0.234245  0.03063  3.684331  0.039  -0.286142  -0.183093  0.048841  3.643244  0.063
N  N91  1  0.30160405  0.39931558  0.55482608  1  -0.249286  0.050932  3.338608  0.078  -0.817873  0.078763  -0.205151  0.040247  3.660855  0.052  -0.234243  0.03063  3.684542  0.039  -0.286154  -0.183092  0.04884  3.643454  0.063
F  F92  1  0.93945434  0.81202510  0.80076655  1  -0.220326  -6e-06  1.226763  0.0  -0.663286  0.000238  -0.151963  1.8e-05  1.387005  0.0  -0.168414  2e-06  1.385781  0.0  -0.094445  -0.144377  6e-05  1.392332  0.0
F  F93  1  0.06053574  0.68796516  0.30077014  1  -0.220339  -6e-06  1.226575  0.0  -0.663254  0.000237  -0.157267  1.8e-05  1.392667  0.0  -0.16851  2e-06  1.385706  0.0  -0.09444  -0.144397  6e-05  1.392189  0.0
F  F94  1  0.06057141  0.18798399  0.19923678  1  -0.220421  -6e-06  1.226598  0.0  -0.663291  0.000237  -0.157159  1.9e-05  1.392502  0.0  -0.168402  1e-06  1.385544  0.0  -0.094445  -0.144415  6e-05  1.392126  0.0
F  F95  1  0.93946878  0.31204549  0.69923641  1  -0.220349  -6e-06  1.226322  0.0  -0.6631  0.000238  -0.151926  1.8e-05  1.386368  0.0  -0.168493  1e-06  1.385407  0.0  -0.094514  -0.144479  6e-05  1.391978  0.0
F  F96  1  0.63771964  0.85295053  0.68293027  1  -0.218617  -7e-06  1.212203  0.0  -0.660185  0.000295  -0.157673  3.1e-05  1.376907  0.0  -0.168365  4e-06  1.368686  0.0  -0.096352  -0.146076  8e-05  1.377957  0.0
F  F97  1  0.36226817  0.64704841  0.18292704  1  -0.2187  -5e-06  1.212106  0.0  -0.660351  0.000295  -0.157524  3.1e-05  1.376308  0.0  -0.168408  3e-06  1.36858  0.0  -0.096331  -0.14609  8e-05  1.377819  0.0
F  F98  1  0.36224788  0.14703472  0.31706622  1  -0.218642  -6e-06  1.212124  0.0  -0.660296  0.000296  -0.157495  3.2e-05  1.376369  0.0  -0.168379  4e-06  1.368638  0.0  -0.096343  -0.146041  8e-05  1.377864  0.0
F  F99  1  0.63773712  0.35291813  0.81706462  1  -0.218665  -6e-06  1.212122  0.0  -0.660121  0.000295  -0.153542  3e-05  1.372181  0.0  -0.168419  3e-06  1.36866  0.0  -0.096366  -0.14605  8e-05  1.377861  0.0
