# generated using pymatgen
data_NiH20C22N4O5
_symmetry_space_group_name_H-M   'P 1'
_cell_length_a   6.45775062
_cell_length_b   10.30884913
_cell_length_c   15.66637949
_cell_angle_alpha   81.72509656
_cell_angle_beta   86.36703902
_cell_angle_gamma   77.01947537
_symmetry_Int_Tables_number   1
_chemical_formula_structural   NiH20C22N4O5
_chemical_formula_sum   'Ni2 H40 C44 N8 O10'
_cell_volume   1005.18927236
_cell_formula_units_Z   2
loop_
 _symmetry_equiv_pos_site_id
 _symmetry_equiv_pos_as_xyz
  1  'x, y, z'
loop_
 _atom_site_type_symbol
 _atom_site_label
 _atom_site_symmetry_multiplicity
 _atom_site_fract_x
 _atom_site_fract_y
 _atom_site_fract_z
 _atom_site_occupancy
 _atom_site_pbe_bader_charge
 _atom_site_pbe_bader_spin_density
 _atom_site_pbe_cm5_charge
 _atom_site_pbe_ddec_charge
 _atom_site_pbe_ddec_spin_density
 _atom_site_pbe_ddec_sum_bond_order
 _atom_site_pbe_magmom
Ni  Ni0  1  0.84010481  0.94699666  0.74187703  1  1.151172  1.572052  0.632782  0.773523  1.77312  2.392475  1.556
Ni  Ni1  1  0.15988874  0.05300419  0.25812251  1  1.150972  1.572048  0.63275  0.773441  1.773117  2.392515  1.556
H  H2  1  0.79537763  0.41282292  0.72143380  1  0.117191  0.000309  0.105731  0.110316  0.000184  1.034075  0.0
H  H3  1  0.20462314  0.58717490  0.27856649  1  0.117251  0.000309  0.10574  0.110335  0.000184  1.034005  0.0
H  H4  1  0.30719282  0.58960416  0.77671919  1  0.112603  0.000202  0.108122  0.117732  0.000136  1.005374  0.0
H  H5  1  0.69281037  0.41039565  0.22328087  1  0.112571  0.000202  0.108136  0.11771  0.000136  1.005461  0.0
H  H6  1  0.54782688  0.36385648  0.79383860  1  0.107752  0.000327  0.10051  0.099579  0.000226  1.050391  0.0
H  H7  1  0.45216914  0.63614134  0.20616563  1  0.107714  0.000327  0.100522  0.099615  0.000226  1.050437  0.0
H  H8  1  0.42049432  0.16386105  0.77127325  1  0.102855  -2.6e-05  0.106366  0.112802  -0.000271  1.026531  0.0
H  H9  1  0.57949622  0.83614381  0.22872981  1  0.102808  -2.6e-05  0.106355  0.112789  -0.000271  1.026347  0.0
H  H10  1  0.67322045  0.21631582  0.61064515  1  0.141607  0.000363  0.132483  0.10644  -4.7e-05  1.023369  0.0
H  H11  1  0.32676932  0.78367803  0.38935256  1  0.141488  0.000363  0.132441  0.106364  -4.7e-05  1.02342  0.0
H  H12  1  0.85232794  0.81291785  0.56615624  1  0.059309  0.000802  0.115209  0.105077  0.000222  1.024293  0.001
H  H13  1  0.14769329  0.18708393  0.43384005  1  0.059367  0.000802  0.115211  0.105066  0.000222  1.024185  0.001
H  H14  1  0.74999753  0.97466006  0.40896316  1  0.16397  0.000718  0.120821  0.133558  0.000252  1.032399  0.0
H  H15  1  0.25002561  0.02534071  0.59103254  1  0.164055  0.000718  0.120857  0.133627  0.000252  1.032257  0.0
H  H16  1  0.49819231  0.23285984  0.39051264  1  0.117939  6e-05  0.111062  0.102927  4e-06  1.00888  0.0
H  H17  1  0.50181311  0.76713795  0.60948755  1  0.117915  6e-05  0.11107  0.102976  4e-06  1.008901  0.0
H  H18  1  0.76472173  0.25153778  0.38062185  1  0.100916  8.5e-05  0.113146  0.113218  5.2e-05  1.007799  0.0
H  H19  1  0.23528651  0.74846103  0.61937627  1  0.100989  8.5e-05  0.113186  0.113279  5.2e-05  1.007787  0.0
H  H20  1  0.26327626  0.33775975  0.51928742  1  0.076288  0.0  0.101122  0.103067  -1e-06  1.004132  0.0
H  H21  1  0.73672806  0.66223707  0.48070841  1  0.076277  -0.0  0.101122  0.103078  -1e-06  1.004091  0.0
H  H22  1  0.84643376  0.44781235  0.42028791  1  0.082324  -8e-06  0.097968  0.097689  -1.7e-05  1.032658  0.0
H  H23  1  0.15357098  0.55217843  0.57971103  1  0.082347  -8e-06  0.097943  0.097701  -1.7e-05  1.032609  0.0
H  H24  1  0.24642242  0.81629668  0.86197163  1  0.185135  0.001251  0.137836  0.113872  0.000682  1.01106  0.001
H  H25  1  0.75357309  0.18369814  0.13803160  1  0.185058  0.001251  0.137827  0.113876  0.000681  1.011081  0.001
H  H26  1  0.82934747  0.85614511  0.08088392  1  0.114439  0.000807  0.120062  0.12185  0.000321  1.030927  0.0
H  H27  1  0.17064730  0.14386576  0.91911658  1  0.114371  0.000807  0.1201  0.121905  0.000321  1.030879  0.0
H  H28  1  0.60146998  0.95529929  0.92934635  1  0.095536  0.000797  0.117317  0.111366  0.000217  1.015762  0.001
H  H29  1  0.39852694  0.04470054  0.07065639  1  0.095579  0.000797  0.117335  0.111413  0.000217  1.015715  0.001
H  H30  1  0.20173843  0.75138713  0.11002736  1  0.10632  0.000332  0.114767  0.106725  0.000195  1.011369  0.0
H  H31  1  0.79825236  0.24862175  0.88997341  1  0.106369  0.000332  0.114758  0.106759  0.000195  1.011401  0.0
H  H32  1  0.37308427  0.82969661  0.03887450  1  0.07397  -0.000106  0.107661  0.086685  -9.7e-05  1.007951  0.0
H  H33  1  0.62690516  0.17031629  0.96112594  1  0.074068  -0.000106  0.107673  0.086762  -9.7e-05  1.007885  0.0
H  H34  1  0.16044872  0.51601277  0.08624916  1  0.07384  -1.4e-05  0.09999  0.102979  -1.9e-05  1.015065  0.0
H  H35  1  0.83953612  0.48399511  0.91375502  1  0.073663  -1.4e-05  0.099955  0.102999  -1.9e-05  1.015237  0.0
H  H36  1  0.64150616  0.70403307  0.95162849  1  0.080463  0.0  0.094735  0.094355  -2.9e-05  1.059257  0.0
H  H37  1  0.35848617  0.29597076  0.04837909  1  0.080882  0.0  0.094702  0.094266  -2.9e-05  1.059323  0.0
H  H38  1  0.57112089  0.80930974  0.75970836  1  0.649676  -0.000453  0.282717  0.370486  -0.000465  0.981044  -0.001
H  H39  1  0.42887691  0.19068810  0.24028625  1  0.649731  -0.000452  0.282744  0.370506  -0.000465  0.981013  -0.001
H  H40  1  0.40552102  0.95646719  0.74735844  1  0.646859  0.000727  0.290244  0.385243  0.000903  0.948902  0.001
H  H41  1  0.59447495  0.04352664  0.25263977  1  0.646867  0.000727  0.290278  0.38527  0.000903  0.948878  0.001
C  C42  1  0.01283423  0.15180772  0.74049219  1  1.514803  -0.003051  0.199752  0.545135  -0.004463  4.20231  -0.005
C  C43  1  0.98716029  0.84819011  0.25950951  1  1.514826  -0.003052  0.199659  0.54505  -0.004463  4.202529  -0.005
C  C44  1  0.09752973  0.27376844  0.74613516  1  -0.114007  0.005383  -0.026869  -0.053286  0.003345  4.013181  0.004
C  C45  1  0.90246940  0.72622937  0.25386836  1  -0.114583  0.005385  -0.026942  -0.053472  0.003345  4.013451  0.004
C  C46  1  0.96060868  0.40129508  0.73748236  1  0.006593  0.001679  -0.080361  -0.119489  0.000776  3.942018  0.001
C  C47  1  0.03938015  0.59870577  0.26251983  1  0.00709  0.001679  -0.080344  -0.119402  0.000777  3.942132  0.001
C  C48  1  0.03482892  0.51546676  0.74777789  1  -0.07574  0.00703  -0.021089  -0.048271  0.004112  3.994838  0.005
C  C49  1  0.96516702  0.48453608  0.25222332  1  -0.075637  0.00703  -0.021102  -0.048279  0.004112  3.994922  0.005
C  C50  1  0.24760261  0.50149020  0.76852893  1  -0.034907  0.000186  -0.074939  -0.078856  -8.4e-05  3.93165  0.0
C  C51  1  0.75239499  0.49850761  0.23147398  1  -0.034854  0.000186  -0.074909  -0.078827  -8.4e-05  3.931681  0.0
C  C52  1  0.38329091  0.37493533  0.77761882  1  -0.055826  0.000814  -0.08899  -0.074277  0.000409  3.990351  0.001
C  C53  1  0.61670074  0.62506148  0.22238751  1  -0.055264  0.000814  -0.089029  -0.074348  0.000409  3.99048  0.001
C  C54  1  0.31103484  0.26162938  0.76511067  1  -0.040268  0.000963  -0.085447  -0.098145  0.000501  3.953161  0.001
C  C55  1  0.68896114  0.73836843  0.23489483  1  -0.040841  0.000963  -0.085391  -0.098005  0.000502  3.952853  0.001
C  C56  1  0.88788951  0.65220583  0.73757897  1  1.529509  -0.001103  0.207895  0.563282  -0.001859  4.200517  -0.002
C  C57  1  0.11211193  0.34779501  0.26241529  1  1.529228  -0.001103  0.207934  0.563286  -0.00186  4.20046  -0.002
C  C58  1  0.70771721  0.12797794  0.57798530  1  0.97573  -0.003047  0.131834  0.077038  -0.00371  3.931834  -0.002
C  C59  1  0.29228312  0.87201688  0.42201145  1  0.97568  -0.003047  0.131873  0.077089  -0.00371  3.931759  -0.002
C  C60  1  0.79753225  0.92067860  0.55188702  1  0.442498  -0.000766  -0.008162  -0.040449  -0.001257  4.03439  0.0
C  C61  1  0.20248534  0.07932017  0.44810962  1  0.442609  -0.000766  -0.008139  -0.040374  -0.001258  4.034215  0.0
C  C62  1  0.74639742  0.99886755  0.47425909  1  0.301687  0.002653  0.000543  -0.093991  0.001402  3.91092  0.002
C  C63  1  0.25362777  0.00112719  0.52573649  1  0.30178  0.002653  0.000462  -0.094119  0.001402  3.910869  0.002
C  C64  1  0.62937818  0.24818398  0.42656470  1  0.23876  0.001215  -0.050749  -0.118292  0.000726  3.860154  0.001
C  C65  1  0.37063037  0.75181381  0.57343478  1  0.238738  0.001214  -0.050839  -0.118463  0.000725  3.860358  0.001
C  C66  1  0.56301916  0.37747213  0.46517980  1  0.035219  0.000102  -0.009986  0.092078  7.2e-05  3.976038  0.0
C  C67  1  0.43698938  0.62252566  0.53482033  1  0.035938  0.000102  -0.010077  0.091956  7.2e-05  3.976229  0.0
C  C68  1  0.36725227  0.40911169  0.50995594  1  -0.12837  0.000109  -0.090963  -0.130589  6.5e-05  3.980618  0.0
C  C69  1  0.63274288  0.59088916  0.49004165  1  -0.128925  0.000109  -0.090921  -0.130508  6.4e-05  3.980568  0.0
C  C70  1  0.69488287  0.46989715  0.45584834  1  -0.042202  9.2e-05  -0.090169  -0.125448  4.9e-05  3.981855  0.0
C  C71  1  0.30512572  0.53010065  0.54414923  1  -0.042489  9.2e-05  -0.090092  -0.125353  4.9e-05  3.981844  0.0
C  C72  1  0.09978258  0.84095378  0.89976216  1  0.939958  -0.003143  0.142527  0.094992  -0.003918  3.88309  -0.002
C  C73  1  0.90021175  0.15904906  0.10024100  1  0.940095  -0.003145  0.142488  0.094928  -0.00392  3.882867  -0.002
C  C74  1  0.87890481  0.86442784  0.01328737  1  0.283004  0.002813  -0.000456  -0.109553  0.001473  3.924233  0.002
C  C75  1  0.12109073  0.13557600  0.98671567  1  0.282521  0.002813  -0.000479  -0.109522  0.001473  3.924225  0.002
C  C76  1  0.76923011  0.91360000  0.93874873  1  0.433261  -0.000494  -0.005629  -0.042114  -0.000913  4.026312  0.0
C  C77  1  0.23076795  0.08639683  0.06124916  1  0.433561  -0.000492  -0.005659  -0.0422  -0.000911  4.026316  0.0
C  C78  1  0.26728380  0.75904957  0.04367381  1  0.262129  0.001167  -0.048289  -0.111711  0.000653  3.896481  0.001
C  C79  1  0.73271801  0.24095426  0.95632718  1  0.262076  0.001167  -0.048365  -0.111948  0.000653  3.89638  0.001
C  C80  1  0.38756971  0.62479762  0.02115184  1  -0.012571  7.1e-05  -0.017233  0.0732  1e-05  4.002214  0.0
C  C81  1  0.61242595  0.37521022  0.97885402  1  -0.012636  7.1e-05  -0.01723  0.073126  1e-05  4.002211  0.0
C  C82  1  0.30873369  0.50932636  0.04809093  1  -0.099513  0.000116  -0.088219  -0.111865  4.8e-05  3.968881  0.0
C  C83  1  0.69125482  0.49068452  0.95191163  1  -0.098946  0.000116  -0.088207  -0.111872  4.8e-05  3.969168  0.0
C  C84  1  0.57920012  0.61451695  0.97288881  1  -0.006974  0.000128  -0.093547  -0.126647  8e-05  3.985579  0.0
C  C85  1  0.42079575  0.38548588  0.02711495  1  -0.007434  0.000128  -0.09361  -0.126616  7.9e-05  3.985616  0.0
N  N86  1  0.77316301  0.00203712  0.61608311  1  -1.228144  0.057869  -0.366776  -0.311193  0.033406  3.677387  0.051
N  N87  1  0.22683975  0.99795970  0.38391276  1  -1.228177  0.057867  -0.366787  -0.311182  0.033405  3.677423  0.051
N  N88  1  0.69012731  0.12975097  0.49196501  1  -1.208587  0.001128  -0.240514  0.040911  0.000133  3.780009  0.001
N  N89  1  0.30988541  0.87024381  0.50803274  1  -1.208611  0.001128  -0.240431  0.041011  0.000133  3.779982  0.001
N  N90  1  0.90883655  0.89844765  0.86871127  1  -1.198965  0.056494  -0.35711  -0.27335  0.032573  3.608493  0.05
N  N91  1  0.09116766  0.10154915  0.13128904  1  -1.199095  0.056495  -0.35703  -0.273216  0.032574  3.608282  0.05
N  N92  1  0.08758256  0.81854068  0.98731437  1  -1.204841  0.001416  -0.240089  0.044073  0.000409  3.773876  0.001
N  N93  1  0.91241645  0.18146215  0.01268805  1  -1.204494  0.001416  -0.24009  0.044057  0.000409  3.77373  0.001
O  O94  1  0.81381061  0.15911986  0.75434573  1  -1.134445  0.074074  -0.300132  -0.529872  0.040948  2.266852  0.067
O  O95  1  0.18618894  0.84086793  0.24565359  1  -1.134354  0.074084  -0.300165  -0.529936  0.040954  2.266736  0.067
O  O96  1  0.13693699  0.04145129  0.72450053  1  -1.168983  0.066379  -0.301806  -0.54849  0.036819  2.240534  0.059
O  O97  1  0.86307227  0.95854450  0.27549785  1  -1.168919  0.066373  -0.301704  -0.548338  0.036816  2.240822  0.059
O  O98  1  0.68875953  0.66052067  0.74240701  1  -1.150232  0.001107  -0.31693  -0.540562  -0.000211  2.166237  0.001
O  O99  1  0.31123768  0.33948423  0.25757739  1  -1.150049  0.001105  -0.316897  -0.54048  -0.000212  2.166342  0.001
O  O100  1  0.97986400  0.75198892  0.72472297  1  -1.150157  0.079595  -0.314053  -0.552097  0.043903  2.366618  0.073
O  O101  1  0.02013485  0.24800990  0.27527791  1  -1.150126  0.0796  -0.314124  -0.552197  0.043906  2.36649  0.073
O  O102  1  0.53425900  0.90338672  0.77726901  1  -1.268785  0.070796  -0.574608  -0.761586  0.038939  2.15689  0.062
O  O103  1  0.46574351  0.09660608  0.22272979  1  -1.268851  0.070794  -0.574643  -0.761647  0.038939  2.15691  0.062
