# generated using pymatgen
data_SnH22C18O
_symmetry_space_group_name_H-M   'P 1'
_cell_length_a   8.22387622
_cell_length_b   10.11910046
_cell_length_c   10.45131025
_cell_angle_alpha   118.95401979
_cell_angle_beta   90.00005842
_cell_angle_gamma   90.00012891
_symmetry_Int_Tables_number   1
_chemical_formula_structural   SnH22C18O
_chemical_formula_sum   'Sn2 H44 C36 O2'
_cell_volume   761.02947621
_cell_formula_units_Z   2
loop_
 _symmetry_equiv_pos_site_id
 _symmetry_equiv_pos_as_xyz
  1  'x, y, z'
loop_
 _atom_site_type_symbol
 _atom_site_label
 _atom_site_symmetry_multiplicity
 _atom_site_fract_x
 _atom_site_fract_y
 _atom_site_fract_z
 _atom_site_occupancy
 _atom_site_pbe_bader_spin_density
 _atom_site_pbe_cm5_charge
 _atom_site_pbe_ddec_charge
 _atom_site_pbe_ddec_spin_density
 _atom_site_pbe_ddec_sum_bond_order
 _atom_site_pbe_magmom
Sn  Sn0  1  0.50104175  0.00366376  0.99999860  1  0  0.516534  1.040681  0  3.360885  0
Sn  Sn1  1  0.00104047  0.99633663  0.99999956  1  0  0.516593  1.040784  0  3.360825  0
H  H2  1  0.74569572  0.81393070  0.00000185  1  0  0.287263  0.336506  0  0.998834  0
H  H3  1  0.24569705  0.18607230  0.00000195  1  0  0.287247  0.336477  0  0.998831  0
H  H4  1  0.73303294  0.18721094  0.00000059  1  0  0.085875  0.075593  0  1.076543  0
H  H5  1  0.23303236  0.81279204  0.00000223  1  0  0.085865  0.075584  0  1.076571  0
H  H6  1  0.59347989  0.34366823  0.23712552  1  0  0.089039  0.086462  0  1.00969  0
H  H7  1  0.09347801  0.65633336  0.76287826  1  0  0.089038  0.086425  0  1.009727  0
H  H8  1  0.59347625  0.10654337  0.76287773  1  0  0.089034  0.086435  0  1.009726  0
H  H9  1  0.09347921  0.89345936  0.23712564  1  0  0.089033  0.086478  0  1.009713  0
H  H10  1  0.42250696  0.36438494  0.14611292  1  0  0.080266  0.062578  0  1.01657  0
H  H11  1  0.92250559  0.63561648  0.85389009  1  0  0.080261  0.062561  0  1.016564  0
H  H12  1  0.42250356  0.21827322  0.85389042  1  0  0.08027  0.062558  0  1.016547  0
H  H13  1  0.92250656  0.78172820  0.14611259  1  0  0.08026  0.062569  0  1.016549  0
H  H14  1  0.59510113  0.59070689  0.23665970  1  0  0.084459  0.076816  0  1.003343  0
H  H15  1  0.09510098  0.40929584  0.76334462  1  0  0.084443  0.076782  0  1.003341  0
H  H16  1  0.59510478  0.35404801  0.76334592  1  0  0.084458  0.076801  0  1.003342  0
H  H17  1  0.09510341  0.64595472  0.23665840  1  0  0.084439  0.076773  0  1.003305  0
H  H18  1  0.76700282  0.47893551  0.14831129  1  0  0.083962  0.078659  0  1.013293  0
H  H19  1  0.26700189  0.52106885  0.85169203  1  0  0.083962  0.078658  0  1.013295  0
H  H20  1  0.76700307  0.33062369  0.85169635  1  0  0.083983  0.078708  0  1.013273  0
H  H21  1  0.26700286  0.66937953  0.14830930  1  0  0.083969  0.078662  0  1.013338  0
H  H22  1  0.46372731  0.52046929  0.00000143  1  0  0.084466  0.074858  0  1.020364  0
H  H23  1  0.96372748  0.47953208  0.00000178  1  0  0.08448  0.074875  0  1.020412  0
H  H24  1  0.66060172  0.58933693  0.00000214  1  0  0.075511  0.049776  0  1.042214  0
H  H25  1  0.16060245  0.41066583  0.00000147  1  0  0.075513  0.04976  0  1.042251  0
H  H26  1  0.57513168  0.64234502  0.82487819  1  0  0.090375  0.071024  0  1.05845  0
H  H27  1  0.07513428  0.35765653  0.17512269  1  0  0.090374  0.070995  0  1.058464  0
H  H28  1  0.57513393  0.81745611  0.17511676  1  0  0.090329  0.07088  0  1.058456  0
H  H29  1  0.07513567  0.18253868  0.82487710  1  0  0.090346  0.070962  0  1.05849  0
H  H30  1  0.50790015  0.42979893  0.58141208  1  0  0.093848  0.082345  0  1.052755  0
H  H31  1  0.00790123  0.57019789  0.41858938  1  0  0.09386  0.082365  0  1.052738  0
H  H32  1  0.50790428  0.84838209  0.41858376  1  0  0.093847  0.082366  0  1.052741  0
H  H33  1  0.00789832  0.15161363  0.58141239  1  0  0.093856  0.082366  0  1.052747  0
H  H34  1  0.34214493  0.47257295  0.40679004  1  0  0.096395  0.089759  0  1.039324  0
H  H35  1  0.84214414  0.52742035  0.59320524  1  0  0.096415  0.089805  0  1.039296  0
H  H36  1  0.34214692  0.06577637  0.59320261  1  0  0.09641  0.089851  0  1.039234  0
H  H37  1  0.84214216  0.93421580  0.40679404  1  0  0.096408  0.089791  0  1.039285  0
H  H38  1  0.24044755  0.73223277  0.47820068  1  0  0.09779  0.092069  0  1.018269  0
H  H39  1  0.74044352  0.26776140  0.52179014  1  0  0.097796  0.092081  0  1.018291  0
H  H40  1  0.24045421  0.25402523  0.52179159  1  0  0.097797  0.092094  0  1.018292  0
H  H41  1  0.74045023  0.74596888  0.47820782  1  0  0.097801  0.09211  0  1.018296  0
H  H42  1  0.29776404  0.94253818  0.72459595  1  0  0.093292  0.079888  0  1.067074  0
H  H43  1  0.79775910  0.05745842  0.27539511  1  0  0.093291  0.079905  0  1.067075  0
H  H44  1  0.29777004  0.21793154  0.27539637  1  0  0.093305  0.079975  0  1.067125  0
H  H45  1  0.79776526  0.78206614  0.72460381  1  0  0.0933  0.079951  0  1.067098  0
C  C46  1  0.60062338  0.20289705  0.00000183  1  0  -0.162528  -0.276036  0  3.825039  0
C  C47  1  0.10062276  0.79710667  0.00000219  1  0  -0.162599  -0.27617  0  3.825099  0
C  C48  1  0.55592334  0.34903527  0.13872799  1  0  -0.169003  -0.138415  0  3.967721  0
C  C49  1  0.05592278  0.65096735  0.86127624  1  0  -0.16901  -0.138364  0  3.967879  0
C  C50  1  0.55592239  0.21030781  0.86127708  1  0  -0.168965  -0.138318  0  3.967819  0
C  C51  1  0.05592372  0.78969367  0.13872663  1  0  -0.168964  -0.138416  0  3.967802  0
C  C52  1  0.63437194  0.48664392  0.13902827  1  0  -0.169348  -0.13727  0  3.913737  0
C  C53  1  0.13437099  0.51336005  0.86097572  1  0  -0.169297  -0.137172  0  3.913781  0
C  C54  1  0.63437221  0.34761626  0.86097716  1  0  -0.169384  -0.137334  0  3.913833  0
C  C55  1  0.13437316  0.65238658  0.13902725  1  0  -0.169344  -0.137195  0  3.913747  0
C  C56  1  0.59396577  0.49463945  0.99999906  1  0  -0.17015  -0.143555  0  3.953247  0
C  C57  1  0.09396491  0.50536103  0.00000133  1  0  -0.170161  -0.143594  0  3.953327  0
C  C58  1  0.44280864  0.80944913  0.79252163  1  0  -0.100051  -0.23836  0  3.91258  0
C  C59  1  0.94280763  0.19055012  0.20747558  1  0  -0.100057  -0.23837  0  3.912581  0
C  C60  1  0.44281446  0.01691533  0.20746958  1  0  -0.100037  -0.238362  0  3.912527  0
C  C61  1  0.94281154  0.98307940  0.79252645  1  0  -0.100007  -0.238324  0  3.912473  0
C  C62  1  0.50078959  0.66376260  0.75028685  1  0  -0.097583  -0.075195  0  4.062772  0
C  C63  1  0.00079223  0.33623761  0.24971333  1  0  -0.097576  -0.075146  0  4.06273  0
C  C64  1  0.50079448  0.91346938  0.24970706  1  0  -0.097518  -0.07493  0  4.062558  0
C  C65  1  0.00079220  0.08652971  0.75028973  1  0  -0.097606  -0.075165  0  4.06269  0
C  C66  1  0.46401348  0.54303912  0.61257616  1  0  -0.095105  -0.08441  0  4.002804  0
C  C67  1  0.96401588  0.45696019  0.38742206  1  0  -0.095133  -0.084448  0  4.002747  0
C  C68  1  0.46401874  0.93045637  0.38741739  1  0  -0.095132  -0.084555  0  4.002695  0
C  C69  1  0.96401670  0.06954182  0.61257743  1  0  -0.095114  -0.084442  0  4.002629  0
C  C70  1  0.37067669  0.56691833  0.51399982  1  0  -0.094068  -0.082648  0  3.998452  0
C  C71  1  0.87067550  0.43307844  0.48599903  1  0  -0.094104  -0.082718  0  3.998367  0
C  C72  1  0.37068082  0.05291516  0.48599664  1  0  -0.094094  -0.08274  0  3.998376  0
C  C73  1  0.87067623  0.94708048  0.51400072  1  0  -0.094092  -0.082689  0  3.998374  0
C  C74  1  0.31321375  0.71160184  0.55410337  1  0  -0.093578  -0.083621  0  3.998934  0
C  C75  1  0.81320845  0.28839478  0.44589154  1  0  -0.093536  -0.083544  0  3.998988  0
C  C76  1  0.31321777  0.15749140  0.44589033  1  0  -0.093543  -0.083525  0  3.999081  0
C  C77  1  0.81321537  0.84250409  0.55410500  1  0  -0.093548  -0.083545  0  3.998962  0
C  C78  1  0.34792756  0.83135952  0.69285987  1  0  -0.093863  -0.068978  0  4.03561  0
C  C79  1  0.84792297  0.16863720  0.30713416  1  0  -0.093865  -0.069053  0  4.035733  0
C  C80  1  0.34793364  0.13849349  0.30713305  1  0  -0.093878  -0.069142  0  4.03579  0
C  C81  1  0.84792905  0.86150320  0.69286575  1  0  -0.093868  -0.069131  0  4.035649  0
O  O82  1  0.74618167  0.90991245  0.99999620  1  0  -0.510678  -0.779267  0  2.116724  0
O  O83  1  0.24618209  0.09008735  0.00000303  1  0  -0.510677  -0.779259  0  2.116746  0
