# generated using pymatgen
data_CdH12C20IN4
_symmetry_space_group_name_H-M   'P 1'
_cell_length_a   16.17346463
_cell_length_b   16.17348617
_cell_length_c   16.55886514
_cell_angle_alpha   89.60015479
_cell_angle_beta   89.60013037
_cell_angle_gamma   101.13905479
_symmetry_Int_Tables_number   1
_chemical_formula_structural   CdH12C20IN4
_chemical_formula_sum   'Cd8 H96 C160 I8 N32'
_cell_volume   4249.63298408
_cell_formula_units_Z   8
loop_
 _symmetry_equiv_pos_site_id
 _symmetry_equiv_pos_as_xyz
  1  'x, y, z'
loop_
 _atom_site_type_symbol
 _atom_site_label
 _atom_site_symmetry_multiplicity
 _atom_site_fract_x
 _atom_site_fract_y
 _atom_site_fract_z
 _atom_site_occupancy
 _atom_site_pbe_bader_charge
 _atom_site_pbe_bader_spin_density
 _atom_site_pbe_cm5_charge
 _atom_site_pbe_ddec_charge
 _atom_site_pbe_ddec_spin_density
 _atom_site_pbe_ddec_sum_bond_order
 _atom_site_pbe_magmom
Cd  Cd0  1  0.43284945  0.19863542  0.52564282  1  1.170912  0  0.830617  0.700353  0  2.600119  0
Cd  Cd1  1  0.80136946  0.56714745  0.97435463  1  1.170763  0  0.830602  0.700356  0  2.600084  0
Cd  Cd2  1  0.56715231  0.80136889  0.47435837  1  1.170916  0  0.830588  0.700334  0  2.600087  0
Cd  Cd3  1  0.19863359  0.43284906  0.02564118  1  1.170938  0  0.830614  0.700371  0  2.600065  0
Cd  Cd4  1  0.69616985  0.94404078  0.98703907  1  0.937065  0  0.530378  0.557537  0  2.573658  0
Cd  Cd5  1  0.05595556  0.30383165  0.51296152  1  0.936941  0  0.530365  0.557547  0  2.57357  0
Cd  Cd6  1  0.30383131  0.05595722  0.01296217  1  0.936908  0  0.530346  0.557485  0  2.573571  0
Cd  Cd7  1  0.94403992  0.69616524  0.48704158  1  0.936994  0  0.530353  0.557558  0  2.573517  0
H  H8  1  0.89216446  0.48782310  0.43306096  1  0.113172  0  0.099555  0.071472  0  1.04402  0
H  H9  1  0.51217717  0.10783672  0.06693848  1  0.113168  0  0.099516  0.071425  0  1.044074  0
H  H10  1  0.10783480  0.51217762  0.56694028  1  0.113127  0  0.099541  0.071425  0  1.044012  0
H  H11  1  0.48782398  0.89216437  0.93306093  1  0.11315  0  0.099543  0.071449  0  1.044037  0
H  H12  1  0.59670185  0.09122332  0.93205709  1  0.081313  0  0.106369  0.069229  0  1.039671  0
H  H13  1  0.90877605  0.40329900  0.56794333  1  0.081301  0  0.106386  0.069248  0  1.039708  0
H  H14  1  0.40329804  0.90877629  0.06794294  1  0.081296  0  0.106395  0.069255  0  1.039708  0
H  H15  1  0.09122384  0.59670060  0.43205610  1  0.081323  0  0.106401  0.069273  0  1.039666  0
H  H16  1  0.59921135  0.48327539  0.37976764  1  0.056054  0  0.09572  0.107344  0  1.064991  0
H  H17  1  0.51672426  0.40078685  0.12023188  1  0.055937  0  0.095748  0.107346  0  1.065015  0
H  H18  1  0.40078728  0.51672459  0.62023300  1  0.056072  0  0.095752  0.107331  0  1.064985  0
H  H19  1  0.48327626  0.59921226  0.87976574  1  0.056114  0  0.095734  0.107311  0  1.06494  0
H  H20  1  0.99789590  0.89697425  0.51481765  1  0.104477  0  0.10244  0.075844  0  1.025342  0
H  H21  1  0.10302394  0.00210475  0.98518286  1  0.104488  0  0.102408  0.075818  0  1.025358  0
H  H22  1  0.00210335  0.10302708  0.48518418  1  0.10451  0  0.102451  0.075814  0  1.025424  0
H  H23  1  0.89697532  0.99789349  0.01481658  1  0.104477  0  0.102406  0.075815  0  1.025323  0
H  H24  1  0.28274580  0.84164868  0.47048930  1  0.094313  0  0.103319  0.116532  0  1.043686  0
H  H25  1  0.15835044  0.71725635  0.02950913  1  0.094355  0  0.103337  0.116507  0  1.043761  0
H  H26  1  0.71725534  0.15835179  0.52951132  1  0.094379  0  0.103363  0.11661  0  1.04367  0
H  H27  1  0.84164692  0.28274524  0.97048910  1  0.094341  0  0.103324  0.116522  0  1.043665  0
H  H28  1  0.20002509  0.31823175  0.32963200  1  0.116318  0  0.101353  0.110349  0  1.034606  0
H  H29  1  0.68176930  0.79997506  0.17036694  1  0.115974  0  0.101343  0.110359  0  1.034543  0
H  H30  1  0.79997479  0.68176909  0.67036742  1  0.115981  0  0.101338  0.110328  0  1.03456  0
H  H31  1  0.31823059  0.20002455  0.82963309  1  0.116312  0  0.101332  0.110317  0  1.034569  0
H  H32  1  0.20757328  0.16341186  0.28148753  1  0.107281  0  0.097284  0.119766  0  1.038078  0
H  H33  1  0.83658808  0.79242607  0.21851078  1  0.107134  0  0.097292  0.119778  0  1.038086  0
H  H34  1  0.79242787  0.83658737  0.71851008  1  0.107093  0  0.097299  0.119761  0  1.03817  0
H  H35  1  0.16341118  0.20757279  0.78148926  1  0.107278  0  0.097271  0.119741  0  1.038109  0
H  H36  1  0.73813826  0.34554394  0.63257721  1  0.080454  0  0.09606  0.109462  0  1.048079  0
H  H37  1  0.65445526  0.26185942  0.86742326  1  0.080583  0  0.096072  0.109462  0  1.048039  0
H  H38  1  0.26186037  0.65445604  0.36742343  1  0.080567  0  0.096069  0.109458  0  1.04806  0
H  H39  1  0.34554715  0.73814068  0.13257554  1  0.080546  0  0.096055  0.109436  0  1.048066  0
H  H40  1  0.69806105  0.20048508  0.71585171  1  0.063907  0  0.101706  0.120792  0  1.020664  0
H  H41  1  0.79951621  0.30193784  0.78414751  1  0.06399  0  0.101697  0.12079  0  1.020659  0
H  H42  1  0.30193884  0.79951576  0.28414891  1  0.064148  0  0.101678  0.120746  0  1.020681  0
H  H43  1  0.20048494  0.69806139  0.21585252  1  0.06379  0  0.101694  0.120774  0  1.02065  0
H  H44  1  0.54499923  0.15259548  0.80789484  1  0.069005  0  0.106979  0.118637  0  0.993741  0
H  H45  1  0.84740455  0.45500130  0.69210561  1  0.068977  0  0.106964  0.118611  0  0.993763  0
H  H46  1  0.45500129  0.84740425  0.19210579  1  0.068993  0  0.106979  0.118633  0  0.993737  0
H  H47  1  0.15259534  0.54499830  0.30789382  1  0.068987  0  0.106969  0.118628  0  0.993745  0
H  H48  1  0.44764779  0.92479943  0.70359809  1  0.078518  0  0.099998  0.123123  0  1.015576  0
H  H49  1  0.07520214  0.55235203  0.79640192  1  0.078513  0  0.1  0.123127  0  1.015533  0
H  H50  1  0.55235210  0.07520017  0.29640255  1  0.078526  0  0.09999  0.123107  0  1.015648  0
H  H51  1  0.92479901  0.44764906  0.20359688  1  0.07842  0  0.099993  0.123113  0  1.015618  0
H  H52  1  0.15419289  0.72954521  0.46275654  1  0.06918  0  0.101629  0.060915  0  1.050453  0
H  H53  1  0.27045511  0.84580954  0.03724248  1  0.069191  0  0.101577  0.060869  0  1.050498  0
H  H54  1  0.84580763  0.27045514  0.53724409  1  0.06915  0  0.101639  0.060949  0  1.050415  0
H  H55  1  0.72954288  0.15418970  0.96275575  1  0.069158  0  0.101586  0.060843  0  1.050425  0
H  H56  1  0.66942346  0.89865866  0.80252546  1  0.117335  0  0.103229  0.074261  0  1.039509  0
H  H57  1  0.10134084  0.33057624  0.69747391  1  0.117353  0  0.103199  0.074214  0  1.039448  0
H  H58  1  0.33057706  0.10134230  0.19747516  1  0.131841  0  0.103184  0.074198  0  1.039438  0
H  H59  1  0.89865842  0.66942201  0.30252492  1  0.131962  0  0.103198  0.074222  0  1.039432  0
H  H60  1  0.12147914  0.01715922  0.52739860  1  0.09721  0  0.092908  0.109902  0  1.052321  0
H  H61  1  0.98283863  0.87851999  0.97260132  1  0.097204  0  0.092884  0.109884  0  1.052309  0
H  H62  1  0.87851949  0.98284200  0.47260324  1  0.097237  0  0.092883  0.109842  0  1.052378  0
H  H63  1  0.01716126  0.12148023  0.02739750  1  0.097227  0  0.092908  0.109923  0  1.052283  0
H  H64  1  0.30648318  0.88153458  0.61929148  1  0.099458  0  0.106109  0.12606  0  1.007443  0
H  H65  1  0.11846657  0.69351714  0.88070794  1  0.099552  0  0.106115  0.126061  0  1.007439  0
H  H66  1  0.69351545  0.11846540  0.38070976  1  0.099576  0  0.106103  0.126044  0  1.007497  0
H  H67  1  0.88153521  0.30648530  0.11929145  1  0.09959  0  0.106128  0.126101  0  1.007461  0
H  H68  1  0.36703893  0.37740371  0.07980783  1  0.101643  0  0.111032  0.076546  0  1.017646  0
H  H69  1  0.62259454  0.63296015  0.42019233  1  0.101628  0  0.111021  0.076512  0  1.017642  0
H  H70  1  0.63296034  0.62259454  0.92019222  1  0.101645  0  0.111015  0.076504  0  1.017642  0
H  H71  1  0.37740535  0.36704008  0.57980770  1  0.101634  0  0.111014  0.076514  0  1.017629  0
H  H72  1  0.62211914  0.52107504  0.55400289  1  0.117045  0  0.102119  0.113882  0  1.026407  0
H  H73  1  0.47892466  0.37787925  0.94599703  1  0.11707  0  0.102121  0.113863  0  1.026428  0
H  H74  1  0.37788076  0.47892394  0.44599775  1  0.117171  0  0.10211  0.11386  0  1.026437  0
H  H75  1  0.52107837  0.62212221  0.05400357  1  0.117386  0  0.102126  0.113872  0  1.026449  0
H  H76  1  0.61535494  0.94910359  0.67334968  1  0.115125  0  0.108723  0.124482  0  1.02678  0
H  H77  1  0.05089674  0.38464516  0.82665031  1  0.115144  0  0.108728  0.124489  0  1.026779  0
H  H78  1  0.38464494  0.05089725  0.32665155  1  0.115123  0  0.108723  0.124481  0  1.026739  0
H  H79  1  0.94910378  0.61535457  0.17334730  1  0.115112  0  0.108712  0.124448  0  1.026708  0
H  H80  1  0.45821726  0.44042638  0.29435173  1  0.085797  0  0.10031  0.118373  0  1.027579  0
H  H81  1  0.55957343  0.54178245  0.20564840  1  0.085648  0  0.100294  0.118374  0  1.027577  0
H  H82  1  0.54178200  0.55957372  0.70565072  1  0.085763  0  0.100303  0.118377  0  1.027491  0
H  H83  1  0.44042646  0.45821777  0.79434800  1  0.085583  0  0.10029  0.118332  0  1.027539  0
H  H84  1  0.77663408  0.36230711  0.44312143  1  0.113339  0  0.107274  0.118162  0  1.005583  0
H  H85  1  0.63769386  0.22336676  0.05687920  1  0.113317  0  0.107281  0.118215  0  1.00559  0
H  H86  1  0.22336580  0.63769497  0.55687979  1  0.11323  0  0.107289  0.118227  0  1.005577  0
H  H87  1  0.36230792  0.77663322  0.94312081  1  0.113325  0  0.10728  0.118173  0  1.005586  0
H  H88  1  0.43011710  0.31375308  0.19708381  1  0.101851  0  0.109324  0.119443  0  0.997201  0
H  H89  1  0.68624475  0.56988262  0.30291450  1  0.101868  0  0.109336  0.119453  0  0.997193  0
H  H90  1  0.56988279  0.68624652  0.80291561  1  0.10186  0  0.109332  0.119463  0  0.997182  0
H  H91  1  0.31375325  0.43011785  0.69708433  1  0.101857  0  0.109326  0.119437  0  0.997207  0
H  H92  1  0.74362289  0.64187786  0.53584958  1  0.086378  0  0.102908  0.069615  0  1.035569  0
H  H93  1  0.35812225  0.25637551  0.96414973  1  0.086379  0  0.102903  0.069606  0  1.035592  0
H  H94  1  0.25637574  0.35812150  0.46415106  1  0.086388  0  0.102902  0.069615  0  1.035578  0
H  H95  1  0.64187890  0.74362558  0.03585028  1  0.086343  0  0.102882  0.069618  0  1.035588  0
H  H96  1  0.14574508  0.37826261  0.20763839  1  0.098069  0  0.111316  0.084236  0  1.019053  0
H  H97  1  0.62173757  0.85425624  0.29235997  1  0.098062  0  0.111322  0.084206  0  1.019109  0
H  H98  1  0.85425544  0.62173712  0.79235982  1  0.098072  0  0.111316  0.084229  0  1.019086  0
H  H99  1  0.37826295  0.14574411  0.70764005  1  0.098068  0  0.111324  0.084263  0  1.01901  0
H  H100  1  0.16802863  0.02031149  0.36597814  1  0.07005  0  0.106418  0.128165  0  1.002032  0
H  H101  1  0.97968726  0.83196924  0.13402078  1  0.070046  0  0.106385  0.128136  0  1.002077  0
H  H102  1  0.83197127  0.97968626  0.63402070  1  0.07003  0  0.106406  0.128164  0  1.00207  0
H  H103  1  0.02031075  0.16802876  0.86597807  1  0.070028  0  0.106427  0.12817  0  1.002051  0
C  C104  1  0.28107497  0.07611424  0.44194786  1  0.416211  0  0.092579  0.182381  0  4.047083  0
C  C105  1  0.92388500  0.71892450  0.05805104  1  0.416168  0  0.092601  0.182509  0  4.047057  0
C  C106  1  0.71892555  0.92388673  0.55805276  1  0.416144  0  0.092635  0.182573  0  4.04697  0
C  C107  1  0.07611111  0.28107436  0.94194721  1  0.416187  0  0.092576  0.182473  0  4.046937  0
C  C108  1  0.83144478  0.49328892  0.45978210  1  0.447081  0  0.038997  0.094088  0  3.966453  0
C  C109  1  0.50671181  0.16855479  0.04021735  1  0.446953  0  0.038981  0.094134  0  3.966516  0
C  C110  1  0.16855574  0.50671081  0.54022034  1  0.44701  0  0.03897  0.094163  0  3.966463  0
C  C111  1  0.49328934  0.83144630  0.95978205  1  0.447051  0  0.038995  0.094094  0  3.966373  0
C  C112  1  0.28637380  0.01022272  0.49794861  1  -0.038647  0  0.006521  -0.068899  0  3.858814  0
C  C113  1  0.98977669  0.71362581  0.00205027  1  -0.038011  0  0.006483  -0.069009  0  3.858885  0
C  C114  1  0.71362672  0.98977639  0.50205263  1  -0.038462  0  0.006438  -0.069085  0  3.858909  0
C  C115  1  0.01022320  0.28637442  0.99794674  1  -0.038635  0  0.006457  -0.069018  0  3.858888  0
C  C116  1  0.62228847  0.29203163  0.55941749  1  0.41602  0  0.086565  0.178201  0  4.049391  0
C  C117  1  0.70797009  0.37771087  0.94058357  1  0.41584  0  0.086616  0.178227  0  4.049391  0
C  C118  1  0.37771142  0.70796922  0.44058435  1  0.415885  0  0.086554  0.178175  0  4.049415  0
C  C119  1  0.29203296  0.62228873  0.05941523  1  0.415888  0  0.086588  0.178205  0  4.04938  0
C  C120  1  0.43472011  0.32395676  0.37480437  1  0.442129  0  0.088586  0.181895  0  4.03605  0
C  C121  1  0.67604305  0.56527754  0.12519576  1  0.442117  0  0.088533  0.18184  0  4.03603  0
C  C122  1  0.56527915  0.67604272  0.62519688  1  0.442095  0  0.088598  0.181895  0  4.036163  0
C  C123  1  0.32395748  0.43471972  0.87480247  1  0.442097  0  0.08868  0.18199  0  4.036152  0
C  C124  1  0.35775393  0.27626450  0.34501947  1  0.014396  0  -0.002926  -0.085086  0  3.886056  0
C  C125  1  0.72373581  0.64224586  0.15498004  1  0.014285  0  -0.002866  -0.084972  0  3.886126  0
C  C126  1  0.64224659  0.72373647  0.65498055  1  0.01444  0  -0.002913  -0.085054  0  3.886021  0
C  C127  1  0.27626220  0.35775214  0.84502001  1  0.01441  0  -0.002921  -0.085085  0  3.886094  0
C  C128  1  0.60235753  0.06316584  0.87306524  1  0.445506  0  0.037166  0.084232  0  3.975615  0
C  C129  1  0.93683265  0.39764314  0.62693398  1  0.445474  0  0.037178  0.084203  0  3.97566  0
C  C130  1  0.39764237  0.93683253  0.12693420  1  0.445477  0  0.037156  0.084165  0  3.97562  0
C  C131  1  0.06316660  0.60235696  0.37306485  1  0.445488  0  0.037144  0.084193  0  3.975534  0
C  C132  1  0.55085288  0.42730054  0.38782846  1  -0.011113  0  -0.110754  -0.187771  0  3.984453  0
C  C133  1  0.57270005  0.44914561  0.11217286  1  -0.010906  0  -0.110796  -0.187861  0  3.984438  0
C  C134  1  0.44914890  0.57270129  0.61217336  1  -0.011133  0  -0.110736  -0.187781  0  3.984698  0
C  C135  1  0.42729859  0.55084942  0.88782419  1  -0.011264  0  -0.110791  -0.187854  0  3.984731  0
C  C136  1  0.06245825  0.88767087  0.50593464  1  0.465822  0  0.039905  0.096685  0  3.959525  0
C  C137  1  0.11232642  0.93754021  0.99406790  1  0.46568  0  0.039954  0.096697  0  3.959566  0
C  C138  1  0.93754164  0.11232935  0.49406962  1  0.46558  0  0.039891  0.096682  0  3.959472  0
C  C139  1  0.88767347  0.06246063  0.00593152  1  0.465692  0  0.039961  0.096764  0  3.959507  0
C  C140  1  0.22101546  0.85658480  0.48191870  1  -0.016197  0  -0.086828  -0.17974  0  3.943714  0
C  C141  1  0.14341615  0.77898631  0.01808094  1  -0.016302  0  -0.086809  -0.179692  0  3.943635  0
C  C142  1  0.77898379  0.14341592  0.51808374  1  -0.016333  0  -0.086782  -0.179654  0  3.943539  0
C  C143  1  0.85658185  0.22101169  0.98191791  1  -0.016302  0  -0.086873  -0.179715  0  3.943869  0
C  C144  1  0.23989322  0.33044235  0.27590013  1  -0.025146  0  -0.082135  -0.171661  0  3.931858  0
C  C145  1  0.66955880  0.76010691  0.22409941  1  -0.024236  0  -0.082143  -0.171661  0  3.931779  0
C  C146  1  0.76010730  0.66955923  0.72410049  1  -0.024412  0  -0.082094  -0.171562  0  3.931731  0
C  C147  1  0.33044235  0.23989295  0.77590001  1  -0.024537  0  -0.082091  -0.171547  0  3.93175  0
C  C148  1  0.23905274  0.14647293  0.33511631  1  -0.086222  0  -0.10361  -0.179724  0  3.962088  0
C  C149  1  0.85352497  0.76094677  0.16488261  1  -0.085836  0  -0.103627  -0.179766  0  3.961932  0
C  C150  1  0.76094842  0.85352507  0.66488433  1  -0.085976  0  -0.103693  -0.179842  0  3.962037  0
C  C151  1  0.14647303  0.23905184  0.83511683  1  -0.086112  0  -0.10363  -0.179717  0  3.961974  0
C  C152  1  0.68519622  0.29439178  0.62201005  1  -0.087852  0  -0.109739  -0.18921  0  3.977185  0
C  C153  1  0.70561011  0.31480361  0.87799099  1  -0.087745  0  -0.109762  -0.189152  0  3.977263  0
C  C154  1  0.31480304  0.70560894  0.37799119  1  -0.087897  0  -0.109729  -0.189136  0  3.97713  0
C  C155  1  0.29439167  0.68519574  0.12200842  1  -0.087912  0  -0.109757  -0.189161  0  3.977185  0
C  C156  1  0.66421828  0.22060341  0.66530612  1  -0.044663  0  -0.106742  -0.185955  0  3.974656  0
C  C157  1  0.77939708  0.33578184  0.83469551  1  -0.044625  0  -0.106723  -0.186005  0  3.974759  0
C  C158  1  0.33578161  0.77939682  0.33469511  1  -0.044706  0  -0.106689  -0.185893  0  3.974602  0
C  C159  1  0.22060344  0.66421789  0.16530451  1  -0.044552  0  -0.10669  -0.185909  0  3.974499  0
C  C160  1  0.47101521  0.04099384  0.62264807  1  0.479228  0  0.095112  0.189704  0  4.02078  0
C  C161  1  0.95900785  0.52898615  0.87735235  1  0.47911  0  0.095071  0.189634  0  4.020942  0
C  C162  1  0.52898342  0.95900552  0.37735318  1  0.479266  0  0.095091  0.189717  0  4.020884  0
C  C163  1  0.04099204  0.47101346  0.12264708  1  0.479086  0  0.095089  0.189639  0  4.020846  0
C  C164  1  0.54494898  0.09101701  0.65536206  1  -0.034524  0  0.003612  -0.076624  0  3.869775  0
C  C165  1  0.90898408  0.45505093  0.84463716  1  -0.034571  0  0.003595  -0.076637  0  3.869703  0
C  C166  1  0.45505091  0.90898383  0.34463857  1  -0.034563  0  0.003662  -0.076534  0  3.869695  0
C  C167  1  0.09101581  0.54494929  0.15536105  1  -0.034592  0  0.003632  -0.076612  0  3.86973  0
C  C168  1  0.31345718  0.19629286  0.37217592  1  0.484782  0  0.090622  0.18239  0  4.043437  0
C  C169  1  0.80370656  0.68654230  0.12782178  1  0.484786  0  0.090606  0.18231  0  4.043648  0
C  C170  1  0.68654334  0.80370749  0.62782349  1  0.484775  0  0.090666  0.182408  0  4.043457  0
C  C171  1  0.19629270  0.31345656  0.87217464  1  0.484737  0  0.090606  0.182344  0  4.043423  0
C  C172  1  0.68899594  0.43075643  0.50006041  1  -0.103389  0  0.013024  0.132607  0  3.98686  0
C  C173  1  0.56924301  0.31100426  0.99994067  1  -0.103411  0  0.012998  0.132567  0  3.986916  0
C  C174  1  0.31100396  0.56924256  0.49994264  1  -0.103601  0  0.012962  0.132595  0  3.986823  0
C  C175  1  0.43075877  0.68899695  0.00006054  1  -0.103419  0  0.012981  0.132677  0  3.986825  0
C  C176  1  0.32141462  0.31265860  0.27424309  1  -0.030547  0  0.016003  0.133924  0  3.982906  0
C  C177  1  0.68734026  0.67858546  0.22575644  1  -0.030364  0  0.016025  0.133864  0  3.982967  0
C  C178  1  0.67858590  0.68734299  0.72575631  1  -0.030557  0  0.016021  0.1339  0  3.982907  0
C  C179  1  0.31265900  0.32141402  0.77424420  1  -0.03061  0  0.016  0.133894  0  3.982876  0
C  C180  1  0.57355560  0.09703777  0.80383732  1  0.014513  0  -0.084893  -0.169957  0  3.961197  0
C  C181  1  0.90296255  0.42644556  0.69616249  1  0.014491  0  -0.084886  -0.169919  0  3.961216  0
C  C182  1  0.42644492  0.90296320  0.19616269  1  0.014527  0  -0.084876  -0.169907  0  3.96121  0
C  C183  1  0.09703734  0.57355466  0.30383693  1  0.014473  0  -0.084887  -0.169953  0  3.961273  0
C  C184  1  0.61691689  0.35755207  0.50325320  1  0.072521  0  -0.001087  -0.079202  0  3.882243  0
C  C185  1  0.64244901  0.38308105  0.99674848  1  0.072508  0  -0.001117  -0.079268  0  3.882248  0
C  C186  1  0.38308300  0.64244939  0.49674923  1  0.072553  0  -0.001096  -0.079308  0  3.882329  0
C  C187  1  0.35755340  0.61691843  0.00325093  1  0.072591  0  -0.001053  -0.079265  0  3.882224  0
C  C188  1  0.55159057  0.36108701  0.44719561  1  0.438742  0  0.086716  0.182086  0  4.048394  0
C  C189  1  0.63891513  0.44840758  0.05280630  1  0.438759  0  0.086751  0.182177  0  4.04825  0
C  C190  1  0.44840869  0.63891309  0.55280684  1  0.438726  0  0.086671  0.182175  0  4.048338  0
C  C191  1  0.36108791  0.55159202  0.94719250  1  0.43876  0  0.08672  0.182247  0  4.048197  0
C  C192  1  0.42726890  0.95975663  0.65386021  1  -0.039561  0  -0.101688  -0.165037  0  3.948779  0
C  C193  1  0.04024365  0.57273032  0.84614103  1  -0.03956  0  -0.10166  -0.16497  0  3.948796  0
C  C194  1  0.57272910  0.04024384  0.34614103  1  -0.039603  0  -0.101646  -0.164988  0  3.948723  0
C  C195  1  0.95975497  0.42727089  0.15385839  1  -0.038862  0  -0.10169  -0.164998  0  3.948813  0
C  C196  1  0.35304049  0.00479087  0.55207947  1  0.498117  0  0.097914  0.195735  0  4.01062  0
C  C197  1  0.99520812  0.64695854  0.94791979  1  0.498116  0  0.097957  0.195844  0  4.010591  0
C  C198  1  0.64695940  0.99520873  0.44792237  1  0.498032  0  0.097947  0.195831  0  4.010489  0
C  C199  1  0.00479114  0.35304156  0.05207782  1  0.4982  0  0.097923  0.1957  0  4.01058  0
C  C200  1  0.57785904  0.05687679  0.72959930  1  0.009815  0  0.017379  0.132283  0  3.980799  0
C  C201  1  0.94312355  0.42214294  0.77039929  1  0.009819  0  0.017356  0.132278  0  3.980776  0
C  C202  1  0.42214211  0.94312430  0.27039950  1  0.009835  0  0.017331  0.132222  0  3.980754  0
C  C203  1  0.05687382  0.57785555  0.22960016  1  0.009871  0  0.01735  0.132229  0  3.980794  0
C  C204  1  0.21264641  0.93944198  0.49837869  1  -0.017123  0  0.014993  0.131244  0  3.977429  0
C  C205  1  0.06055503  0.78735290  0.00162222  1  -0.017756  0  0.014955  0.131281  0  3.977329  0
C  C206  1  0.78735285  0.06055751  0.50162437  1  -0.017173  0  0.014939  0.131161  0  3.977425  0
C  C207  1  0.93944171  0.21264732  0.99837903  1  -0.017238  0  0.015003  0.13125  0  3.977269  0
C  C208  1  0.14900932  0.79407436  0.47697899  1  0.47706  0  0.035372  0.090764  0  3.98598  0
C  C209  1  0.20592295  0.85098954  0.02302009  1  0.476807  0  0.035383  0.090727  0  3.985852  0
C  C210  1  0.85099057  0.20592648  0.52302284  1  0.477171  0  0.035321  0.090617  0  3.985905  0
C  C211  1  0.79407756  0.14901143  0.97697872  1  0.476993  0  0.035393  0.090762  0  3.986011  0
C  C212  1  0.64049462  0.95432288  0.80099631  1  0.453755  0  0.042472  0.096966  0  3.930045  0
C  C213  1  0.04567595  0.35950590  0.69900308  1  0.453552  0  0.042475  0.096973  0  3.930038  0
C  C214  1  0.35950465  0.04567598  0.19900313  1  0.439227  0  0.042506  0.096974  0  3.930028  0
C  C215  1  0.95432268  0.64049222  0.30099516  1  0.439102  0  0.042471  0.096924  0  3.930077  0
C  C216  1  0.13093365  0.95409399  0.51214044  1  0.008916  0  -0.08299  -0.165579  0  3.917911  0
C  C217  1  0.04590758  0.86906748  0.98786084  1  0.008971  0  -0.082991  -0.165616  0  3.918038  0
C  C218  1  0.86906624  0.04590624  0.48786381  1  0.008884  0  -0.082958  -0.165451  0  3.917883  0
C  C219  1  0.95409105  0.13093126  0.01213800  1  0.00898  0  -0.083001  -0.165662  0  3.918028  0
C  C220  1  0.35485518  0.93753660  0.61050630  1  -0.073068  0  -0.099386  -0.169493  0  3.941173  0
C  C221  1  0.06246334  0.64514332  0.88949376  1  -0.073135  0  -0.099349  -0.169478  0  3.941188  0
C  C222  1  0.64514345  0.06246337  0.38949495  1  -0.073136  0  -0.09935  -0.169461  0  3.941118  0
C  C223  1  0.93753591  0.35485802  0.11050385  1  -0.073819  0  -0.099323  -0.169461  0  3.941121  0
C  C224  1  0.33265272  0.36390756  0.13677645  1  0.502266  0  0.038402  0.088518  0  3.993444  0
C  C225  1  0.63609111  0.66734836  0.36322309  1  0.502155  0  0.038387  0.088546  0  3.993467  0
C  C226  1  0.66734906  0.63609180  0.86322297  1  0.502211  0  0.038363  0.0885  0  3.993504  0
C  C227  1  0.36391066  0.33265285  0.63677752  1  0.502181  0  0.038378  0.088534  0  3.993499  0
C  C228  1  0.68088923  0.51098949  0.52670995  1  -0.076606  0  -0.08811  -0.18239  0  3.929617  0
C  C229  1  0.48901151  0.31911059  0.97329053  1  -0.076591  0  -0.088126  -0.182329  0  3.92951  0
C  C230  1  0.31911003  0.48901062  0.47329249  1  -0.076503  0  -0.088096  -0.182303  0  3.929515  0
C  C231  1  0.51099027  0.68089124  0.02671188  1  -0.076879  0  -0.088111  -0.18237  0  3.929452  0
C  C232  1  0.61129366  0.98311615  0.72928414  1  -0.037091  0  -0.080047  -0.166872  0  3.911644  0
C  C233  1  0.01688468  0.38870633  0.77071464  1  -0.03708  0  -0.080004  -0.166834  0  3.911693  0
C  C234  1  0.38870560  0.01688456  0.27071528  1  -0.037077  0  -0.080021  -0.166837  0  3.911665  0
C  C235  1  0.98311395  0.61129303  0.22928479  1  -0.037132  0  -0.08  -0.16674  0  3.911682  0
C  C236  1  0.47876521  0.40495932  0.34363788  1  -0.170945  0  -0.110554  -0.192774  0  3.988773  0
C  C237  1  0.59504143  0.52123398  0.15636284  1  -0.171046  0  -0.110531  -0.192729  0  3.988716  0
C  C238  1  0.52123279  0.59504115  0.65636155  1  -0.170958  0  -0.110558  -0.192762  0  3.988858  0
C  C239  1  0.40495909  0.47876698  0.84363718  1  -0.170886  0  -0.110501  -0.192643  0  3.988932  0
C  C240  1  0.76679368  0.42263203  0.46629807  1  -0.023718  0  -0.086194  -0.184463  0  3.932021  0
C  C241  1  0.57736886  0.23320632  0.03370319  1  -0.023745  0  -0.08616  -0.184549  0  3.932079  0
C  C242  1  0.23320621  0.57736757  0.53370498  1  -0.023583  0  -0.086132  -0.184571  0  3.93206  0
C  C243  1  0.42263292  0.76679427  0.96629682  1  -0.023754  0  -0.086192  -0.184512  0  3.932043  0
C  C244  1  0.58836761  0.17214686  0.62953946  1  0.44123  0  0.087977  0.174968  0  4.044046  0
C  C245  1  0.82785320  0.41163280  0.87046158  1  0.441383  0  0.087963  0.17493  0  4.044075  0
C  C246  1  0.41163291  0.82785349  0.37046056  1  0.44124  0  0.08795  0.174911  0  4.043992  0
C  C247  1  0.17214417  0.58836446  0.12953848  1  0.441385  0  0.087956  0.174953  0  4.043963  0
C  C248  1  0.36773103  0.32938049  0.20205660  1  -0.105838  0  -0.084777  -0.177998  0  3.954757  0
C  C249  1  0.67061664  0.63226801  0.29794295  1  -0.105814  0  -0.084759  -0.177967  0  3.954747  0
C  C250  1  0.63226949  0.67061924  0.79794342  1  -0.105782  0  -0.084764  -0.178016  0  3.954757  0
C  C251  1  0.32938199  0.36773073  0.70205770  1  -0.105688  0  -0.08476  -0.177988  0  3.954786  0
C  C252  1  0.74867876  0.57824253  0.51750969  1  0.515901  0  0.038265  0.09083  0  3.980598  0
C  C253  1  0.42175701  0.25131879  0.98248901  1  0.515793  0  0.038262  0.090822  0  3.980535  0
C  C254  1  0.25131987  0.42175745  0.48249155  1  0.515762  0  0.038271  0.090775  0  3.980537  0
C  C255  1  0.57824477  0.74868366  0.01751280  1  0.515742  0  0.038305  0.090743  0  3.980472  0
C  C256  1  0.20917701  0.36440543  0.20762241  1  0.521252  0  0.045763  0.103269  0  3.941819  0
C  C257  1  0.63559573  0.79082367  0.29237774  1  0.520708  0  0.045728  0.103248  0  3.941838  0
C  C258  1  0.79082351  0.63559554  0.79237821  1  0.520842  0  0.045714  0.103168  0  3.941806  0
C  C259  1  0.36440542  0.20917742  0.70762167  1  0.520661  0  0.045739  0.103181  0  3.941856  0
C  C260  1  0.21894322  0.07283997  0.37833748  1  -0.044892  0  -0.101024  -0.176077  0  3.961456  0
C  C261  1  0.92716128  0.78105705  0.12166019  1  -0.045044  0  -0.100984  -0.176044  0  3.961392  0
C  C262  1  0.78105856  0.92716186  0.62166131  1  -0.044985  0  -0.100976  -0.176021  0  3.961248  0
C  C263  1  0.07283861  0.21894194  0.87833803  1  -0.045022  0  -0.100987  -0.176069  0  3.961306  0
I  I264  1  0.80045351  0.84201027  0.92530748  1  -0.528331  0  -0.260622  -0.446  0  1.314804  0
I  I265  1  0.15798726  0.19954743  0.57469307  1  -0.528289  0  -0.260623  -0.445992  0  1.314741  0
I  I266  1  0.19956022  0.15800070  0.07468694  1  -0.528255  0  -0.260614  -0.445991  0  1.314839  0
I  I267  1  0.84200885  0.80044835  0.42530762  1  -0.528293  0  -0.260639  -0.446006  0  1.314721  0
I  I268  1  0.64105259  0.99662887  0.13362406  1  -0.537836  0  -0.29253  -0.463901  0  1.21688  0
I  I269  1  0.00336712  0.35894742  0.36637677  1  -0.537772  0  -0.292515  -0.463895  0  1.216875  0
I  I270  1  0.35894478  0.00336776  0.86637359  1  -0.537772  0  -0.292523  -0.463893  0  1.216834  0
I  I271  1  0.99662961  0.64105466  0.63362749  1  -0.537751  0  -0.292493  -0.463861  0  1.216887  0
N  N272  1  0.42463575  0.06489266  0.56081419  1  -1.211244  0  -0.382978  -0.36999  0  3.441272  0
N  N273  1  0.93510682  0.57536465  0.93918324  1  -1.211172  0  -0.383026  -0.370108  0  3.44157  0
N  N274  1  0.57536413  0.93510818  0.43918643  1  -1.211281  0  -0.383038  -0.370157  0  3.441553  0
N  N275  1  0.06489307  0.42463495  0.06081437  1  -1.211142  0  -0.38301  -0.369979  0  3.441352  0
N  N276  1  0.56615665  0.21708514  0.56571925  1  -1.195186  0  -0.385622  -0.372818  0  3.46139  0
N  N277  1  0.78291598  0.43384149  0.93428181  1  -1.195278  0  -0.385617  -0.372718  0  3.461401  0
N  N278  1  0.43384324  0.78291509  0.43428138  1  -1.195033  0  -0.385602  -0.372755  0  3.461319  0
N  N279  1  0.21708391  0.56615812  0.06571641  1  -1.195263  0  -0.385641  -0.372835  0  3.461386  0
N  N280  1  0.63635269  0.99361183  0.87192815  1  -1.24035  0  -0.335168  -0.21194  0  3.510857  0
N  N281  1  0.00638616  0.36364641  0.62807246  1  -1.240094  0  -0.335183  -0.211936  0  3.510792  0
N  N282  1  0.36364468  0.00638666  0.12807371  1  -1.240285  0  -0.335187  -0.211887  0  3.510805  0
N  N283  1  0.99361247  0.63635295  0.37192697  1  -1.240292  0  -0.335169  -0.211935  0  3.51068  0
N  N284  1  0.33660997  0.15114584  0.43544681  1  -1.209563  0  -0.387209  -0.376034  0  3.504887  0
N  N285  1  0.84885483  0.66338955  0.06455268  1  -1.209606  0  -0.38724  -0.376106  0  3.504868  0
N  N286  1  0.66339055  0.84885636  0.56455501  1  -1.209553  0  -0.38728  -0.376149  0  3.504896  0
N  N287  1  0.15114254  0.33661017  0.93544495  1  -1.209472  0  -0.387215  -0.376024  0  3.504601  0
N  N288  1  0.47998861  0.30102946  0.43775767  1  -1.207469  0  -0.384545  -0.367896  0  3.460001  0
N  N289  1  0.69897316  0.52000927  0.06224424  1  -1.207481  0  -0.384519  -0.367878  0  3.459876  0
N  N290  1  0.52001127  0.69897138  0.56224417  1  -1.207424  0  -0.384546  -0.367899  0  3.460024  0
N  N291  1  0.30102863  0.47998824  0.93775519  1  -1.207377  0  -0.384634  -0.368045  0  3.460083  0
N  N292  1  0.07080707  0.80889498  0.48751032  1  -1.240885  0  -0.331999  -0.234503  0  3.513037  0
N  N293  1  0.19110402  0.92919635  0.01249055  1  -1.240502  0  -0.33196  -0.234376  0  3.512754  0
N  N294  1  0.92919282  0.19110649  0.51249332  1  -1.240768  0  -0.331985  -0.234443  0  3.513059  0
N  N295  1  0.80889461  0.07080424  0.98750767  1  -1.24069  0  -0.331953  -0.234399  0  3.512778  0
N  N296  1  0.82275412  0.57008225  0.48454400  1  -1.221955  0  -0.326727  -0.23877  0  3.484909  0
N  N297  1  0.42991895  0.17724376  0.01545307  1  -1.221684  0  -0.326681  -0.23873  0  3.4849  0
N  N298  1  0.17724388  0.42991761  0.51545604  1  -1.221792  0  -0.326707  -0.23874  0  3.484864  0
N  N299  1  0.57008346  0.82275758  0.98454814  1  -1.221721  0  -0.326733  -0.238695  0  3.484812  0
N  N300  1  0.25489433  0.38163054  0.13932455  1  -1.250532  0  -0.338124  -0.230922  0  3.537105  0
N  N301  1  0.61836891  0.74510635  0.36067500  1  -1.250433  0  -0.338088  -0.230865  0  3.537114  0
N  N302  1  0.74510682  0.61836931  0.86067608  1  -1.25046  0  -0.338084  -0.230813  0  3.537037  0
N  N303  1  0.38163412  0.25489511  0.63932559  1  -1.25053  0  -0.338082  -0.230889  0  3.537191  0
