# generated using pymatgen
data_CuH7C10IN2
_symmetry_space_group_name_H-M   'P 1'
_cell_length_a   9.30665136
_cell_length_b   9.30665775
_cell_length_c   11.59357293
_cell_angle_alpha   90.72601249
_cell_angle_beta   90.72591249
_cell_angle_gamma   103.83098071
_symmetry_Int_Tables_number   1
_chemical_formula_structural   CuH7C10IN2
_chemical_formula_sum   'Cu4 H28 C40 I4 N8'
_cell_volume   974.84234148
_cell_formula_units_Z   4
loop_
 _symmetry_equiv_pos_site_id
 _symmetry_equiv_pos_as_xyz
  1  'x, y, z'
loop_
 _atom_site_type_symbol
 _atom_site_label
 _atom_site_symmetry_multiplicity
 _atom_site_fract_x
 _atom_site_fract_y
 _atom_site_fract_z
 _atom_site_occupancy
 _atom_site_pbe_bader_spin_density
 _atom_site_pbe_cm5_charge
 _atom_site_pbe_ddec_charge
 _atom_site_pbe_ddec_spin_density
 _atom_site_pbe_ddec_sum_bond_order
 _atom_site_pbe_magmom
Cu  Cu0  1  0.49053291  0.86980235  0.95372170  1  0  0.341406  0.207839  0  2.692904  0
Cu  Cu1  1  0.13019650  0.50946770  0.54627820  1  0  0.341404  0.207836  0  2.692887  0
Cu  Cu2  1  0.50946520  0.13019232  0.04628464  1  0  0.341405  0.207854  0  2.692857  0
Cu  Cu3  1  0.86980265  0.49053587  0.45372226  1  0  0.341389  0.207778  0  2.692994  0
H  H4  1  0.71933286  0.85982298  0.14679204  1  0  0.107883  0.080441  0  1.031176  0
H  H5  1  0.14017486  0.28066721  0.35320749  1  0  0.107945  0.080528  0  1.031127  0
H  H6  1  0.28066501  0.14017060  0.85321255  1  0  0.107878  0.080448  0  1.031152  0
H  H7  1  0.85982322  0.71933637  0.64679122  1  0  0.107873  0.080483  0  1.031167  0
H  H8  1  0.90357806  0.70549648  0.18517005  1  0  0.089901  0.106364  0  1.060254  0
H  H9  1  0.29450016  0.09642331  0.31483269  1  0  0.089924  0.106348  0  1.060305  0
H  H10  1  0.09642653  0.29449826  0.81483466  1  0  0.08994  0.106409  0  1.060272  0
H  H11  1  0.70549920  0.90358133  0.68517123  1  0  0.089885  0.10634  0  1.06026  0
H  H12  1  0.90486536  0.49359977  0.05133233  1  0  0.104433  0.1012  0  1.016917  0
H  H13  1  0.50639914  0.09513840  0.44866429  1  0  0.104434  0.101168  0  1.016981  0
H  H14  1  0.09514115  0.50639838  0.94866470  1  0  0.104459  0.101201  0  1.017007  0
H  H15  1  0.49360052  0.90486740  0.55133534  1  0  0.104436  0.101183  0  1.016979  0
H  H16  1  0.72698998  0.44109734  0.88490533  1  0  0.089982  0.103798  0  1.066563  0
H  H17  1  0.55890124  0.27301624  0.61508554  1  0  0.089924  0.103699  0  1.066634  0
H  H18  1  0.27301791  0.55890197  0.11508742  1  0  0.089928  0.103707  0  1.066615  0
H  H19  1  0.44109523  0.72698957  0.38490973  1  0  0.089936  0.103711  0  1.066633  0
H  H20  1  0.57986811  0.42013394  0.74999763  1  0  0.103127  0.123624  0  1.049988  0
H  H21  1  0.42013431  0.57986970  0.24999856  1  0  0.103116  0.123607  0  1.049994  0
H  H22  1  0.17036017  0.75319898  0.93127782  1  0  0.089669  0.090111  0  1.059981  0
H  H23  1  0.24680394  0.82962484  0.56872463  1  0  0.089721  0.090174  0  1.059881  0
H  H24  1  0.82962143  0.24680329  0.06872839  1  0  0.089729  0.090208  0  1.059858  0
H  H25  1  0.75320315  0.17036217  0.43128173  1  0  0.089652  0.09008  0  1.059957  0
H  H26  1  0.99129310  0.91203106  0.92868801  1  0  0.097141  0.097517  0  1.018592  0
H  H27  1  0.08797851  0.00870033  0.57130471  1  0  0.097173  0.097561  0  1.018609  0
H  H28  1  0.00869663  0.08797803  0.07130548  1  0  0.097129  0.09747  0  1.018625  0
H  H29  1  0.91203479  0.99129458  0.42869065  1  0  0.097167  0.097537  0  1.018501  0
H  H30  1  0.95418090  0.04582373  0.74999568  1  0  0.08732  0.086502  0  1.051124  0
H  H31  1  0.04582315  0.95418219  0.24999539  1  0  0.087322  0.086495  0  1.051171  0
C  C32  1  0.72671015  0.76742968  0.09030334  1  0  0.041948  0.089628  0  3.948583  0
C  C33  1  0.23256795  0.27329208  0.40969615  1  0  0.041847  0.089388  0  3.948652  0
C  C34  1  0.27329229  0.23256505  0.90970048  1  0  0.041913  0.089618  0  3.948543  0
C  C35  1  0.76743090  0.72671482  0.59030348  1  0  0.041901  0.089487  0  3.948674  0
C  C36  1  0.82789680  0.68180272  0.11108598  1  0  -0.08555  -0.114463  0  3.945175  0
C  C37  1  0.31819413  0.17210676  0.38891598  1  0  -0.08551  -0.114333  0  3.945204  0
C  C38  1  0.17210780  0.31819203  0.88891787  1  0  -0.085473  -0.114405  0  3.94516  0
C  C39  1  0.68180494  0.82790121  0.61108627  1  0  -0.085486  -0.114386  0  3.945156  0
C  C40  1  0.82865109  0.56387150  0.03586181  1  0  -0.073942  -0.031165  0  3.953732  0
C  C41  1  0.43613109  0.17134915  0.46413406  1  0  -0.073956  -0.031147  0  3.953708  0
C  C42  1  0.17135161  0.43612881  0.96413692  1  0  -0.073987  -0.031205  0  3.953764  0
C  C43  1  0.56387156  0.82865559  0.53586388  1  0  -0.073982  -0.031207  0  3.953811  0
C  C44  1  0.72909385  0.53457443  0.94299668  1  0  -0.080856  -0.141472  0  3.920157  0
C  C45  1  0.46542327  0.27091213  0.55699424  1  0  -0.080843  -0.141378  0  3.920374  0
C  C46  1  0.27091082  0.46542040  0.05699941  1  0  -0.080834  -0.141363  0  3.920295  0
C  C47  1  0.53457372  0.72909590  0.44300108  1  0  -0.080801  -0.141334  0  3.920152  0
C  C48  1  0.63075861  0.62601733  0.92787240  1  0  0.111123  0.157459  0  3.956961  0
C  C49  1  0.37398376  0.36924351  0.57212210  1  0  0.11118  0.157477  0  3.957225  0
C  C50  1  0.36924224  0.37397964  0.07212712  1  0  0.111128  0.157478  0  3.95714  0
C  C51  1  0.62601568  0.63076120  0.42787492  1  0  0.111116  0.15741  0  3.957022  0
C  C52  1  0.51808847  0.60389547  0.83496921  1  0  0.121928  0.204882  0  3.959779  0
C  C53  1  0.39610445  0.48190901  0.66503044  1  0  0.121939  0.204834  0  3.959966  0
C  C54  1  0.48191072  0.39610368  0.16503204  1  0  0.121867  0.204699  0  3.959966  0
C  C55  1  0.60389633  0.51809236  0.33497086  1  0  0.121964  0.204888  0  3.959847  0
C  C56  1  0.50563560  0.49436212  0.74999934  1  0  -0.074571  -0.219326  0  3.900262  0
C  C57  1  0.49436518  0.50563926  0.25000110  1  0  -0.074536  -0.219226  0  3.900237  0
C  C58  1  0.32105317  0.67893850  0.75000111  1  0  0.249545  0.350709  0  3.944403  0
C  C59  1  0.67893929  0.32105501  0.25000599  1  0  0.24952  0.350646  0  3.944453  0
C  C60  1  0.21995141  0.78004012  0.75000032  1  0  -0.014005  -0.003182  0  4.010227  0
C  C61  1  0.78004108  0.21995342  0.25000420  1  0  -0.013968  -0.003017  0  4.010133  0
C  C62  1  0.14880369  0.80552875  0.85153292  1  0  -0.091873  -0.118786  0  3.991625  0
C  C63  1  0.19447141  0.85118705  0.64846618  1  0  -0.09192  -0.118753  0  3.991297  0
C  C64  1  0.85118655  0.19447362  0.14846997  1  0  -0.09202  -0.119061  0  3.991446  0
C  C65  1  0.80552870  0.14880216  0.35153580  1  0  -0.091896  -0.118775  0  3.991521  0
C  C66  1  0.05014216  0.89719046  0.85041202  1  0  -0.093059  -0.077397  0  3.993501  0
C  C67  1  0.10281568  0.94985742  0.64958227  1  0  -0.092949  -0.077333  0  3.993158  0
C  C68  1  0.94985457  0.10281645  0.14958414  1  0  -0.092913  -0.077165  0  3.993218  0
C  C69  1  0.89719217  0.05014185  0.35041394  1  0  -0.093065  -0.077416  0  3.993393  0
C  C70  1  0.02866103  0.97134494  0.74999550  1  0  -0.091212  -0.079441  0  3.993817  0
C  C71  1  0.97134542  0.02866208  0.24999735  1  0  -0.091168  -0.079386  0  3.993922  0
I  I72  1  0.63540248  0.10363122  0.85037658  1  0  -0.211654  -0.359277  0  1.930356  0
I  I73  1  0.89637018  0.36459168  0.64962260  1  0  -0.211632  -0.359227  0  1.930353  0
I  I74  1  0.36459938  0.89636123  0.14963410  1  0  -0.211642  -0.359235  0  1.930292  0
I  I75  1  0.10362727  0.63540426  0.35036736  1  0  -0.211639  -0.359233  0  1.930321  0
N  N76  1  0.42521454  0.69726429  0.83461964  1  0  -0.335772  -0.303296  0  3.496888  0
N  N77  1  0.30273059  0.57478054  0.66538262  1  0  -0.33575  -0.303264  0  3.496959  0
N  N78  1  0.57478250  0.30273038  0.16538582  1  0  -0.335691  -0.303171  0  3.496897  0
N  N79  1  0.69726616  0.42521745  0.33462202  1  0  -0.335769  -0.303309  0  3.496934  0
N  N80  1  0.63202235  0.74152277  0.00026786  1  0  -0.352911  -0.222969  0  3.615424  0
N  N81  1  0.25847748  0.36798182  0.49973089  1  0  -0.352938  -0.222905  0  3.615503  0
N  N82  1  0.36798142  0.25847307  0.99973600  1  0  -0.352922  -0.223002  0  3.615486  0
N  N83  1  0.74152245  0.63202510  0.50026789  1  0  -0.352853  -0.222815  0  3.615378  0
