# generated using pymatgen
data_CdH6(C2O3)2
_symmetry_space_group_name_H-M   'P 1'
_cell_length_a   9.54047144
_cell_length_b   9.72676568
_cell_length_c   13.67806103
_cell_angle_alpha   71.33268151
_cell_angle_beta   69.58787945
_cell_angle_gamma   60.62951065
_symmetry_Int_Tables_number   1
_chemical_formula_structural   CdH6(C2O3)2
_chemical_formula_sum   'Cd6 H36 C24 O36'
_cell_volume   1019.29070261
_cell_formula_units_Z   6
loop_
 _symmetry_equiv_pos_site_id
 _symmetry_equiv_pos_as_xyz
  1  'x, y, z'
loop_
 _atom_site_type_symbol
 _atom_site_label
 _atom_site_symmetry_multiplicity
 _atom_site_fract_x
 _atom_site_fract_y
 _atom_site_fract_z
 _atom_site_occupancy
 _atom_site_hle17_bader_spin_density
 _atom_site_hle17_ddec_charge
 _atom_site_hle17_ddec_spin_density
 _atom_site_hle17_ddec_sum_bond_order
 _atom_site_hle17_magmom
 _atom_site_hse06_10hf_bader_spin_density
 _atom_site_hse06_10hf_ddec_charge
 _atom_site_hse06_10hf_ddec_spin_density
 _atom_site_hse06_10hf_ddec_sum_bond_order
 _atom_site_hse06_10hf_magmom
 _atom_site_hse06_bader_spin_density
 _atom_site_hse06_ddec_charge
 _atom_site_hse06_ddec_spin_density
 _atom_site_hse06_ddec_sum_bond_order
 _atom_site_hse06_magmom
 _atom_site_pbe_bader_spin_density
 _atom_site_pbe_cm5_charge
 _atom_site_pbe_ddec_charge
 _atom_site_pbe_ddec_spin_density
 _atom_site_pbe_ddec_sum_bond_order
 _atom_site_pbe_magmom
Cd  Cd0  1  0.48337242  0.74997462  0.25000074  1  0  1.216101  0  1.520683  0  0  1.024746  0  1.945358  0  0  1.091868  0  1.885465  0  0  0.77259  0.977153  0  1.98522  0
Cd  Cd1  1  0.51662738  0.25002495  0.74999961  1  0  1.216111  0  1.520705  0  0  1.024762  0  1.945371  0  0  1.09188  0  1.88549  0  0  0.772604  0.977174  0  1.985237  0
Cd  Cd2  1  0.98701813  0.80427002  0.70590754  1  0  1.304535  0  1.520073  0  0  1.13429  0  1.958388  0  0  1.190337  0  1.898661  0  0  0.780056  1.093428  0  2.000044  0
Cd  Cd3  1  0.49714715  0.69576983  0.79409272  1  0  1.30528  0  1.519108  0  0  1.134916  0  1.957165  0  0  1.191001  0  1.897433  0  0  0.780611  1.093998  0  1.998866  0
Cd  Cd4  1  0.01298113  0.19573075  0.29409266  1  0  1.304544  0  1.520051  0  0  1.134295  0  1.958362  0  0  1.190343  0  1.898636  0  0  0.780064  1.093431  0  2.000019  0
Cd  Cd5  1  0.50285285  0.30423094  0.20590675  1  0  1.305282  0  1.519093  0  0  1.134926  0  1.957136  0  0  1.191008  0  1.897406  0  0  0.780623  1.094005  0  1.998837  0
H  H6  1  0.90353225  0.53011002  0.78153816  1  0  0.433735  0  0.857389  0  0  0.40437  0  0.918614  0  0  0.414545  0  0.903713  0  0  0.291546  0.396938  0  0.92951  0
H  H7  1  0.21512108  0.96996423  0.71844318  1  0  0.432434  0  0.859095  0  0  0.403319  0  0.919871  0  0  0.413473  0  0.905015  0  0  0.290816  0.395898  0  0.930735  0
H  H8  1  0.09646702  0.46989075  0.21846204  1  0  0.433741  0  0.857379  0  0  0.404373  0  0.918613  0  0  0.414548  0  0.903711  0  0  0.291546  0.39694  0  0.92951  0
H  H9  1  0.78487944  0.03003534  0.28155643  1  0  0.432424  0  0.859112  0  0  0.403309  0  0.919889  0  0  0.413463  0  0.905032  0  0  0.29081  0.395886  0  0.930755  0
H  H10  1  0.09007298  0.46874885  0.78806365  1  0  0.426738  0  0.880433  0  0  0.393852  0  0.946959  0  0  0.404823  0  0.931298  0  0  0.284862  0.38601  0  0.958141  0
H  H11  1  0.34684896  0.03129296  0.71191871  1  0  0.42806  0  0.878195  0  0  0.394823  0  0.945421  0  0  0.405832  0  0.929687  0  0  0.284859  0.386934  0  0.956663  0
H  H12  1  0.90992714  0.53125192  0.21193683  1  0  0.426737  0  0.880437  0  0  0.393855  0  0.946957  0  0  0.404826  0  0.931297  0  0  0.284869  0.386011  0  0.958142  0
H  H13  1  0.65315157  0.96870661  0.28808091  1  0  0.428038  0  0.87823  0  0  0.394797  0  0.945462  0  0  0.405807  0  0.929728  0  0  0.284847  0.386908  0  0.956705  0
H  H14  1  0.30046550  0.61419464  0.58939955  1  0  0.439008  0  0.856802  0  0  0.408411  0  0.919498  0  0  0.418534  0  0.904992  0  0  0.295643  0.401212  0  0.929799  0
H  H15  1  0.50412628  0.88579908  0.91058643  1  0  0.439135  0  0.856687  0  0  0.408195  0  0.919991  0  0  0.41835  0  0.905424  0  0  0.295379  0.400963  0  0.930333  0
H  H16  1  0.69953587  0.38580493  0.41060033  1  0  0.439003  0  0.856813  0  0  0.4084  0  0.919519  0  0  0.418522  0  0.905012  0  0  0.295634  0.401199  0  0.92982  0
H  H17  1  0.49587351  0.11420050  0.08941392  1  0  0.439159  0  0.856654  0  0  0.408218  0  0.91996  0  0  0.418373  0  0.905392  0  0  0.295377  0.400984  0  0.930303  0
H  H18  1  0.22180875  0.75080208  0.50325653  1  0  0.421422  0  0.874319  0  0  0.391428  0  0.938568  0  0  0.401637  0  0.923797  0  0  0.292913  0.384106  0  0.949163  0
H  H19  1  0.47592848  0.74919483  0.99673012  1  0  0.420491  0  0.875578  0  0  0.390352  0  0.940061  0  0  0.400574  0  0.925278  0  0  0.292526  0.383026  0  0.95065  0
H  H20  1  0.77819105  0.24919749  0.49674382  1  0  0.421413  0  0.874325  0  0  0.391416  0  0.938585  0  0  0.401625  0  0.923814  0  0  0.292908  0.384093  0  0.949181  0
H  H21  1  0.52407067  0.25080594  0.00326908  1  0  0.420497  0  0.875561  0  0  0.390356  0  0.940057  0  0  0.400578  0  0.925274  0  0  0.292515  0.383029  0  0.950648  0
H  H22  1  0.93739972  0.13512202  0.65135595  1  0  0.422909  0  0.87448  0  0  0.391452  0  0.938309  0  0  0.401415  0  0.924011  0  0  0.292395  0.384437  0  0.948318  0
H  H23  1  0.72387723  0.36489698  0.84863331  1  0  0.422949  0  0.872963  0  0  0.390895  0  0.938724  0  0  0.400883  0  0.924417  0  0  0.29236  0.38386  0  0.948739  0
H  H24  1  0.06260113  0.86487875  0.34864379  1  0  0.422876  0  0.874523  0  0  0.391415  0  0.938361  0  0  0.401379  0  0.924062  0  0  0.292387  0.384398  0  0.948372  0
H  H25  1  0.27612257  0.63510259  0.15136704  1  0  0.422959  0  0.872962  0  0  0.390914  0  0.938702  0  0  0.400902  0  0.924395  0  0  0.29237  0.383877  0  0.948719  0
H  H26  1  0.09287716  0.04793473  0.56884921  1  0  0.424675  0  0.878349  0  0  0.393679  0  0.941871  0  0  0.404656  0  0.926167  0  0  0.289195  0.385739  0  0.9533  0
H  H27  1  0.70965605  0.45210027  0.93112565  1  0  0.423596  0  0.879728  0  0  0.392842  0  0.9431  0  0  0.403821  0  0.927362  0  0  0.288631  0.384909  0  0.954536  0
H  H28  1  0.90712275  0.95206484  0.43115214  1  0  0.424708  0  0.878296  0  0  0.393717  0  0.941809  0  0  0.404693  0  0.926107  0  0  0.28921  0.385776  0  0.953239  0
H  H29  1  0.29034374  0.54789930  0.06887470  1  0  0.42358  0  0.87976  0  0  0.39283  0  0.943123  0  0  0.403809  0  0.927386  0  0  0.288626  0.384899  0  0.954556  0
H  H30  1  0.99565633  0.96420172  0.90158706  1  0  0.125393  0  0.929013  0  0  0.142719  0  0.983181  0  0  0.14494  0  0.982404  0  0  0.111819  0.141152  0  0.983814  0
H  H31  1  0.86140690  0.53582398  0.59845651  1  0  0.125244  0  0.929756  0  0  0.142891  0  0.9835  0  0  0.145139  0  0.982691  0  0  0.111463  0.141345  0  0.984173  0
H  H32  1  0.00434367  0.03579905  0.09841241  1  0  0.125391  0  0.928987  0  0  0.142718  0  0.983165  0  0  0.14494  0  0.982388  0  0  0.111807  0.141151  0  0.983798  0
H  H33  1  0.13859322  0.46417679  0.40154396  1  0  0.125188  0  0.929806  0  0  0.142826  0  0.983555  0  0  0.145074  0  0.982745  0  0  0.111435  0.141283  0  0.984228  0
H  H34  1  0.82933728  0.04100620  0.00936770  1  0  0.123455  0  0.928754  0  0  0.135236  0  0.992697  0  0  0.13782  0  0.991152  0  0  0.107715  0.133235  0  0.994189  0
H  H35  1  0.87972489  0.45901125  0.49066449  1  0  0.12339  0  0.928339  0  0  0.134801  0  0.99254  0  0  0.137354  0  0.991024  0  0  0.107784  0.132847  0  0.994054  0
H  H36  1  0.17066325  0.95899337  0.99063191  1  0  0.123445  0  0.928732  0  0  0.135225  0  0.992686  0  0  0.137809  0  0.991142  0  0  0.107714  0.133224  0  0.994181  0
H  H37  1  0.12027627  0.54098712  0.50933627  1  0  0.123386  0  0.928348  0  0  0.134802  0  0.992531  0  0  0.137355  0  0.991015  0  0  0.107782  0.132848  0  0.99405  0
H  H38  1  0.03899281  0.55158101  0.03384557  1  0  0.130244  0  0.964219  0  0  0.13866  0  1.027058  0  0  0.142241  0  1.024987  0  0  0.114322  0.135683  0  1.029636  0
H  H39  1  0.62442299  0.94843388  0.46616106  1  0  0.130192  0  0.964214  0  0  0.138918  0  1.026779  0  0  0.142513  0  1.024683  0  0  0.114915  0.13593  0  1.029348  0
H  H40  1  0.96100698  0.44841857  0.96615478  1  0  0.130243  0  0.964228  0  0  0.138656  0  1.027068  0  0  0.142238  0  1.024996  0  0  0.114322  0.135678  0  1.029645  0
H  H41  1  0.37557838  0.05156569  0.53383882  1  0  0.130196  0  0.964209  0  0  0.138926  0  1.026765  0  0  0.142521  0  1.024668  0  0  0.114917  0.135933  0  1.029333  0
C  C42  1  0.74577792  0.78632605  0.08685146  1  0  0.643182  0  3.883596  0  0  0.590476  0  4.17215  0  0  0.624593  0  4.166866  0  0  0.205435  0.567318  0  4.174786  0
C  C43  1  0.61896837  0.71368057  0.41316345  1  0  0.644893  0  3.884273  0  0  0.59217  0  4.172286  0  0  0.626337  0  4.16698  0  0  0.206745  0.568984  0  4.174942  0
C  C44  1  0.25422261  0.21367352  0.91314816  1  0  0.643154  0  3.883672  0  0  0.590461  0  4.172185  0  0  0.62458  0  4.166899  0  0  0.205446  0.567302  0  4.174822  0
C  C45  1  0.38103216  0.28631900  0.58683616  1  0  0.644817  0  3.884299  0  0  0.592123  0  4.172279  0  0  0.626289  0  4.166971  0  0  0.20672  0.56894  0  4.174936  0
C  C46  1  0.89199743  0.80062621  0.00349691  1  0  0.019601  0  3.686847  0  0  0.035179  0  3.933409  0  0  0.03156  0  3.952309  0  0  -0.009776  0.037112  0  3.921046  0
C  C47  1  0.69610094  0.69940384  0.49651327  1  0  0.017582  0  3.688428  0  0  0.033941  0  3.934186  0  0  0.030243  0  3.953144  0  0  -0.009448  0.035989  0  3.921787  0
C  C48  1  0.10800373  0.19937216  0.99650385  1  0  0.019544  0  3.686927  0  0  0.035159  0  3.933428  0  0  0.031544  0  3.952327  0  0  -0.00979  0.037088  0  3.921065  0
C  C49  1  0.30389905  0.30059693  0.50348620  1  0  0.017652  0  3.688364  0  0  0.033999  0  3.934114  0  0  0.030303  0  3.953075  0  0  -0.009438  0.036045  0  3.921719  0
C  C50  1  0.75993402  0.05499695  0.87336756  1  0  0.738646  0  3.781112  0  0  0.68319  0  4.081109  0  0  0.718262  0  4.073748  0  0  0.220998  0.659194  0  4.085568  0
C  C51  1  0.68827301  0.44502842  0.62662468  1  0  0.735656  0  3.782819  0  0  0.681074  0  4.081442  0  0  0.716109  0  4.074162  0  0  0.219923  0.657154  0  4.085787  0
C  C52  1  0.24006493  0.94500262  0.12663252  1  0  0.738604  0  3.781163  0  0  0.683156  0  4.081155  0  0  0.718229  0  4.073796  0  0  0.220989  0.65916  0  4.085614  0
C  C53  1  0.31172783  0.55497235  0.37337506  1  0  0.7356  0  3.782843  0  0  0.68101  0  4.081465  0  0  0.716048  0  4.074185  0  0  0.219914  0.657095  0  4.085806  0
C  C54  1  0.87455588  0.96742578  0.94910190  1  0  -0.305236  0  3.708592  0  0  -0.348342  0  3.950251  0  0  -0.354025  0  3.958428  0  0  -0.161933  -0.344188  0  3.944773  0
C  C55  1  0.79105804  0.53258669  0.55092353  1  0  -0.303252  0  3.707057  0  0  -0.34639  0  3.947619  0  0  -0.352031  0  3.955764  0  0  -0.161215  -0.342463  0  3.942414  0
C  C56  1  0.12544412  0.03257499  0.05089757  1  0  -0.305202  0  3.708602  0  0  -0.34833  0  3.950261  0  0  -0.354019  0  3.958445  0  0  -0.161935  -0.344179  0  3.944789  0
C  C57  1  0.20894175  0.46741288  0.44907681  1  0  -0.303138  0  3.707003  0  0  -0.346262  0  3.947551  0  0  -0.351907  0  3.955701  0  0  -0.161161  -0.342352  0  3.942367  0
C  C58  1  0.18278445  0.66420198  0.90217337  1  0  0.714819  0  3.893489  0  0  0.660591  0  4.19331  0  0  0.696058  0  4.184683  0  0  0.211779  0.636321  0  4.198435  0
C  C59  1  0.74915733  0.83581336  0.59783869  1  0  0.714036  0  3.896338  0  0  0.661029  0  4.194237  0  0  0.696409  0  4.185726  0  0  0.211038  0.636762  0  4.199348  0
C  C60  1  0.81721534  0.33579759  0.09782697  1  0  0.714812  0  3.893482  0  0  0.660592  0  4.193281  0  0  0.696057  0  4.184656  0  0  0.211777  0.636315  0  4.198403  0
C  C61  1  0.25084193  0.16418741  0.40216151  1  0  0.714037  0  3.896234  0  0  0.661023  0  4.194142  0  0  0.696403  0  4.185631  0  0  0.211049  0.636759  0  4.199251  0
C  C62  1  0.03124514  0.66666402  0.98428527  1  0  -0.229202  0  3.62945  0  0  -0.260385  0  3.892498  0  0  -0.263187  0  3.902933  0  0  -0.082891  -0.258754  0  3.886682  0
C  C63  1  0.68219936  0.83334100  0.51571876  1  0  -0.228656  0  3.6337  0  0  -0.261211  0  3.896669  0  0  -0.263969  0  3.907135  0  0  -0.084425  -0.259557  0  3.890792  0
C  C64  1  0.96875413  0.33333675  0.01571493  1  0  -0.229174  0  3.629431  0  0  -0.26037  0  3.892459  0  0  -0.263174  0  3.902895  0  0  -0.082882  -0.258734  0  3.886639  0
C  C65  1  0.31780117  0.16665857  0.48428085  1  0  -0.228687  0  3.633704  0  0  -0.261237  0  3.896672  0  0  -0.263995  0  3.907139  0  0  -0.084423  -0.25958  0  3.890791  0
O  O66  1  0.60823111  0.90873292  0.09459728  1  0  -0.616303  0  2.015193  0  0  -0.547491  0  2.244396  0  0  -0.57544  0  2.236158  0  0  -0.302412  -0.528037  0  2.249379  0
O  O67  1  0.61156813  0.59128240  0.40542051  1  0  -0.616778  0  2.01625  0  0  -0.548156  0  2.245572  0  0  -0.576021  0  2.237041  0  0  -0.302855  -0.52868  0  2.250577  0
O  O68  1  0.39176973  0.09126785  0.90540246  1  0  -0.616269  0  2.015213  0  0  -0.547487  0  2.244425  0  0  -0.575438  0  2.23619  0  0  -0.302429  -0.528034  0  2.249412  0
O  O69  1  0.38843271  0.40871837  0.59457924  1  0  -0.616797  0  2.016267  0  0  -0.54819  0  2.245577  0  0  -0.57606  0  2.237062  0  0  -0.302902  -0.528718  0  2.250585  0
O  O70  1  0.76077875  0.65024144  0.14766824  1  0  -0.655681  0  2.027026  0  0  -0.580125  0  2.259751  0  0  -0.611331  0  2.250735  0  0  -0.319479  -0.557991  0  2.265086  0
O  O71  1  0.55868604  0.84976842  0.35233218  1  0  -0.655668  0  2.02734  0  0  -0.580165  0  2.260446  0  0  -0.611414  0  2.251369  0  0  -0.319165  -0.557993  0  2.265805  0
O  O72  1  0.23922125  0.34975933  0.85233123  1  0  -0.655658  0  2.027027  0  0  -0.58009  0  2.259726  0  0  -0.611294  0  2.250708  0  0  -0.319475  -0.557958  0  2.265061  0
O  O73  1  0.44131501  0.15022995  0.64766758  1  0  -0.655641  0  2.027404  0  0  -0.580154  0  2.260502  0  0  -0.611402  0  2.251423  0  0  -0.319123  -0.557984  0  2.265863  0
O  O74  1  0.66380209  0.20457921  0.87426513  1  0  -0.680744  0  2.049404  0  0  -0.599673  0  2.281863  0  0  -0.630174  0  2.270561  0  0  -0.314093  -0.578198  0  2.288899  0
O  O75  1  0.74260978  0.29545773  0.62571774  1  0  -0.679398  0  2.048697  0  0  -0.599009  0  2.28065  0  0  -0.629439  0  2.269279  0  0  -0.314926  -0.577596  0  2.287735  0
O  O76  1  0.33619843  0.79542036  0.12573448  1  0  -0.680721  0  2.049383  0  0  -0.599655  0  2.281842  0  0  -0.630153  0  2.270537  0  0  -0.314089  -0.578178  0  2.288873  0
O  O77  1  0.25738864  0.70454304  0.37428219  1  0  -0.679405  0  2.048692  0  0  -0.59901  0  2.280648  0  0  -0.629442  0  2.269277  0  0  -0.31494  -0.577594  0  2.287728  0
O  O78  1  0.76255472  0.98418413  0.80891084  1  0  -0.661548  0  2.030579  0  0  -0.589024  0  2.296237  0  0  -0.620075  0  2.28351  0  0  -0.314792  -0.56688  0  2.304011  0
O  O79  1  0.55560147  0.51583601  0.69107946  1  0  -0.660692  0  2.033201  0  0  -0.588288  0  2.298007  0  0  -0.619383  0  2.285362  0  0  -0.313908  -0.566101  0  2.30572  0
O  O80  1  0.23744507  0.01581544  0.19108951  1  0  -0.661533  0  2.030605  0  0  -0.589011  0  2.296259  0  0  -0.620069  0  2.283549  0  0  -0.314781  -0.566865  0  2.304031  0
O  O81  1  0.44439706  0.48416476  0.30892147  1  0  -0.660663  0  2.033244  0  0  -0.588273  0  2.298081  0  0  -0.619357  0  2.285407  0  0  -0.313903  -0.566082  0  2.305788  0
O  O82  1  0.31537456  0.60648321  0.93462994  1  0  -0.647699  0  1.974431  0  0  -0.571128  0  2.204388  0  0  -0.601782  0  2.19239  0  0  -0.309899  -0.550031  0  2.212419  0
O  O83  1  0.85647643  0.89353847  0.56539116  1  0  -0.648206  0  1.97455  0  0  -0.571548  0  2.203241  0  0  -0.602124  0  2.191275  0  0  -0.308858  -0.550463  0  2.211258  0
O  O84  1  0.68462523  0.39351637  0.06537040  1  0  -0.64769  0  1.974429  0  0  -0.57111  0  2.204372  0  0  -0.601762  0  2.192373  0  0  -0.309894  -0.550016  0  2.212404  0
O  O85  1  0.14352336  0.10646110  0.43460918  1  0  -0.648165  0  1.974483  0  0  -0.571499  0  2.203181  0  0  -0.602076  0  2.191216  0  0  -0.308853  -0.550421  0  2.2112  0
O  O86  1  0.00506537  0.54672163  0.74623184  1  0  -0.86137  0  1.864009  0  0  -0.800752  0  2.060044  0  0  -0.82378  0  2.025881  0  0  -0.591667  -0.784367  0  2.084341  0
O  O87  1  0.29795963  0.95333783  0.75375693  1  0  -0.861235  0  1.862524  0  0  -0.800516  0  2.058663  0  0  -0.823542  0  2.024471  0  0  -0.590665  -0.784087  0  2.08306  0
O  O88  1  0.99493474  0.45327915  0.25376863  1  0  -0.861366  0  1.863992  0  0  -0.800745  0  2.060021  0  0  -0.823773  0  2.02586  0  0  -0.591673  -0.784362  0  2.084328  0
O  O89  1  0.70204017  0.04666174  0.24624342  1  0  -0.861209  0  1.862561  0  0  -0.800487  0  2.058693  0  0  -0.823512  0  2.024502  0  0  -0.590655  -0.784058  0  2.083092  0
O  O90  1  0.23391832  0.73185737  0.57575340  1  0  -0.830661  0  1.839633  0  0  -0.772039  0  2.029877  0  0  -0.795028  0  1.998554  0  0  -0.591924  -0.755533  0  2.051899  0
O  O91  1  0.54158551  0.76813689  0.92423508  1  0  -0.830469  0  1.840422  0  0  -0.771024  0  2.030305  0  0  -0.794035  0  1.999  0  0  -0.591606  -0.754476  0  2.052355  0
O  O92  1  0.76608147  0.26814220  0.42424695  1  0  -0.830648  0  1.839651  0  0  -0.772008  0  2.029884  0  0  -0.794997  0  1.998561  0  0  -0.591908  -0.755497  0  2.051906  0
O  O93  1  0.45841250  0.23186508  0.07576571  1  0  -0.830495  0  1.840349  0  0  -0.771059  0  2.030244  0  0  -0.794068  0  1.99894  0  0  -0.591607  -0.754511  0  2.052295  0
O  O94  1  0.17823061  0.72019387  0.80571632  1  0  -0.644262  0  2.026067  0  0  -0.569168  0  2.275159  0  0  -0.600797  0  2.265054  0  0  -0.309283  -0.546389  0  2.28121  0
O  O95  1  0.70412653  0.77982120  0.69429284  1  0  -0.643691  0  2.026505  0  0  -0.56906  0  2.274937  0  0  -0.600752  0  2.26505  0  0  -0.309318  -0.546248  0  2.280909  0
O  O96  1  0.82176833  0.27980570  0.19428375  1  0  -0.644277  0  2.026095  0  0  -0.569184  0  2.275168  0  0  -0.600813  0  2.265063  0  0  -0.309294  -0.546406  0  2.281225  0
O  O97  1  0.29587274  0.22017957  0.30570736  1  0  -0.643729  0  2.026436  0  0  -0.569102  0  2.274882  0  0  -0.6008  0  2.265006  0  0  -0.309358  -0.546294  0  2.280857  0
O  O98  1  0.04419069  0.03851069  0.64725670  1  0  -0.843827  0  1.886184  0  0  -0.778177  0  2.069468  0  0  -0.802205  0  2.037548  0  0  -0.577228  -0.7605  0  2.091695  0
O  O99  1  0.72993141  0.46152604  0.85272090  1  0  -0.84284  0  1.885735  0  0  -0.776795  0  2.069372  0  0  -0.800809  0  2.037405  0  0  -0.576529  -0.759103  0  2.091589  0
O  O100  1  0.95580846  0.96149008  0.35274250  1  0  -0.84383  0  1.886156  0  0  -0.778188  0  2.069446  0  0  -0.802216  0  2.037526  0  0  -0.577245  -0.760508  0  2.091675  0
O  O101  1  0.27006701  0.53847473  0.14727903  1  0  -0.842827  0  1.885768  0  0  -0.776789  0  2.069374  0  0  -0.800804  0  2.037406  0  0  -0.576529  -0.7591  0  2.091587  0
