# generated using pymatgen
data_ZnH8C4(BrO)2
_symmetry_space_group_name_H-M   'P 1'
_cell_length_a   7.12921226
_cell_length_b   9.81300952
_cell_length_c   11.91743318
_cell_angle_alpha   89.99997381
_cell_angle_beta   89.99990699
_cell_angle_gamma   99.63852209
_symmetry_Int_Tables_number   1
_chemical_formula_structural   ZnH8C4(BrO)2
_chemical_formula_sum   'Zn4 H32 C16 Br8 O8'
_cell_volume   821.96281841
_cell_formula_units_Z   4
loop_
 _symmetry_equiv_pos_site_id
 _symmetry_equiv_pos_as_xyz
  1  'x, y, z'
loop_
 _atom_site_type_symbol
 _atom_site_label
 _atom_site_symmetry_multiplicity
 _atom_site_fract_x
 _atom_site_fract_y
 _atom_site_fract_z
 _atom_site_occupancy
 _atom_site_hle17_bader_spin_density
 _atom_site_hle17_ddec_charge
 _atom_site_hle17_ddec_spin_density
 _atom_site_hle17_ddec_sum_bond_order
 _atom_site_hle17_magmom
 _atom_site_hse06_10hf_bader_spin_density
 _atom_site_hse06_10hf_ddec_charge
 _atom_site_hse06_10hf_ddec_spin_density
 _atom_site_hse06_10hf_ddec_sum_bond_order
 _atom_site_hse06_10hf_magmom
 _atom_site_hse06_bader_spin_density
 _atom_site_hse06_ddec_charge
 _atom_site_hse06_ddec_spin_density
 _atom_site_hse06_ddec_sum_bond_order
 _atom_site_hse06_magmom
 _atom_site_pbe_bader_spin_density
 _atom_site_pbe_cm5_charge
 _atom_site_pbe_ddec_charge
 _atom_site_pbe_ddec_spin_density
 _atom_site_pbe_ddec_sum_bond_order
 _atom_site_pbe_magmom
Zn  Zn0  1  0.66111064  0.27039960  0.81425550  1  0  0.843056  0  2.069196  0  0  0.675349  0  2.547462  0  0  0.723429  0  2.493598  0  0  0.507733  0.642458  0  2.583695  0
Zn  Zn1  1  0.16110941  0.77039951  0.68574476  1  0  0.843048  0  2.06918  0  0  0.675318  0  2.547427  0  0  0.723437  0  2.493584  0  0  0.507744  0.642467  0  2.583678  0
Zn  Zn2  1  0.33889080  0.72960135  0.18574439  1  0  0.843071  0  2.0692  0  0  0.675352  0  2.547448  0  0  0.723441  0  2.493594  0  0  0.507751  0.642472  0  2.58369  0
Zn  Zn3  1  0.83889040  0.22960040  0.31425598  1  0  0.843055  0  2.069178  0  0  0.675371  0  2.547435  0  0  0.72346  0  2.493575  0  0  0.507745  0.642489  0  2.583674  0
H  H4  1  0.38469567  0.47874201  0.80913873  1  0  0.079018  0  0.944172  0  0  0.090389  0  1.012075  0  0  0.090557  0  1.01243  0  0  0.097643  0.089846  0  1.012542  0
H  H5  1  0.88469414  0.97874120  0.69086040  1  0  0.07903  0  0.944213  0  0  0.090379  0  1.012104  0  0  0.090549  0  1.012457  0  0  0.097635  0.089838  0  1.012572  0
H  H6  1  0.61530437  0.52125893  0.19086033  1  0  0.079031  0  0.944203  0  0  0.09039  0  1.0121  0  0  0.090559  0  1.012454  0  0  0.097653  0.089848  0  1.012566  0
H  H7  1  0.11530426  0.02125870  0.30913866  1  0  0.079006  0  0.944213  0  0  0.090375  0  1.012099  0  0  0.090545  0  1.012452  0  0  0.097645  0.089835  0  1.012567  0
H  H8  1  0.57637149  0.60443310  0.86208625  1  0  0.06979  0  0.95203  0  0  0.078492  0  1.024316  0  0  0.079974  0  1.022767  0  0  0.088873  0.077122  0  1.025935  0
H  H9  1  0.07637165  0.10443199  0.63791332  1  0  0.06982  0  0.951997  0  0  0.078501  0  1.024271  0  0  0.079983  0  1.022721  0  0  0.08887  0.077133  0  1.02589  0
H  H10  1  0.42362691  0.39556680  0.13791281  1  0  0.069795  0  0.952032  0  0  0.078491  0  1.024304  0  0  0.079973  0  1.022756  0  0  0.088877  0.077121  0  1.025923  0
H  H11  1  0.92362816  0.89556791  0.36208658  1  0  0.069795  0  0.952041  0  0  0.078493  0  1.024316  0  0  0.079976  0  1.022767  0  0  0.08888  0.077124  0  1.025935  0
H  H12  1  0.77912204  0.53185578  0.00541260  1  0  0.073606  0  0.94305  0  0  0.081886  0  1.015204  0  0  0.083407  0  1.013902  0  0  0.090427  0.080688  0  1.016341  0
H  H13  1  0.27912139  0.03185537  0.49458707  1  0  0.073594  0  0.943028  0  0  0.08185  0  1.015222  0  0  0.083371  0  1.013919  0  0  0.090416  0.080654  0  1.016354  0
H  H14  1  0.22087800  0.46814516  0.99458730  1  0  0.073618  0  0.943038  0  0  0.081874  0  1.015219  0  0  0.083394  0  1.013917  0  0  0.09043  0.080677  0  1.016353  0
H  H15  1  0.72087701  0.96814453  0.50541199  1  0  0.073597  0  0.943032  0  0  0.081846  0  1.015208  0  0  0.083367  0  1.013905  0  0  0.090409  0.080648  0  1.016342  0
H  H16  1  0.73062199  0.35606920  0.05207875  1  0  0.078467  0  0.955987  0  0  0.087027  0  1.029551  0  0  0.087752  0  1.028911  0  0  0.096794  0.08648  0  1.02996  0
H  H17  1  0.23062163  0.85606991  0.44792085  1  0  0.078449  0  0.955995  0  0  0.087023  0  1.029551  0  0  0.087748  0  1.02891  0  0  0.096795  0.086477  0  1.029961  0
H  H18  1  0.26937758  0.64392967  0.94792115  1  0  0.078451  0  0.956012  0  0  0.087018  0  1.02957  0  0  0.087742  0  1.028933  0  0  0.09679  0.086472  0  1.02998  0
H  H19  1  0.76937818  0.14393000  0.55207905  1  0  0.07845  0  0.956022  0  0  0.08701  0  1.029569  0  0  0.087731  0  1.028936  0  0  0.096793  0.086462  0  1.029977  0
H  H20  1  0.32908726  0.97677203  0.86968693  1  0  0.054673  0  0.965036  0  0  0.06015  0  1.046117  0  0  0.061114  0  1.044862  0  0  0.088847  0.059136  0  1.047539  0
H  H21  1  0.82908179  0.47677124  0.63031225  1  0  0.054706  0  0.965049  0  0  0.060196  0  1.046106  0  0  0.061159  0  1.04485  0  0  0.08886  0.059183  0  1.047526  0
H  H22  1  0.67091418  0.02322891  0.13031213  1  0  0.054664  0  0.965028  0  0  0.060142  0  1.046115  0  0  0.061106  0  1.04486  0  0  0.088836  0.05913  0  1.047537  0
H  H23  1  0.17091662  0.52322866  0.36968849  1  0  0.054717  0  0.965014  0  0  0.060214  0  1.046067  0  0  0.061178  0  1.044813  0  0  0.088858  0.059201  0  1.047489  0
H  H24  1  0.28868067  0.14235189  0.91892506  1  0  0.088291  0  0.921222  0  0  0.098704  0  0.988013  0  0  0.099654  0  0.987071  0  0  0.103752  0.097714  0  0.989236  0
H  H25  1  0.78867806  0.64235119  0.58107429  1  0  0.088342  0  0.921175  0  0  0.098749  0  0.987962  0  0  0.099701  0  0.987018  0  0  0.103762  0.097759  0  0.989185  0
H  H26  1  0.71132078  0.85764905  0.08107484  1  0  0.088294  0  0.921202  0  0  0.098724  0  0.987985  0  0  0.099676  0  0.987038  0  0  0.103757  0.097735  0  0.989209  0
H  H27  1  0.21132059  0.35764975  0.41892645  1  0  0.088322  0  0.921185  0  0  0.098738  0  0.987966  0  0  0.09969  0  0.987019  0  0  0.103754  0.097749  0  0.989189  0
H  H28  1  0.82949806  0.05235126  0.94376490  1  0  0.079995  0  0.944258  0  0  0.090507  0  1.012387  0  0  0.091101  0  1.012163  0  0  0.098313  0.089442  0  1.013686  0
H  H29  1  0.32949603  0.55235232  0.55623612  1  0  0.079964  0  0.944249  0  0  0.0905  0  1.012356  0  0  0.091095  0  1.01213  0  0  0.098315  0.089435  0  1.013656  0
H  H30  1  0.17050315  0.94764865  0.05623416  1  0  0.079983  0  0.944301  0  0  0.090494  0  1.012429  0  0  0.091089  0  1.012204  0  0  0.098307  0.08943  0  1.013729  0
H  H31  1  0.67050214  0.44764655  0.44376377  1  0  0.079965  0  0.944288  0  0  0.090506  0  1.012391  0  0  0.091101  0  1.012166  0  0  0.09832  0.08944  0  1.01369  0
H  H32  1  0.64826996  0.92318750  0.88394489  1  0  0.069376  0  0.957715  0  0  0.077947  0  1.030496  0  0  0.079586  0  1.028791  0  0  0.087634  0.076552  0  1.031927  0
H  H33  1  0.14826621  0.42318743  0.61605449  1  0  0.069387  0  0.957747  0  0  0.077945  0  1.030544  0  0  0.079582  0  1.02884  0  0  0.087628  0.07655  0  1.031976  0
H  H34  1  0.35173125  0.07681241  0.11605417  1  0  0.069381  0  0.957728  0  0  0.07795  0  1.030509  0  0  0.079588  0  1.028805  0  0  0.087635  0.076554  0  1.031941  0
H  H35  1  0.85173220  0.57681247  0.38394457  1  0  0.06936  0  0.957702  0  0  0.07794  0  1.030484  0  0  0.079577  0  1.02878  0  0  0.087634  0.076544  0  1.031916  0
C  C36  1  0.46514231  0.51676929  0.88445104  1  0  0.045459  0  3.600679  0  0  -0.016666  0  3.862085  0  0  -0.009859  0  3.867496  0  0  -0.084408  -0.021158  0  3.858351  0
C  C37  1  0.96514225  0.01676749  0.61554902  1  0  0.045316  0  3.600795  0  0  -0.016694  0  3.862025  0  0  -0.009888  0  3.867437  0  0  -0.084409  -0.021199  0  3.858308  0
C  C38  1  0.53485774  0.48323165  0.11554802  1  0  0.045412  0  3.600722  0  0  -0.016657  0  3.862053  0  0  -0.009851  0  3.867465  0  0  -0.084421  -0.021152  0  3.858324  0
C  C39  1  0.03485732  0.98323138  0.38445087  1  0  0.045413  0  3.600708  0  0  -0.016633  0  3.862079  0  0  -0.009829  0  3.867491  0  0  -0.084405  -0.021134  0  3.858359  0
C  C40  1  0.66571061  0.44473469  0.02588352  1  0  0.047655  0  3.592354  0  0  -0.012921  0  3.852379  0  0  -0.006349  0  3.857838  0  0  -0.083923  -0.017398  0  3.848501  0
C  C41  1  0.16570993  0.94473434  0.47411526  1  0  0.047703  0  3.592238  0  0  -0.012881  0  3.852338  0  0  -0.00631  0  3.857798  0  0  -0.083917  -0.017355  0  3.848458  0
C  C42  1  0.33428944  0.55526625  0.97411554  1  0  0.047633  0  3.592351  0  0  -0.012926  0  3.852431  0  0  -0.006355  0  3.85789  0  0  -0.083923  -0.017403  0  3.848552  0
C  C43  1  0.83428847  0.05526556  0.52588464  1  0  0.047691  0  3.592328  0  0  -0.012806  0  3.852297  0  0  -0.006233  0  3.857754  0  0  -0.083884  -0.017274  0  3.84841  0
C  C44  1  0.36525020  0.05616110  0.93499478  1  0  0.056301  0  3.583996  0  0  -0.003786  0  3.844992  0  0  0.003201  0  3.850205  0  0  -0.078796  -0.008614  0  3.841719  0
C  C45  1  0.86524903  0.55616041  0.56500537  1  0  0.056112  0  3.584176  0  0  -0.00392  0  3.845155  0  0  0.003066  0  3.85037  0  0  -0.078823  -0.008751  0  3.841887  0
C  C46  1  0.63475101  0.94383881  0.06500512  1  0  0.05629  0  3.58403  0  0  -0.003813  0  3.845001  0  0  0.003171  0  3.850218  0  0  -0.078807  -0.008646  0  3.841737  0
C  C47  1  0.13475218  0.44383949  0.43499537  1  0  0.056148  0  3.584104  0  0  -0.003907  0  3.845043  0  0  0.003077  0  3.850258  0  0  -0.078829  -0.008741  0  3.841779  0
C  C48  1  0.68003179  0.00294173  0.94938867  1  0  0.042839  0  3.597581  0  0  -0.018569  0  3.857431  0  0  -0.011874  0  3.862383  0  0  -0.084176  -0.022904  0  3.853734  0
C  C49  1  0.18002790  0.50294073  0.55061251  1  0  0.042812  0  3.597557  0  0  -0.018609  0  3.857458  0  0  -0.011913  0  3.862408  0  0  -0.084208  -0.022944  0  3.85376  0
C  C50  1  0.31996826  0.99705920  0.05061039  1  0  0.042834  0  3.597595  0  0  -0.018581  0  3.857423  0  0  -0.011886  0  3.862373  0  0  -0.084187  -0.022916  0  3.853725  0
C  C51  1  0.81996863  0.49705710  0.44938906  1  0  0.042866  0  3.597596  0  0  -0.018582  0  3.857486  0  0  -0.011886  0  3.862436  0  0  -0.084223  -0.022919  0  3.853787  0
Br  Br52  1  0.99180527  0.30026889  0.81932438  1  0  -0.495654  0  1.031964  0  0  -0.429808  0  1.343067  0  0  -0.449583  0  1.316934  0  0  -0.234073  -0.415615  0  1.362523  0
Br  Br53  1  0.49180405  0.80026880  0.68067555  1  0  -0.495672  0  1.031974  0  0  -0.429811  0  1.343063  0  0  -0.4496  0  1.316941  0  0  -0.234086  -0.415631  0  1.36253  0
Br  Br54  1  0.00819594  0.69973102  0.18067552  1  0  -0.495666  0  1.031964  0  0  -0.429822  0  1.343069  0  0  -0.449601  0  1.316937  0  0  -0.234087  -0.415632  0  1.36253  0
Br  Br55  1  0.50819576  0.19973110  0.31932435  1  0  -0.495665  0  1.031971  0  0  -0.429818  0  1.343065  0  0  -0.449595  0  1.316933  0  0  -0.23408  -0.415627  0  1.362524  0
Br  Br56  1  0.47021175  0.25640062  0.65476068  1  0  -0.49393  0  1.015842  0  0  -0.426051  0  1.321953  0  0  -0.445912  0  1.296239  0  0  -0.236656  -0.41156  0  1.341002  0
Br  Br57  1  0.97021211  0.75640381  0.84524096  1  0  -0.493929  0  1.015853  0  0  -0.426017  0  1.32193  0  0  -0.445893  0  1.296225  0  0  -0.236642  -0.411541  0  1.340992  0
Br  Br58  1  0.52978736  0.74359619  0.34524089  1  0  -0.493942  0  1.015842  0  0  -0.42605  0  1.321936  0  0  -0.445913  0  1.29622  0  0  -0.236656  -0.411562  0  1.340989  0
Br  Br59  1  0.02978841  0.24359920  0.15475978  1  0  -0.493948  0  1.015851  0  0  -0.426057  0  1.321944  0  0  -0.445922  0  1.296231  0  0  -0.236653  -0.41157  0  1.340998  0
O  O60  1  0.55600705  0.40362007  0.92462158  1  0  -0.320595  0  2.355834  0  0  -0.217551  0  2.610214  0  0  -0.239265  0  2.609981  0  0  -0.229926  -0.202333  0  2.609817  0
O  O61  1  0.05600590  0.90361905  0.57537706  1  0  -0.320546  0  2.355784  0  0  -0.217547  0  2.610154  0  0  -0.239269  0  2.609932  0  0  -0.229928  -0.202334  0  2.60977  0
O  O62  1  0.44399440  0.59638087  0.07537664  1  0  -0.320523  0  2.355774  0  0  -0.217518  0  2.610161  0  0  -0.239235  0  2.609933  0  0  -0.229922  -0.202302  0  2.609767  0
O  O63  1  0.94399367  0.09637982  0.42462284  1  0  -0.320497  0  2.355779  0  0  -0.217603  0  2.610242  0  0  -0.239319  0  2.61001  0  0  -0.229939  -0.202385  0  2.609848  0
O  O64  1  0.56765384  0.11119352  0.92765584  1  0  -0.318323  0  2.355751  0  0  -0.215099  0  2.608232  0  0  -0.236929  0  2.608407  0  0  -0.228057  -0.199855  0  2.60738  0
O  O65  1  0.06765154  0.61119354  0.57234458  1  0  -0.318174  0  2.355725  0  0  -0.215024  0  2.608261  0  0  -0.236861  0  2.608451  0  0  -0.228025  -0.199787  0  2.607421  0
O  O66  1  0.43234597  0.88880638  0.07234322  1  0  -0.318342  0  2.355783  0  0  -0.215073  0  2.608223  0  0  -0.236906  0  2.608402  0  0  -0.228035  -0.199831  0  2.607379  0
O  O67  1  0.93234711  0.38880740  0.42765532  1  0  -0.318247  0  2.35575  0  0  -0.215039  0  2.608246  0  0  -0.236872  0  2.608426  0  0  -0.228009  -0.199794  0  2.607397  0
