# generated using pymatgen
data_SrH6C8O7
_symmetry_space_group_name_H-M   'P 1'
_cell_length_a   7.29535722
_cell_length_b   8.55068299
_cell_length_c   8.55064464
_cell_angle_alpha   84.84442844
_cell_angle_beta   66.95236806
_cell_angle_gamma   66.95220858
_symmetry_Int_Tables_number   1
_chemical_formula_structural   SrH6C8O7
_chemical_formula_sum   'Sr2 H12 C16 O14'
_cell_volume   450.37033347
_cell_formula_units_Z   2
loop_
 _symmetry_equiv_pos_site_id
 _symmetry_equiv_pos_as_xyz
  1  'x, y, z'
loop_
 _atom_site_type_symbol
 _atom_site_label
 _atom_site_symmetry_multiplicity
 _atom_site_fract_x
 _atom_site_fract_y
 _atom_site_fract_z
 _atom_site_occupancy
 _atom_site_pbe_bader_spin_density
 _atom_site_pbe_cm5_charge
 _atom_site_pbe_ddec_charge
 _atom_site_pbe_ddec_spin_density
 _atom_site_pbe_ddec_sum_bond_order
 _atom_site_pbe_magmom
Sr  Sr0  1  0.25000022  0.58037751  0.41962231  1  0  0.960626  1.440068  0  1.496259  0
Sr  Sr1  1  0.74999857  0.41962338  0.58037917  1  0  0.960634  1.440079  0  1.496203  0
H  H2  1  0.63895731  0.68398383  0.00616979  1  0  0.118153  0.138636  0  1.017535  0
H  H3  1  0.86103983  0.99383061  0.31601564  1  0  0.118166  0.138642  0  1.017532  0
H  H4  1  0.36104270  0.31601451  0.99382917  1  0  0.118156  0.138642  0  1.017557  0
H  H5  1  0.13895745  0.00617029  0.68398518  1  0  0.118142  0.138614  0  1.017585  0
H  H6  1  0.75889606  0.04485216  0.61427460  1  0  0.308956  0.352719  0  0.983765  0
H  H7  1  0.74110581  0.38572753  0.95514719  1  0  0.308957  0.352688  0  0.98379  0
H  H8  1  0.24110481  0.95514746  0.38572394  1  0  0.308955  0.352724  0  0.983759  0
H  H9  1  0.25889296  0.61427336  0.04485312  1  0  0.308954  0.352683  0  0.983806  0
H  H10  1  0.37851257  0.26670185  0.65473473  1  0  0.30593  0.387623  0  0.942066  0
H  H11  1  0.12149109  0.34526824  0.73329720  1  0  0.305966  0.387656  0  0.942035  0
H  H12  1  0.62149557  0.73329521  0.34526625  1  0  0.305967  0.387659  0  0.942038  0
H  H13  1  0.87851600  0.65473391  0.26670016  1  0  0.305937  0.387621  0  0.942072  0
C  C14  1  0.80749978  0.78706430  0.69091088  1  0  0.217748  0.59836  0  4.185328  0
C  C15  1  0.69250189  0.30909365  0.21293684  1  0  0.217753  0.598406  0  4.185289  0
C  C16  1  0.19250149  0.21293149  0.30908788  1  0  0.217771  0.598398  0  4.185259  0
C  C17  1  0.30749479  0.69090851  0.78706640  1  0  0.217787  0.598439  0  4.185251  0
C  C18  1  0.64785397  0.89585889  0.85018027  1  0  -0.024984  -0.142098  0  3.987503  0
C  C19  1  0.85214641  0.14981621  0.10413694  1  0  -0.024915  -0.141943  0  3.987408  0
C  C20  1  0.35214455  0.10413946  0.14981919  1  0  -0.024896  -0.141977  0  3.987494  0
C  C21  1  0.14785256  0.85017831  0.89586741  1  0  -0.024901  -0.142085  0  3.987356  0
C  C22  1  0.56874453  0.07556576  0.84745405  1  0  0.081776  0.279019  0  4.047377  0
C  C23  1  0.93125811  0.15254952  0.92443560  1  0  0.081684  0.278821  0  4.047619  0
C  C24  1  0.43125486  0.92443386  0.15254500  1  0  0.081777  0.279024  0  4.047523  0
C  C25  1  0.06873752  0.84745775  0.07556403  1  0  0.081714  0.278884  0  4.047589  0
C  C26  1  0.57879149  0.82202442  0.00359828  1  0  -0.091034  -0.194092  0  3.946803  0
C  C27  1  0.92120924  0.99640255  0.17797012  1  0  -0.091065  -0.194101  0  3.946945  0
C  C28  1  0.42120643  0.17797519  0.99640361  1  0  -0.091052  -0.194151  0  3.946858  0
C  C29  1  0.07879327  0.00359962  0.82201945  1  0  -0.091042  -0.194042  0  3.946478  0
O  O30  1  0.89682022  0.86088699  0.56215812  1  0  -0.338531  -0.586807  0  2.234835  0
O  O31  1  0.60318289  0.43784375  0.13911157  1  0  -0.338532  -0.586805  0  2.234782  0
O  O32  1  0.10317916  0.13911263  0.43784093  1  0  -0.338538  -0.586807  0  2.234812  0
O  O33  1  0.39681590  0.56215713  0.86089108  1  0  -0.338534  -0.586807  0  2.234711  0
O  O34  1  0.85814905  0.62720436  0.68426738  1  0  -0.384964  -0.633026  0  2.257868  0
O  O35  1  0.64184951  0.31573787  0.37278917  1  0  -0.384956  -0.633066  0  2.258054  0
O  O36  1  0.14185015  0.37279270  0.31573664  1  0  -0.385026  -0.633121  0  2.257864  0
O  O37  1  0.35814922  0.68426302  0.62720765  1  0  -0.385008  -0.633058  0  2.257962  0
O  O38  1  0.63618220  0.14879847  0.69732483  1  0  -0.364821  -0.511004  0  2.399919  0
O  O39  1  0.86382242  0.30267815  0.85120014  1  0  -0.364797  -0.51089  0  2.399954  0
O  O40  1  0.36382106  0.85120241  0.30267512  1  0  -0.364838  -0.511054  0  2.399979  0
O  O41  1  0.13617846  0.69732146  0.14879841  1  0  -0.364819  -0.510931  0  2.399824  0
O  O42  1  0.25000212  0.35572588  0.64427207  1  0  -0.617123  -0.818771  0  2.064208  0
O  O43  1  0.74999666  0.64427501  0.35572941  1  0  -0.617137  -0.81877  0  2.064213  0
