# generated using pymatgen
data_ZnH3C4O3
_symmetry_space_group_name_H-M   'P 1'
_cell_length_a   3.33916355
_cell_length_b   10.21980235
_cell_length_c   12.50676947
_cell_angle_alpha   95.87391722
_cell_angle_beta   90.03910929
_cell_angle_gamma   99.39346536
_symmetry_Int_Tables_number   1
_chemical_formula_structural   ZnH3C4O3
_chemical_formula_sum   'Zn4 H12 C16 O12'
_cell_volume   418.80124403
_cell_formula_units_Z   4
loop_
 _symmetry_equiv_pos_site_id
 _symmetry_equiv_pos_as_xyz
  1  'x, y, z'
loop_
 _atom_site_type_symbol
 _atom_site_label
 _atom_site_symmetry_multiplicity
 _atom_site_fract_x
 _atom_site_fract_y
 _atom_site_fract_z
 _atom_site_occupancy
 _atom_site_pbe_bader_spin_density
 _atom_site_pbe_cm5_charge
 _atom_site_pbe_ddec_charge
 _atom_site_pbe_ddec_spin_density
 _atom_site_pbe_ddec_sum_bond_order
 _atom_site_pbe_magmom
Zn  Zn0  1  0.48316818  0.99977034  0.24998791  1  0  0.636265  1.018514  0  2.130167  0
Zn  Zn1  1  0.51681002  0.00023681  0.75001044  1  0  0.636262  1.018509  0  2.130131  0
Zn  Zn2  1  0.00000049  0.99999581  0.99999878  1  0  0.659665  1.033145  0  2.235646  0
Zn  Zn3  1  0.99998717  0.00000026  0.49999764  1  0  0.659292  1.032249  0  2.234811  0
H  H4  1  0.43190308  0.43055930  0.80370313  1  0  0.104348  0.106391  0  1.01157  0
H  H5  1  0.00038114  0.56959692  0.69623218  1  0  0.104379  0.106618  0  1.011654  0
H  H6  1  0.56810995  0.56943361  0.19631149  1  0  0.104389  0.106548  0  1.011531  0
H  H7  1  0.99962154  0.43039931  0.30376276  1  0  0.104385  0.106613  0  1.011615  0
H  H8  1  0.36998269  0.66399308  0.87563926  1  0  0.102266  0.105578  0  1.019315  0
H  H9  1  0.70690046  0.33599568  0.62443261  1  0  0.1022  0.105652  0  1.019518  0
H  H10  1  0.63004980  0.33601479  0.12437596  1  0  0.102293  0.105602  0  1.01931  0
H  H11  1  0.29310971  0.66399755  0.37556204  1  0  0.102199  0.105612  0  1.01967  0
H  H12  1  0.05881708  0.15150595  0.16535082  1  0  0.299978  0.387228  0  0.915162  0
H  H13  1  0.90845491  0.84830153  0.33473995  1  0  0.299791  0.387205  0  0.916012  0
H  H14  1  0.94116817  0.84849135  0.83463941  1  0  0.299966  0.387154  0  0.915183  0
H  H15  1  0.09153233  0.15170576  0.66525043  1  0  0.299767  0.3872  0  0.915988  0
C  C16  1  0.53671228  0.36973215  0.95937654  1  0  -0.016386  -0.037238  0  3.963304  0
C  C17  1  0.16639325  0.63029620  0.54056330  1  0  -0.016577  -0.035907  0  3.96048  0
C  C18  1  0.46336662  0.63027872  0.04063897  1  0  -0.01632  -0.037022  0  3.963024  0
C  C19  1  0.83359898  0.36969710  0.45942736  1  0  -0.016603  -0.036116  0  3.960678  0
C  C20  1  0.46378225  0.46234925  0.88951778  1  0  -0.081853  -0.088109  0  3.966495  0
C  C21  1  0.00127559  0.53773284  0.61046319  1  0  -0.081955  -0.08945  0  3.967219  0
C  C22  1  0.53623328  0.53764866  0.11049650  1  0  -0.081962  -0.088484  0  3.966365  0
C  C23  1  0.99872907  0.46226733  0.38953451  1  0  -0.081923  -0.089348  0  3.967204  0
C  C24  1  0.42836665  0.59172766  0.92965951  1  0  -0.082132  -0.090156  0  3.958695  0
C  C25  1  0.83701403  0.40829953  0.57039765  1  0  -0.081957  -0.090232  0  3.95931  0
C  C26  1  0.57167135  0.40827328  0.07035266  1  0  -0.082135  -0.090008  0  3.958626  0
C  C27  1  0.16299116  0.59170172  0.42959535  1  0  -0.081879  -0.090144  0  3.959248  0
C  C28  1  0.57588929  0.23068447  0.91601933  1  0  0.214143  0.591316  0  4.151782  0
C  C29  1  0.34433132  0.76935145  0.58393516  1  0  0.213698  0.59103  0  4.152099  0
C  C30  1  0.42413879  0.76931462  0.08398387  1  0  0.214076  0.591291  0  4.151666  0
C  C31  1  0.65563748  0.23064890  0.41605216  1  0  0.213863  0.591501  0  4.151769  0
O  O32  1  0.60193567  0.20355912  0.81536749  1  0  -0.3035  -0.531542  0  2.278577  0
O  O33  1  0.39665007  0.79651506  0.68462033  1  0  -0.303394  -0.53168  0  2.276415  0
O  O34  1  0.39806492  0.79643890  0.18464040  1  0  -0.303362  -0.531401  0  2.278209  0
O  O35  1  0.60330871  0.20348921  0.31537136  1  0  -0.303388  -0.531741  0  2.27638  0
O  O36  1  0.57690287  0.14522323  0.98517218  1  0  -0.326156  -0.619117  0  2.415025  0
O  O37  1  0.43148305  0.85474586  0.51475948  1  0  -0.325803  -0.618958  0  2.415275  0
O  O38  1  0.42308621  0.85476971  0.01484083  1  0  -0.326224  -0.619218  0  2.415175  0
O  O39  1  0.56848323  0.14525544  0.48523033  1  0  -0.325914  -0.619224  0  2.415378  0
O  O40  1  0.01480715  0.05438962  0.15510008  1  0  -0.558753  -0.850109  0  2.249603  0
O  O41  1  0.96059254  0.94544203  0.34484899  1  0  -0.55818  -0.849893  0  2.250728  0
O  O42  1  0.98516057  0.94560856  0.84489743  1  0  -0.558748  -0.850001  0  2.249573  0
O  O43  1  0.03937121  0.05456618  0.65514627  1  0  -0.558118  -0.849859  0  2.250637  0
