# generated using pymatgen
data_HgH8C12(NCl)2
_symmetry_space_group_name_H-M   'P 1'
_cell_length_a   7.98052792
_cell_length_b   8.82969804
_cell_length_c   9.43654476
_cell_angle_alpha   66.33211814
_cell_angle_beta   77.15972977
_cell_angle_gamma   81.47533461
_symmetry_Int_Tables_number   1
_chemical_formula_structural   HgH8C12(NCl)2
_chemical_formula_sum   'Hg2 H16 C24 N4 Cl4'
_cell_volume   592.49362470
_cell_formula_units_Z   2
loop_
 _symmetry_equiv_pos_site_id
 _symmetry_equiv_pos_as_xyz
  1  'x, y, z'
loop_
 _atom_site_type_symbol
 _atom_site_label
 _atom_site_symmetry_multiplicity
 _atom_site_fract_x
 _atom_site_fract_y
 _atom_site_fract_z
 _atom_site_occupancy
 _atom_site_pbe_bader_spin_density
 _atom_site_pbe_cm5_charge
 _atom_site_pbe_ddec_charge
 _atom_site_pbe_ddec_spin_density
 _atom_site_pbe_ddec_sum_bond_order
 _atom_site_pbe_magmom
Hg  Hg0  1  0.74803055  0.50361213  0.50912667  1  0  0.508085  0.568014  0  2.562855  0
Hg  Hg1  1  0.25197247  0.49639150  0.49087243  1  0  0.508078  0.568023  0  2.562844  0
H  H2  1  0.76765624  0.38831155  0.22564609  1  0  0.087175  0.095335  0  1.06688  0
H  H3  1  0.23232712  0.61168321  0.77435323  1  0  0.087175  0.09526  0  1.066897  0
H  H4  1  0.66899042  0.35900496  0.00495348  1  0  0.09316  0.097557  0  1.026889  0
H  H5  1  0.33100118  0.64098359  0.99504480  1  0  0.093153  0.097605  0  1.026785  0
H  H6  1  0.59025127  0.08659600  0.03201067  1  0  0.097491  0.098352  0  1.014509  0
H  H7  1  0.40975115  0.91338396  0.96799132  1  0  0.097531  0.098431  0  1.01445  0
H  H8  1  0.61301888  0.83786850  0.27648194  1  0  0.082587  0.098246  0  1.077988  0
H  H9  1  0.38698530  0.16211662  0.72352838  1  0  0.082582  0.09824  0  1.078039  0
H  H10  1  0.88835811  0.14954248  0.74443555  1  0  0.084902  0.100238  0  1.069753  0
H  H11  1  0.11164611  0.85046599  0.25555512  1  0  0.084932  0.100311  0  1.069746  0
H  H12  1  0.90716471  0.90135144  0.99153982  1  0  0.09643  0.098908  0  1.019522  0
H  H13  1  0.09285583  0.09865965  0.00845146  1  0  0.096411  0.098868  0  1.019624  0
H  H14  1  0.82880958  0.62889742  0.01852557  1  0  0.092295  0.098949  0  1.029346  0
H  H15  1  0.17121102  0.37111005  0.98147240  1  0  0.092262  0.098943  0  1.029413  0
H  H16  1  0.73490665  0.59791400  0.79688270  1  0  0.087859  0.095643  0  1.063626  0
H  H17  1  0.26510509  0.40209218  0.20311613  1  0  0.087842  0.095613  0  1.063581  0
C  C18  1  0.70320055  0.97044376  0.39151369  1  0  0.113951  0.173597  0  3.999668  0
C  C19  1  0.29678777  0.02955110  0.60848904  1  0  0.114002  0.173643  0  3.999713  0
C  C20  1  0.74360675  0.13116240  0.37788221  1  0  0.116021  0.176385  0  3.99368  0
C  C21  1  0.25638339  0.86884000  0.62212261  1  0  0.115934  0.17632  0  3.993716  0
C  C22  1  0.73276607  0.26982507  0.23476413  1  0  -0.092035  -0.148925  0  3.964726  0
C  C23  1  0.26721464  0.73017092  0.76523514  1  0  -0.092028  -0.148785  0  3.964562  0
C  C24  1  0.67964576  0.25252687  0.11379182  1  0  -0.08613  -0.058319  0  3.973869  0
C  C25  1  0.32034256  0.74746799  0.88621091  1  0  -0.086144  -0.058405  0  3.973885  0
C  C26  1  0.63531347  0.09589956  0.12890329  1  0  -0.083104  -0.054382  0  3.982565  0
C  C27  1  0.36468456  0.90408782  0.87109654  1  0  -0.083131  -0.054516  0  3.982567  0
C  C28  1  0.64806035  0.95799222  0.26344818  1  0  -0.09658  -0.160751  0  3.959404  0
C  C29  1  0.35193533  0.04200522  0.73655661  1  0  -0.096575  -0.160686  0  3.95909  0
C  C30  1  0.76105811  0.85462569  0.64324781  1  0  0.117017  0.176355  0  3.9967  0
C  C31  1  0.23893486  0.14537420  0.35675541  1  0  0.117014  0.176376  0  3.996501  0
C  C32  1  0.80118297  0.01563275  0.62938541  1  0  0.115995  0.174052  0  3.998961  0
C  C33  1  0.19881707  0.98437705  0.37061072  1  0  0.116042  0.174079  0  3.999153  0
C  C34  1  0.85419873  0.02887525  0.75819789  1  0  -0.09449  -0.156995  0  3.953639  0
C  C35  1  0.14580300  0.97113077  0.24179625  1  0  -0.094576  -0.157193  0  3.953701  0
C  C36  1  0.86480669  0.89162056  0.89364213  1  0  -0.084557  -0.05968  0  3.9873  0
C  C37  1  0.13520284  0.10838426  0.10635122  1  0  -0.084456  -0.059471  0  3.987174  0
C  C38  1  0.82056496  0.73485493  0.90880111  1  0  -0.086591  -0.057183  0  3.972036  0
C  C39  1  0.17944527  0.26515374  0.09119806  1  0  -0.086616  -0.057236  0  3.972238  0
C  C40  1  0.76992212  0.71660116  0.78716530  1  0  -0.09204  -0.14856  0  3.964839  0
C  C41  1  0.23008218  0.28340127  0.21283618  1  0  -0.092023  -0.148549  0  3.964923  0
N  N42  1  0.71421497  0.83473427  0.52359759  1  0  -0.293439  -0.296804  0  3.322161  0
N  N43  1  0.28578407  0.16526580  0.47641307  1  0  -0.293449  -0.296862  0  3.321983  0
N  N44  1  0.79146445  0.15106562  0.49712662  1  0  -0.295021  -0.301525  0  3.29773  0
N  N45  1  0.20852444  0.84893915  0.50287218  1  0  -0.295002  -0.301482  0  3.297744  0
Cl  Cl46  1  0.53112605  0.39854154  0.72860913  1  0  -0.196837  -0.306252  0  1.432304  0
Cl  Cl47  1  0.46887320  0.60146443  0.27138330  1  0  -0.196816  -0.306256  0  1.432356  0
Cl  Cl48  1  0.96323905  0.59694598  0.28463463  1  0  -0.192152  -0.302271  0  1.463516  0
Cl  Cl49  1  0.03676499  0.40306017  0.71536545  1  0  -0.192134  -0.302256  0  1.463507  0
