# generated using pymatgen
data_Zn4H26C28O13
_symmetry_space_group_name_H-M   'P 1'
_cell_length_a   14.45681655
_cell_length_b   15.16881106
_cell_length_c   16.43914071
_cell_angle_alpha   90.00047415
_cell_angle_beta   90.00432629
_cell_angle_gamma   92.17002747
_symmetry_Int_Tables_number   1
_chemical_formula_structural   Zn4H26C28O13
_chemical_formula_sum   'Zn8 H52 C56 O26'
_cell_volume   3602.39857626
_cell_formula_units_Z   2
loop_
 _symmetry_equiv_pos_site_id
 _symmetry_equiv_pos_as_xyz
  1  'x, y, z'
loop_
 _atom_site_type_symbol
 _atom_site_label
 _atom_site_symmetry_multiplicity
 _atom_site_fract_x
 _atom_site_fract_y
 _atom_site_fract_z
 _atom_site_occupancy
 _atom_site_pbe_bader_charge
 _atom_site_pbe_bader_spin_density
 _atom_site_pbe_cm5_charge
 _atom_site_pbe_ddec_charge
 _atom_site_pbe_ddec_spin_density
 _atom_site_pbe_ddec_sum_bond_order
 _atom_site_pbe_magmom
Zn  Zn0  1  0.50499134  0.42727484  0.90490878  1  1.306152  0  0.667862  0.93844  0  2.445874  0
Zn  Zn1  1  0.50284844  0.42337305  0.09457257  1  1.309618  0  0.668581  0.951718  0  2.401864  0
Zn  Zn2  1  0.00287092  0.42337256  0.40542655  1  1.309609  0  0.668569  0.951698  0  2.401957  0
Zn  Zn3  1  0.00495435  0.42735329  0.59508920  1  1.306217  0  0.667854  0.938166  0  2.446349  0
Zn  Zn4  1  0.38351827  0.56503946  0.99998172  1  1.310328  0  0.672565  0.961604  0  2.367737  0
Zn  Zn5  1  0.88350178  0.56506808  0.50002418  1  1.310287  0  0.672583  0.961724  0  2.367879  0
Zn  Zn6  1  0.60869073  0.58647295  0.99911678  1  1.31595  0  0.668386  0.968439  0  2.333879  0
Zn  Zn7  1  0.10870600  0.58648206  0.50088529  1  1.316139  0  0.668453  0.968619  0  2.33335  0
H  H8  1  0.59323712  0.85684922  0.94164101  1  0.086568  0  0.107886  0.115909  0  0.992025  0
H  H9  1  0.29489054  0.57894894  0.72003618  1  0.099504  0  0.110999  0.140383  0  0.982902  0
H  H10  1  0.79490945  0.57896183  0.78001606  1  0.098979  0  0.11098  0.140346  0  0.98291  0
H  H11  1  0.79541622  0.57583391  0.21593245  1  0.078142  0  0.109502  0.138372  0  0.986215  0
H  H12  1  0.32486421  0.89517201  0.22594767  1  0.020105  0  0.085268  0.110096  0  1.005318  0
H  H13  1  0.23534567  0.91016314  0.15377878  1  0.013725  0  0.085266  0.108878  0  1.008751  0
H  H14  1  0.23546305  0.81297644  0.21319379  1  0.033177  0  0.090768  0.120799  0  0.995387  0
H  H15  1  0.28996139  0.78094505  0.07252205  1  0.06329  0  0.098687  0.105572  0  0.966457  0
H  H16  1  0.37363169  0.76040828  0.14523521  1  0.024262  0  0.09324  0.091169  0  0.971019  0
H  H17  1  0.73601112  0.90996311  0.34515057  1  0.020099  0  0.084905  0.108139  0  1.008612  0
H  H18  1  0.82592877  0.89489163  0.27339833  1  0.008496  0  0.085407  0.110143  0  1.004857  0
H  H19  1  0.09290709  0.85689561  0.55878720  1  0.084271  0  0.107606  0.115554  0  0.992424  0
H  H20  1  0.73647231  0.81270279  0.28585136  1  0.012228  0  0.090405  0.120285  0  0.995816  0
H  H21  1  0.87425044  0.76021359  0.35450940  1  0.019757  0  0.093328  0.091199  0  0.971287  0
H  H22  1  0.79023136  0.78093839  0.42686160  1  0.066672  0  0.09894  0.106082  0  0.966512  0
H  H23  1  0.79283004  0.10488620  0.90909075  1  0.013627  0  0.086571  0.111625  0  1.003215  0
H  H24  1  0.73369875  0.09311587  0.81484196  1  0.015712  0  0.086389  0.110973  0  1.005088  0
H  H25  1  0.80263066  0.18951508  0.83471907  1  0.024718  0  0.089249  0.11781  0  0.99751  0
H  H26  1  0.63503963  0.22130459  0.85043257  1  0.064303  0  0.095012  0.097564  0  0.986023  0
H  H27  1  0.69681824  0.23899505  0.94035091  1  0.028677  0  0.094282  0.091403  0  0.966184  0
H  H28  1  0.23330638  0.09290978  0.68553303  1  0.011252  0  0.08658  0.11134  0  1.005316  0
H  H29  1  0.29246428  0.10495041  0.59132915  1  0.010058  0  0.086493  0.111835  0  1.00305  0
H  H30  1  0.65682699  0.00543565  0.90393077  1  0.043633  0  0.102213  0.106077  0  1.018017  0
H  H31  1  0.30218087  0.18939741  0.66590563  1  0.034278  0  0.089472  0.11813  0  0.997517  0
H  H32  1  0.19642671  0.23907757  0.56031963  1  0.032348  0  0.09386  0.091373  0  0.965304  0
H  H33  1  0.13455981  0.22116271  0.65013513  1  0.091642  0  0.094977  0.097395  0  0.985416  0
H  H34  1  0.70702848  0.36187987  0.57263479  1  0.02315  0  0.083957  0.109783  0  1.030037  0
H  H35  1  0.77771259  0.29770426  0.63625588  1  0.034247  0  0.086872  0.119772  0  1.009554  0
H  H36  1  0.65806360  0.26998804  0.62570431  1  0.040257  0  0.091318  0.121219  0  0.994938  0
H  H37  1  0.68423502  0.34445600  0.75934400  1  0.080913  0  0.103414  0.109584  0  0.975498  0
H  H38  1  0.61388413  0.40572555  0.69717251  1  0.069166  0  0.107341  0.116974  0  0.951935  0
H  H39  1  0.76785766  0.30482223  0.37558624  1  0.035517  0  0.085269  0.116645  0  1.011365  0
H  H40  1  0.69764743  0.37564528  0.43313450  1  0.02538  0  0.084111  0.11053  0  1.027886  0
H  H41  1  0.15633600  0.00548576  0.59658394  1  0.045166  0  0.102401  0.106029  0  1.01774  0
H  H42  1  0.64730439  0.28103442  0.38506792  1  0.010391  0  0.091711  0.121786  0  0.994561  0
H  H43  1  0.60936940  0.41256274  0.30402834  1  0.057157  0  0.106979  0.11633  0  0.951969  0
H  H44  1  0.67895875  0.34460669  0.24760603  1  0.079148  0  0.106246  0.115882  0  0.954528  0
H  H45  1  0.19754118  0.37579410  0.06685516  1  0.018507  0  0.084093  0.110486  0  1.027858  0
H  H46  1  0.26778034  0.30489531  0.12432142  1  0.034776  0  0.08534  0.116861  0  1.011436  0
H  H47  1  0.14719620  0.28115799  0.11485503  1  0.053375  0  0.091846  0.121885  0  0.99455  0
H  H48  1  0.17895811  0.34461309  0.25236737  1  0.079575  0  0.106337  0.115908  0  0.954121  0
H  H49  1  0.10936964  0.41264368  0.19599425  1  0.056844  0  0.106911  0.116347  0  0.952077  0
H  H50  1  0.27777994  0.29756242  0.86361889  1  0.033169  0  0.086648  0.119529  0  1.009451  0
H  H51  1  0.20709969  0.36166104  0.92730859  1  0.022439  0  0.083945  0.109782  0  1.0295  0
H  H52  1  0.35743563  0.99407929  0.11575909  1  0.053246  0  0.10081  0.105593  0  1.021301  0
H  H53  1  0.15814850  0.26984518  0.87413168  1  0.03874  0  0.091262  0.121142  0  0.994419  0
H  H54  1  0.11392397  0.40563101  0.80279619  1  0.069053  0  0.107325  0.117112  0  0.951874  0
H  H55  1  0.18426715  0.34442396  0.74057553  1  0.081084  0  0.103252  0.109613  0  0.975821  0
H  H56  1  0.85790232  0.99402073  0.38367624  1  0.051063  0  0.100479  0.103959  0  1.022947  0
H  H57  1  0.42107932  0.14266127  0.07877578  1  0.081722  0  0.105243  0.111664  0  0.995298  0
H  H58  1  0.92139830  0.14266780  0.42088598  1  0.081023  0  0.105079  0.111325  0  0.99572  0
H  H59  1  0.29548169  0.57580761  0.28414176  1  0.078207  0  0.109438  0.138307  0  0.986052  0
C  C60  1  0.32187877  0.48039758  0.15414925  1  1.602019  0  0.234363  0.613275  0  4.159699  0
C  C61  1  0.04066828  0.88799153  0.52175446  1  -0.075588  0  -0.079623  -0.135273  0  3.950211  0
C  C62  1  0.40641769  0.87208340  0.06969928  1  0.006957  0  -0.001709  0.105991  0  3.918566  0
C  C63  1  0.90669012  0.87204186  0.42999291  1  0.006004  0  -0.002086  0.104905  0  3.919482  0
C  C64  1  0.40755673  0.96301518  0.07649702  1  -0.003012  0  -0.094174  -0.197648  0  3.956042  0
C  C65  1  0.90784594  0.96297682  0.42314274  1  0.005138  0  -0.093635  -0.195904  0  3.95562  0
C  C66  1  0.74450995  0.52365310  0.77731555  1  -0.018202  0  -0.105992  -0.308869  0  3.89776  0
C  C67  1  0.74356030  0.52192671  0.22089349  1  0.030861  0  -0.107763  -0.312188  0  3.901128  0
C  C68  1  0.24360126  0.52192397  0.27913878  1  0.02915  0  -0.107658  -0.312094  0  3.900644  0
C  C69  1  0.24450343  0.52363174  0.72270944  1  -0.018241  0  -0.105966  -0.30867  0  3.897871  0
C  C70  1  0.24556030  0.46569736  0.21539104  1  -0.050367  0  0.019652  0.070002  0  3.82997  0
C  C71  1  0.32313082  0.47901621  0.84605406  1  1.588973  0  0.23452  0.611944  0  4.161688  0
C  C72  1  0.24773235  0.46441817  0.78405526  1  -0.051022  0  0.019381  0.069953  0  3.828512  0
C  C73  1  0.74771983  0.46447365  0.71594085  1  -0.052246  0  0.019624  0.070468  0  3.82794  0
C  C74  1  0.74553446  0.46568516  0.28463174  1  -0.052258  0  0.019688  0.069997  0  3.830608  0
C  C75  1  0.67667500  0.51918519  0.84403902  1  1.566981  0  0.218632  0.655597  0  4.179394  0
C  C76  1  0.67560886  0.51642916  0.15416838  1  1.511311  0  0.218706  0.656742  0  4.174614  0
C  C77  1  0.17564129  0.51643786  0.34584400  1  1.51123  0  0.218707  0.65688  0  4.17485  0
C  C78  1  0.17667269  0.51918536  0.65597581  1  1.567045  0  0.21868  0.655875  0  4.179044  0
C  C79  1  0.48186853  0.73745679  0.00699586  1  1.534093  0  0.22904  0.614623  0  4.159604  0
C  C80  1  0.98187864  0.73747665  0.49303572  1  1.534595  0  0.229114  0.615  0  4.159556  0
C  C81  1  0.51977184  0.26202626  0.99816610  1  1.529714  0  0.228854  0.612126  0  4.162874  0
C  C82  1  0.82310733  0.47910121  0.65395263  1  1.588501  0  0.233945  0.611592  0  4.161392  0
C  C83  1  0.01970653  0.26206154  0.50182947  1  1.531465  0  0.228764  0.611765  0  4.163571  0
C  C84  1  0.47583781  0.83476422  0.01898952  1  -0.007795  0  -0.017316  -0.089451  0  3.948944  0
C  C85  1  0.97587302  0.83478254  0.48100500  1  -0.008512  0  -0.017056  -0.089069  0  3.949128  0
C  C86  1  0.53260328  0.16479560  0.99475886  1  -0.015082  0  -0.017363  -0.085533  0  3.955776  0
C  C87  1  0.03251268  0.16483022  0.50530459  1  -0.011421  0  -0.017311  -0.08582  0  3.955818  0
C  C88  1  0.60430152  0.03665627  0.94052231  1  -0.014328  0  -0.092298  -0.191996  0  3.952091  0
C  C89  1  0.10395565  0.03670198  0.55981946  1  -0.015139  0  -0.091919  -0.19156  0  3.951687  0
C  C90  1  0.60195045  0.12756261  0.94399009  1  -0.009038  0  -0.003966  0.099972  0  3.925593  0
C  C91  1  0.10162851  0.12760963  0.55633493  1  -0.012037  0  -0.004273  0.101269  0  3.923621  0
C  C92  1  0.47151811  0.11182963  0.03958246  1  -0.053135  0  -0.081988  -0.141286  0  3.956302  0
C  C93  1  0.82187214  0.48039413  0.34587080  1  1.601147  0  0.234662  0.613773  0  4.159451  0
C  C94  1  0.97163317  0.11183319  0.46027279  1  -0.053416  0  -0.081666  -0.140776  0  3.955807  0
C  C95  1  0.33686385  0.81449545  0.11635175  1  0.000294  0  -0.161025  -0.141656  0  3.982382  0
C  C96  1  0.28036757  0.86116952  0.18066784  1  -0.056969  0  -0.244317  -0.354165  0  3.995919  0
C  C97  1  0.83735456  0.81437627  0.38315024  1  -0.01022  0  -0.16131  -0.142451  0  3.983451  0
C  C98  1  0.78119738  0.86093636  0.31851921  1  -0.021137  0  -0.243653  -0.352295  0  3.994633  0
C  C99  1  0.67164067  0.18634560  0.89874828  1  -0.008487  0  -0.1616  -0.142868  0  3.986916  0
C  C100  1  0.75443691  0.14058603  0.86257010  1  -0.055315  0  -0.243243  -0.351613  0  3.990535  0
C  C101  1  0.17122699  0.18632085  0.60179007  1  -0.065975  0  -0.16078  -0.142801  0  3.984599  0
C  C102  1  0.25403770  0.14050479  0.63792224  1  -0.030067  0  -0.243766  -0.352754  0  3.991268  0
C  C103  1  0.68517048  0.38339638  0.70283678  1  0.00102  0  -0.153512  -0.13017  0  3.945351  0
C  C104  1  0.47181791  0.01885190  0.03392716  1  -0.027961  0  -0.008704  0.079681  0  4.042918  0
C  C105  1  0.70894636  0.32534438  0.63030335  1  -0.083913  0  -0.248226  -0.363313  0  3.977274  0
C  C106  1  0.67988624  0.38771532  0.30146466  1  0.005094  0  -0.15232  -0.128875  0  3.944597  0
C  C107  1  0.69986548  0.33464946  0.37811470  1  -0.047475  0  -0.247527  -0.363092  0  3.98014  0
C  C108  1  0.17986613  0.38776262  0.19853181  1  0.004567  0  -0.152371  -0.128858  0  3.944088  0
C  C109  1  0.19978866  0.33474294  0.12183260  1  -0.082487  0  -0.247658  -0.363413  0  3.9803  0
C  C110  1  0.18522131  0.38331427  0.79711436  1  0.002039  0  -0.15321  -0.130316  0  3.946734  0
C  C111  1  0.20901602  0.32521258  0.86959520  1  -0.082487  0  -0.247984  -0.362919  0  3.97654  0
C  C112  1  0.97188989  0.01885481  0.46595203  1  -0.033287  0  -0.009118  0.079701  0  4.042719  0
C  C113  1  0.53992027  0.98082712  0.98317490  1  0.036894  0  -0.008277  0.080217  0  4.039538  0
C  C114  1  0.03975806  0.98085983  0.51697549  1  0.036091  0  -0.008348  0.079355  0  4.040785  0
C  C115  1  0.54082787  0.88795606  0.97846067  1  -0.080706  0  -0.079671  -0.135605  0  3.950225  0
O  O116  1  0.49971686  0.50285879  0.00074084  1  -1.235525  0  -0.572265  -1.026047  0  2.54238  0
O  O117  1  0.11241609  0.45901937  0.66070776  1  -1.186704  0  -0.316671  -0.558078  0  2.395858  0
O  O118  1  0.30712006  0.53168367  0.90411496  1  -1.1625  0  -0.307453  -0.536628  0  2.304053  0
O  O119  1  0.30701372  0.53428079  0.09676375  1  -1.16966  0  -0.307752  -0.53938  0  2.304617  0
O  O120  1  0.80701568  0.53428927  0.40324738  1  -1.168592  0  -0.30794  -0.539665  0  2.304866  0
O  O121  1  0.80705379  0.53173155  0.59586816  1  -1.161873  0  -0.307224  -0.536681  0  2.303299  0
O  O122  1  0.68537315  0.57368477  0.09717841  1  -1.163636  0  -0.322684  -0.553656  0  2.272872  0
O  O123  1  0.68685945  0.57575207  0.90159094  1  -1.172857  0  -0.32224  -0.553689  0  2.26897  0
O  O124  1  0.18685534  0.57575616  0.59843412  1  -1.172731  0  -0.322375  -0.554014  0  2.268876  0
O  O125  1  0.18538708  0.57370333  0.40282957  1  -1.16434  0  -0.322555  -0.553605  0  2.272965  0
O  O126  1  0.40543496  0.69240511  0.00208763  1  -1.165036  0  -0.312337  -0.54784  0  2.3663  0
O  O127  1  0.99970551  0.50289983  0.49922539  1  -1.235387  0  -0.572399  -1.026197  0  2.542749  0
O  O128  1  0.90544027  0.69243232  0.49789381  1  -1.164542  0  -0.31237  -0.547896  0  2.366075  0
O  O129  1  0.50750061  0.29688787  0.06793884  1  -1.163427  0  -0.316913  -0.549234  0  2.318407  0
O  O130  1  0.51928731  0.30229218  0.92999703  1  -1.164781  0  -0.310714  -0.544928  0  2.366838  0
O  O131  1  0.01916254  0.30236121  0.56998443  1  -1.166557  0  -0.310948  -0.545096  0  2.36692  0
O  O132  1  0.00753400  0.29689068  0.43202432  1  -1.16441  0  -0.316763  -0.548984  0  2.318467  0
O  O133  1  0.56279120  0.70735474  0.00119267  1  -1.175856  0  -0.315035  -0.549929  0  2.332861  0
O  O134  1  0.06279188  0.70736958  0.49889402  1  -1.176201  0  -0.31513  -0.550148  0  2.332726  0
O  O135  1  0.39322350  0.43514327  0.16484543  1  -1.164657  0  -0.308807  -0.53844  0  2.315052  0
O  O136  1  0.39527625  0.43505096  0.83488295  1  -1.165943  0  -0.307771  -0.534506  0  2.324363  0
O  O137  1  0.89528181  0.43518314  0.66514400  1  -1.16455  0  -0.307459  -0.53406  0  2.324186  0
O  O138  1  0.89321183  0.43514285  0.33517414  1  -1.164601  0  -0.308937  -0.538666  0  2.315165  0
O  O139  1  0.61242359  0.45902175  0.83928994  1  -1.186705  0  -0.316755  -0.558143  0  2.396034  0
O  O140  1  0.61252025  0.45498555  0.15810957  1  -1.180411  0  -0.317552  -0.562344  0  2.383668  0
O  O141  1  0.11255032  0.45499679  0.34190096  1  -1.179514  0  -0.317662  -0.562454  0  2.383266  0
