# generated using pymatgen
data_CdH10C6N3O7
_symmetry_space_group_name_H-M   'P 1'
_cell_length_a   8.70337292
_cell_length_b   10.16788421
_cell_length_c   14.24233417
_cell_angle_alpha   70.54174109
_cell_angle_beta   72.21327053
_cell_angle_gamma   64.66398458
_symmetry_Int_Tables_number   1
_chemical_formula_structural   CdH10C6N3O7
_chemical_formula_sum   'Cd4 H40 C24 N12 O28'
_cell_volume   1054.26841417
_cell_formula_units_Z   4
loop_
 _symmetry_equiv_pos_site_id
 _symmetry_equiv_pos_as_xyz
  1  'x, y, z'
loop_
 _atom_site_type_symbol
 _atom_site_label
 _atom_site_symmetry_multiplicity
 _atom_site_fract_x
 _atom_site_fract_y
 _atom_site_fract_z
 _atom_site_occupancy
 _atom_site_hle17_bader_spin_density
 _atom_site_hle17_ddec_charge
 _atom_site_hle17_ddec_spin_density
 _atom_site_hle17_ddec_sum_bond_order
 _atom_site_hle17_magmom
 _atom_site_hse06_10hf_bader_spin_density
 _atom_site_hse06_10hf_ddec_charge
 _atom_site_hse06_10hf_ddec_spin_density
 _atom_site_hse06_10hf_ddec_sum_bond_order
 _atom_site_hse06_10hf_magmom
 _atom_site_hse06_bader_spin_density
 _atom_site_hse06_ddec_charge
 _atom_site_hse06_ddec_spin_density
 _atom_site_hse06_ddec_sum_bond_order
 _atom_site_hse06_magmom
 _atom_site_pbe_bader_spin_density
 _atom_site_pbe_cm5_charge
 _atom_site_pbe_ddec_charge
 _atom_site_pbe_ddec_spin_density
 _atom_site_pbe_ddec_sum_bond_order
 _atom_site_pbe_magmom
Cd  Cd0  1  0.43157860  0.53264262  0.80812518  1  0  1.201247  0  1.603797  0  0  1.015529  0  2.047195  0  0  1.071873  0  1.991323  0  0  0.778052  0.975154  0  2.085661  0
Cd  Cd1  1  0.77213679  0.96746762  0.69188060  1  0  1.201084  0  1.603878  0  0  1.015051  0  2.047494  0  0  1.071438  0  1.991623  0  0  0.77807  0.974714  0  2.085851  0
Cd  Cd2  1  0.56842158  0.46735737  0.19187541  1  0  1.20127  0  1.60376  0  0  1.015558  0  2.047154  0  0  1.071902  0  1.991283  0  0  0.77806  0.975179  0  2.085618  0
Cd  Cd3  1  0.22786431  0.03253351  0.30811841  1  0  1.201094  0  1.603863  0  0  1.015065  0  2.047479  0  0  1.071449  0  1.991605  0  0  0.778069  0.974724  0  2.085833  0
H  H4  1  0.44050824  0.15931920  0.09724861  1  0  0.115072  0  0.962982  0  0  0.125078  0  1.019898  0  0  0.128071  0  1.017781  0  0  0.117797  0.122872  0  1.02157  0
H  H5  1  0.69734408  0.34054810  0.40255683  1  0  0.114371  0  0.962917  0  0  0.124603  0  1.019726  0  0  0.127574  0  1.017621  0  0  0.117485  0.122417  0  1.021332  0
H  H6  1  0.55949428  0.84067857  0.90275091  1  0  0.115044  0  0.962977  0  0  0.125049  0  1.019898  0  0  0.128042  0  1.017782  0  0  0.117786  0.122844  0  1.021569  0
H  H7  1  0.30265528  0.65945183  0.59744704  1  0  0.114375  0  0.962879  0  0  0.124569  0  1.019731  0  0  0.127535  0  1.017634  0  0  0.117462  0.122383  0  1.021334  0
H  H8  1  0.72675873  0.99341478  0.97709030  1  0  0.112984  0  0.984143  0  0  0.120864  0  1.048131  0  0  0.123627  0  1.047034  0  0  0.120124  0.118824  0  1.049167  0
H  H9  1  0.69730755  0.50639031  0.52283750  1  0  0.112967  0  0.983737  0  0  0.121195  0  1.047343  0  0  0.12395  0  1.046237  0  0  0.120265  0.119203  0  1.048264  0
H  H10  1  0.27323996  0.00658409  0.02291001  1  0  0.113017  0  0.984142  0  0  0.120898  0  1.048131  0  0  0.123661  0  1.047034  0  0  0.120149  0.118858  0  1.049164  0
H  H11  1  0.30269343  0.49361078  0.47716408  1  0  0.113009  0  0.983666  0  0  0.121204  0  1.047309  0  0  0.123957  0  1.046202  0  0  0.120294  0.119213  0  1.048223  0
H  H12  1  0.89997312  0.59977008  0.13891558  1  0  0.08704  0  0.938063  0  0  0.098363  0  1.00488  0  0  0.099753  0  1.004159  0  0  0.113467  0.097272  0  1.0056  0
H  H13  1  0.63859379  0.90014604  0.36097391  1  0  0.086594  0  0.938276  0  0  0.097821  0  1.005798  0  0  0.099212  0  1.005099  0  0  0.113508  0.096894  0  1.006149  0
H  H14  1  0.10002744  0.40022770  0.86108349  1  0  0.087052  0  0.93805  0  0  0.098372  0  1.004881  0  0  0.099763  0  1.004157  0  0  0.113468  0.09728  0  1.005599  0
H  H15  1  0.36140848  0.09985399  0.63902458  1  0  0.086604  0  0.938308  0  0  0.097827  0  1.00584  0  0  0.099214  0  1.005142  0  0  0.113518  0.0969  0  1.006192  0
H  H16  1  0.85026488  0.67677162  0.01571831  1  0  0.084147  0  0.925253  0  0  0.098849  0  0.986545  0  0  0.100396  0  0.985141  0  0  0.112173  0.097574  0  0.987809  0
H  H17  1  0.54257136  0.82328301  0.48416546  1  0  0.084813  0  0.924842  0  0  0.099564  0  0.986457  0  0  0.10112  0  0.98505  0  0  0.112652  0.098325  0  0.987662  0
H  H18  1  0.14973519  0.32322728  0.98428060  1  0  0.084112  0  0.925279  0  0  0.098888  0  0.986491  0  0  0.100437  0  0.985083  0  0  0.112162  0.097609  0  0.987753  0
H  H19  1  0.45742758  0.17671923  0.51583387  1  0  0.084849  0  0.924832  0  0  0.099597  0  0.986455  0  0  0.101156  0  0.985043  0  0  0.112671  0.098361  0  0.987656  0
H  H20  1  0.09761884  0.72838147  0.10103070  1  0  0.106033  0  0.955933  0  0  0.113459  0  1.027594  0  0  0.116049  0  1.025957  0  0  0.098833  0.111529  0  1.028961  0
H  H21  1  0.92683507  0.77170615  0.39897334  1  0  0.105866  0  0.955779  0  0  0.113385  0  1.026974  0  0  0.116035  0  1.025309  0  0  0.098938  0.111392  0  1.028443  0
H  H22  1  0.90238073  0.27161631  0.89896816  1  0  0.10604  0  0.955902  0  0  0.113479  0  1.027535  0  0  0.116067  0  1.025903  0  0  0.098843  0.111547  0  1.028902  0
H  H23  1  0.07316631  0.22829497  0.60102660  1  0  0.105834  0  0.955846  0  0  0.113372  0  1.027026  0  0  0.116024  0  1.025356  0  0  0.098921  0.111383  0  1.028497  0
H  H24  1  0.00216038  0.86450677  0.00102693  1  0  0.117249  0  0.933219  0  0  0.130264  0  0.997163  0  0  0.132369  0  0.996288  0  0  0.109461  0.128674  0  0.99809  0
H  H25  1  0.86753207  0.63561026  0.49900633  1  0  0.11792  0  0.932795  0  0  0.130651  0  0.99694  0  0  0.132795  0  0.996045  0  0  0.109746  0.129123  0  0.997682  0
H  H26  1  0.99783900  0.13549212  0.99897268  1  0  0.117255  0  0.933271  0  0  0.13027  0  0.997211  0  0  0.132377  0  0.996335  0  0  0.109495  0.128679  0  0.998136  0
H  H27  1  0.13246735  0.36439086  0.50099316  1  0  0.117907  0  0.932783  0  0  0.130631  0  0.996948  0  0  0.132773  0  0.996056  0  0  0.109738  0.129108  0  0.99769  0
H  H28  1  0.60125886  0.32437582  0.96354217  1  0  0.430488  0  0.873824  0  0  0.395818  0  0.943295  0  0  0.407801  0  0.926252  0  0  0.28762  0.387359  0  0.955289  0
H  H29  1  0.88916582  0.17556622  0.53653576  1  0  0.429637  0  0.875259  0  0  0.395322  0  0.944209  0  0  0.40736  0  0.927071  0  0  0.287036  0.386815  0  0.956286  0
H  H30  1  0.39874202  0.67562418  0.03645772  1  0  0.430453  0  0.873879  0  0  0.395775  0  0.943365  0  0  0.407761  0  0.926318  0  0  0.28761  0.387316  0  0.955359  0
H  H31  1  0.11083557  0.82443490  0.46346418  1  0  0.429657  0  0.875235  0  0  0.395348  0  0.944173  0  0  0.407387  0  0.927035  0  0  0.28705  0.386841  0  0.956251  0
H  H32  1  0.65664672  0.23648652  0.87699291  1  0  0.420634  0  0.861293  0  0  0.390978  0  0.932771  0  0  0.400665  0  0.918674  0  0  0.297035  0.38402  0  0.942903  0
H  H33  1  0.77021464  0.26351802  0.62306466  1  0  0.420013  0  0.862035  0  0  0.390554  0  0.933218  0  0  0.400201  0  0.91919  0  0  0.29686  0.383664  0  0.943232  0
H  H34  1  0.34335317  0.76351348  0.12300675  1  0  0.420635  0  0.861291  0  0  0.39098  0  0.932768  0  0  0.400666  0  0.918671  0  0  0.297036  0.384021  0  0.942902  0
H  H35  1  0.22978704  0.73648308  0.37693622  1  0  0.420017  0  0.861999  0  0  0.390561  0  0.933205  0  0  0.400208  0  0.919177  0  0  0.296854  0.38367  0  0.94322  0
H  H36  1  0.49160701  0.80045211  0.66136703  1  0  0.439007  0  0.857425  0  0  0.405652  0  0.924187  0  0  0.41717  0  0.907502  0  0  0.29102  0.397527  0  0.935885  0
H  H37  1  0.95357891  0.69963327  0.83859105  1  0  0.439088  0  0.8569  0  0  0.405412  0  0.923987  0  0  0.416939  0  0.907341  0  0  0.290644  0.397238  0  0.935777  0
H  H38  1  0.50839288  0.19954789  0.33863263  1  0  0.438995  0  0.857441  0  0  0.405638  0  0.924206  0  0  0.417155  0  0.907523  0  0  0.291016  0.397513  0  0.935905  0
H  H39  1  0.04642117  0.30036563  0.16140786  1  0  0.439075  0  0.856916  0  0  0.405399  0  0.924005  0  0  0.416926  0  0.907359  0  0  0.290632  0.397225  0  0.935795  0
H  H40  1  0.28446052  0.83954338  0.69833641  1  0  0.423245  0  0.87456  0  0  0.389496  0  0.942274  0  0  0.401242  0  0.924988  0  0  0.290603  0.381172  0  0.954485  0
H  H41  1  0.82245679  0.66044449  0.80170777  1  0  0.424194  0  0.873369  0  0  0.390293  0  0.941231  0  0  0.402008  0  0.923984  0  0  0.290881  0.382032  0  0.95336  0
H  H42  1  0.71553984  0.16045551  0.30166343  1  0  0.423236  0  0.874569  0  0  0.389487  0  0.942284  0  0  0.401233  0  0.924998  0  0  0.290591  0.381162  0  0.954498  0
H  H43  1  0.17754351  0.33955554  0.19829026  1  0  0.424192  0  0.873369  0  0  0.390285  0  0.941239  0  0  0.402001  0  0.923993  0  0  0.29088  0.382025  0  0.953368  0
C  C44  1  0.62253771  0.81560157  0.20792951  1  0  0.220189  0  3.751317  0  0  0.18732  0  4.024447  0  0  0.199672  0  4.038805  0  0  0.21341  0.179018  0  4.014724  0
C  C45  1  0.64606338  0.68436198  0.29201960  1  0  0.223786  0  3.748974  0  0  0.188717  0  4.02365  0  0  0.201313  0  4.03776  0  0  0.214273  0.18034  0  4.014087  0
C  C46  1  0.37746266  0.18439731  0.79207032  1  0  0.220197  0  3.751272  0  0  0.187311  0  4.024417  0  0  0.199662  0  4.038773  0  0  0.213407  0.179009  0  4.014703  0
C  C47  1  0.35393699  0.31563690  0.70798024  1  0  0.223824  0  3.748883  0  0  0.18876  0  4.023555  0  0  0.20136  0  4.037658  0  0  0.2143  0.180376  0  4.014007  0
C  C48  1  0.52579580  0.04369606  0.11592504  1  0  0.021511  0  3.745782  0  0  -0.015284  0  4.018121  0  0  -0.013028  0  4.037112  0  0  -0.002997  -0.016708  0  4.005302  0
C  C49  1  0.68557011  0.45621702  0.38391785  1  0  0.022795  0  3.744167  0  0  -0.014141  0  4.016687  0  0  -0.011882  0  4.035648  0  0  -0.002383  -0.015544  0  4.003765  0
C  C50  1  0.47420409  0.95630394  0.88407462  1  0  0.021629  0  3.745861  0  0  -0.015161  0  4.018192  0  0  -0.012903  0  4.037182  0  0  -0.002959  -0.016583  0  4.005364  0
C  C51  1  0.31442945  0.54378181  0.61608525  1  0  0.022784  0  3.74419  0  0  -0.014115  0  4.01671  0  0  -0.011857  0  4.035676  0  0  -0.002369  -0.015516  0  4.003782  0
C  C52  1  0.66636755  0.96291361  0.05560561  1  0  -0.032224  0  3.660043  0  0  -0.074668  0  3.922619  0  0  -0.073234  0  3.941175  0  0  0.008109  -0.075567  0  3.910424  0
C  C53  1  0.68489101  0.53695962  0.44431732  1  0  -0.033061  0  3.659688  0  0  -0.075776  0  3.922074  0  0  -0.074343  0  3.940618  0  0  0.00743  -0.076679  0  3.909768  0
C  C54  1  0.33363446  0.03708305  0.94439387  1  0  -0.03233  0  3.660184  0  0  -0.074789  0  3.922776  0  0  -0.073356  0  3.941332  0  0  0.008066  -0.075683  0  3.910573  0
C  C55  1  0.31511073  0.46304033  0.55568536  1  0  -0.033074  0  3.659638  0  0  -0.075762  0  3.922026  0  0  -0.074326  0  3.940568  0  0  0.007416  -0.076661  0  3.909712  0
C  C56  1  0.87944704  0.70035228  0.07679967  1  0  0.032887  0  3.590933  0  0  -0.030414  0  3.846529  0  0  -0.025564  0  3.856162  0  0  -0.051716  -0.03355  0  3.840102  0
C  C57  1  0.65646752  0.79964225  0.42313910  1  0  0.034027  0  3.589835  0  0  -0.030461  0  3.84722  0  0  -0.025616  0  3.85691  0  0  -0.051822  -0.033518  0  3.840379  0
C  C58  1  0.12055234  0.29964660  0.92319994  1  0  0.03289  0  3.590912  0  0  -0.030465  0  3.846533  0  0  -0.025613  0  3.856167  0  0  -0.051723  -0.033586  0  3.840081  0
C  C59  1  0.34353434  0.20035775  0.57686102  1  0  0.033999  0  3.589854  0  0  -0.030504  0  3.847255  0  0  -0.025664  0  3.856959  0  0  -0.051831  -0.033555  0  3.840418  0
C  C60  1  0.03952430  0.74434015  0.03808289  1  0  -0.284192  0  3.655451  0  0  -0.322633  0  3.908154  0  0  -0.328509  0  3.91467  0  0  -0.163465  -0.31858  0  3.903808  0
C  C61  1  0.82173097  0.75576498  0.46191443  1  0  -0.285891  0  3.655256  0  0  -0.323244  0  3.907509  0  0  -0.329277  0  3.914172  0  0  -0.164089  -0.319207  0  3.903124  0
C  C62  1  0.96047479  0.25565875  0.96191579  1  0  -0.284244  0  3.65555  0  0  -0.322698  0  3.908324  0  0  -0.32858  0  3.914844  0  0  -0.163541  -0.318641  0  3.903967  0
C  C63  1  0.17826972  0.24423612  0.53808622  1  0  -0.285879  0  3.655305  0  0  -0.323242  0  3.907577  0  0  -0.32927  0  3.914228  0  0  -0.164092  -0.319223  0  3.903213  0
C  C64  1  0.17545242  0.66516709  0.95906172  1  0  0.7111  0  3.823608  0  0  0.659699  0  4.119733  0  0  0.69331  0  4.114588  0  0  0.209496  0.636835  0  4.122382  0
C  C65  1  0.79949430  0.83503897  0.54090406  1  0  0.710246  0  3.820697  0  0  0.658442  0  4.117251  0  0  0.692064  0  4.112153  0  0  0.208416  0.635638  0  4.11986  0
C  C66  1  0.82454718  0.33483293  0.04093702  1  0  0.711127  0  3.823555  0  0  0.659714  0  4.119706  0  0  0.693327  0  4.114561  0  0  0.209508  0.636848  0  4.122358  0
C  C67  1  0.20050541  0.16496214  0.45909636  1  0  0.710224  0  3.820658  0  0  0.658401  0  4.117229  0  0  0.692022  0  4.112133  0  0  0.208387  0.635602  0  4.119841  0
N  N68  1  0.80473271  0.47894517  0.71853341  1  0  0.688464  0  4.135425  0  0  0.716508  0  4.433355  0  0  0.744845  0  4.439841  0  0  0.097498  0.697496  0  4.428443  0
N  N69  1  0.00221388  0.02103153  0.78145342  1  0  0.692461  0  4.133345  0  0  0.714016  0  4.437504  0  0  0.742366  0  4.443964  0  0  0.097069  0.695001  0  4.432663  0
N  N70  1  0.19526579  0.52105480  0.28146766  1  0  0.688538  0  4.135262  0  0  0.716558  0  4.433231  0  0  0.744894  0  4.439721  0  0  0.097514  0.697547  0  4.428318  0
N  N71  1  0.99778484  0.97896958  0.21854677  1  0  0.692493  0  4.133482  0  0  0.714094  0  4.437566  0  0  0.742448  0  4.444024  0  0  0.097116  0.695074  0  4.432732  0
N  N72  1  0.49827177  0.95160160  0.21006308  1  0  -0.434959  0  3.230307  0  0  -0.367607  0  3.51342  0  0  -0.388386  0  3.529797  0  0  -0.357732  -0.353189  0  3.501751  0
N  N73  1  0.66003908  0.54835848  0.28980488  1  0  -0.436791  0  3.230552  0  0  -0.368871  0  3.514156  0  0  -0.389675  0  3.530442  0  0  -0.358698  -0.354444  0  3.502596  0
N  N74  1  0.50172907  0.04839617  0.78993693  1  0  -0.435017  0  3.230349  0  0  -0.367666  0  3.513468  0  0  -0.388443  0  3.529842  0  0  -0.357753  -0.353244  0  3.501798  0
N  N75  1  0.33995920  0.45164037  0.71019707  1  0  -0.436791  0  3.230523  0  0  -0.36887  0  3.514117  0  0  -0.389672  0  3.530396  0  0  -0.35869  -0.354439  0  3.50256  0
N  N76  1  0.72687294  0.82006143  0.11380174  1  0  -0.071377  0  3.515758  0  0  0.018364  0  3.730099  0  0  0.004417  0  3.755659  0  0  -0.230709  0.027565  0  3.712797  0
N  N77  1  0.66069579  0.67985651  0.38617002  1  0  -0.072484  0  3.516468  0  0  0.018469  0  3.730869  0  0  0.004484  0  3.756373  0  0  -0.230314  0.027592  0  3.713703  0
N  N78  1  0.27312790  0.17993633  0.88619826  1  0  -0.071327  0  3.515598  0  0  0.018426  0  3.729951  0  0  0.004478  0  3.755512  0  0  -0.230674  0.027626  0  3.712645  0
N  N79  1  0.33930461  0.32014461  0.61382970  1  0  -0.072533  0  3.516564  0  0  0.018433  0  3.730972  0  0  0.004447  0  3.756469  0  0  -0.230333  0.027559  0  3.713809  0
O  O80  1  0.33485402  0.63628408  0.95560433  1  0  -0.638969  0  1.987393  0  0  -0.564816  0  2.216006  0  0  -0.594723  0  2.206034  0  0  -0.311691  -0.543975  0  2.222281  0
O  O81  1  0.92652409  0.86401342  0.54429991  1  0  -0.638439  0  1.985049  0  0  -0.564357  0  2.213771  0  0  -0.594245  0  2.203766  0  0  -0.311297  -0.54354  0  2.220063  0
O  O82  1  0.66514559  0.36371594  0.04439441  1  0  -0.638975  0  1.987361  0  0  -0.56482  0  2.215982  0  0  -0.594726  0  2.206009  0  0  -0.311694  -0.54398  0  2.222258  0
O  O83  1  0.07347631  0.13598769  0.45569981  1  0  -0.638417  0  1.98509  0  0  -0.564323  0  2.213806  0  0  -0.59421  0  2.203803  0  0  -0.311274  -0.543505  0  2.220095  0
O  O84  1  0.13084933  0.63327979  0.89442905  1  0  -0.665862  0  1.994296  0  0  -0.595084  0  2.229896  0  0  -0.625205  0  2.221022  0  0  -0.319684  -0.573838  0  2.23529  0
O  O85  1  0.65838168  0.86689833  0.60554640  1  0  -0.665296  0  1.992484  0  0  -0.594213  0  2.228008  0  0  -0.624346  0  2.219096  0  0  -0.31938  -0.573109  0  2.233226  0
O  O86  1  0.86914980  0.36672135  0.10556952  1  0  -0.665847  0  1.994239  0  0  -0.595077  0  2.229864  0  0  -0.6252  0  2.220992  0  0  -0.319666  -0.57383  0  2.235257  0
O  O87  1  0.34161898  0.13310054  0.39445436  1  0  -0.665294  0  1.992451  0  0  -0.594185  0  2.227964  0  0  -0.62432  0  2.219055  0  0  -0.319361  -0.573078  0  2.233179  0
O  O88  1  0.72008925  0.54889230  0.79004415  1  0  -0.498963  0  1.810811  0  0  -0.461556  0  2.023955  0  0  -0.482219  0  2.016408  0  0  -0.186147  -0.447271  0  2.029024  0
O  O89  1  0.05910114  0.95117115  0.70989481  1  0  -0.499389  0  1.809021  0  0  -0.460463  0  2.024115  0  0  -0.4813  0  2.016735  0  0  -0.186241  -0.446243  0  2.029283  0
O  O90  1  0.27991116  0.45110882  0.20995557  1  0  -0.498968  0  1.810764  0  0  -0.461558  0  2.023935  0  0  -0.482212  0  2.01637  0  0  -0.186139  -0.447275  0  2.029003  0
O  O91  1  0.94089974  0.04882884  0.29010508  1  0  -0.499381  0  1.809073  0  0  -0.460464  0  2.024148  0  0  -0.481306  0  2.016767  0  0  -0.186239  -0.446244  0  2.029315  0
O  O92  1  0.72240700  0.42726665  0.68783143  1  0  -0.514789  0  1.803708  0  0  -0.491135  0  2.030803  0  0  -0.509608  0  2.023397  0  0  -0.19847  -0.47812  0  2.035569  0
O  O93  1  0.83750035  0.07271090  0.81208570  1  0  -0.514502  0  1.804506  0  0  -0.488108  0  2.03296  0  0  -0.506674  0  2.02563  0  0  -0.197079  -0.475099  0  2.037669  0
O  O94  1  0.27759318  0.57273334  0.31216916  1  0  -0.514847  0  1.803666  0  0  -0.491171  0  2.030752  0  0  -0.509649  0  2.023351  0  0  -0.198491  -0.478159  0  2.035519  0
O  O95  1  0.16249808  0.92729022  0.18791357  1  0  -0.514537  0  1.804512  0  0  -0.488153  0  2.032947  0  0  -0.506721  0  2.025616  0  0  -0.197103  -0.475144  0  2.037655  0
O  O96  1  0.95844303  0.46341444  0.68169525  1  0  -0.392865  0  1.778012  0  0  -0.392257  0  1.993931  0  0  -0.404046  0  1.990546  0  0  -0.152105  -0.384074  0  1.996166  0
O  O97  1  0.10345513  0.03650820  0.81841109  1  0  -0.397063  0  1.778589  0  0  -0.39346  0  1.995982  0  0  -0.405205  0  1.992572  0  0  -0.153192  -0.385322  0  1.998255  0
O  O98  1  0.04155664  0.53658443  0.31830529  1  0  -0.392882  0  1.777959  0  0  -0.392268  0  1.993886  0  0  -0.404057  0  1.990499  0  0  -0.15211  -0.384089  0  1.996121  0
O  O99  1  0.89654340  0.96349401  0.18158986  1  0  -0.397086  0  1.778669  0  0  -0.3935  0  1.996042  0  0  -0.405247  0  1.992633  0  0  -0.153221  -0.385359  0  1.998309  0
O  O100  1  0.55629738  0.30450947  0.91399694  1  0  -0.827261  0  1.858658  0  0  -0.764212  0  2.062109  0  0  -0.787633  0  2.029575  0  0  -0.580662  -0.747466  0  2.084541  0
O  O101  1  0.77475807  0.19558273  0.58602658  1  0  -0.825885  0  1.861105  0  0  -0.763161  0  2.064128  0  0  -0.786598  0  2.031638  0  0  -0.579889  -0.746428  0  2.086607  0
O  O102  1  0.44370251  0.69549054  0.08600272  1  0  -0.827239  0  1.858684  0  0  -0.764188  0  2.062137  0  0  -0.787613  0  2.029606  0  0  -0.580667  -0.747441  0  2.084571  0
O  O103  1  0.22524332  0.80441838  0.41397337  1  0  -0.825902  0  1.861022  0  0  -0.763218  0  2.064114  0  0  -0.786633  0  2.031576  0  0  -0.579901  -0.746486  0  2.086592  0
O  O104  1  0.39849314  0.75810662  0.68802530  1  0  -0.849727  0  1.869207  0  0  -0.78637  0  2.068946  0  0  -0.808893  0  2.032245  0  0  -0.588928  -0.770448  0  2.094281  0
O  O105  1  0.84481758  0.74192886  0.81189647  1  0  -0.851173  0  1.867739  0  0  -0.787432  0  2.06864  0  0  -0.809908  0  2.031702  0  0  -0.589288  -0.77136  0  2.094181  0
O  O106  1  0.60150605  0.24189337  0.31197507  1  0  -0.849714  0  1.869224  0  0  -0.786363  0  2.068974  0  0  -0.808885  0  2.032272  0  0  -0.588917  -0.77044  0  2.09431  0
O  O107  1  0.15518301  0.25807116  0.18810249  1  0  -0.851143  0  1.867735  0  0  -0.787398  0  2.068638  0  0  -0.809876  0  2.0317  0  0  -0.589264  -0.771318  0  2.09416  0
