# generated using pymatgen
data_Zn4H16C62O13F24
_symmetry_space_group_name_H-M   'P 1'
_cell_length_a   21.60788268
_cell_length_b   21.60785428
_cell_length_c   34.43930759
_cell_angle_alpha   90.00033927
_cell_angle_beta   89.99967852
_cell_angle_gamma   90.00015747
_symmetry_Int_Tables_number   1
_chemical_formula_structural   Zn4H16C62O13F24
_chemical_formula_sum   'Zn8 H32 C124 O26 F48'
_cell_volume   16079.71202869
_cell_formula_units_Z   2
loop_
 _symmetry_equiv_pos_site_id
 _symmetry_equiv_pos_as_xyz
  1  'x, y, z'
loop_
 _atom_site_type_symbol
 _atom_site_label
 _atom_site_symmetry_multiplicity
 _atom_site_fract_x
 _atom_site_fract_y
 _atom_site_fract_z
 _atom_site_occupancy
 _atom_site_pbe_bader_charge
 _atom_site_pbe_bader_spin_density
 _atom_site_pbe_cm5_charge
 _atom_site_pbe_ddec_charge
 _atom_site_pbe_ddec_spin_density
 _atom_site_pbe_ddec_sum_bond_order
 _atom_site_pbe_magmom
Zn  Zn0  1  0.55210144  0.55150778  0.03350915  1  1.31712  0  0.678818  0.972252  0  2.361089  0
Zn  Zn1  1  0.44789502  0.55150418  0.96648918  1  1.317043  0  0.678757  0.972166  0  2.361284  0
Zn  Zn2  1  0.44789720  0.44849695  0.03351233  1  1.317018  0  0.678771  0.97218  0  2.361475  0
Zn  Zn3  1  0.55210037  0.44849270  0.96649026  1  1.317121  0  0.678788  0.972159  0  2.361063  0
Zn  Zn4  1  0.44849689  0.44789736  0.46649026  1  1.317057  0  0.678746  0.972157  0  2.361342  0
Zn  Zn5  1  0.44849581  0.55210377  0.53351096  1  1.317197  0  0.678783  0.972247  0  2.360981  0
Zn  Zn6  1  0.55150713  0.55210267  0.46648969  1  1.317172  0  0.678764  0.972189  0  2.361099  0
Zn  Zn7  1  0.55150298  0.44789319  0.53351204  1  1.31727  0  0.678786  0.97221  0  2.361134  0
H  H8  1  0.56804373  0.57090779  0.15079142  1  0.073106  0  0.103757  0.10906  0  1.033655  0
H  H9  1  0.43195339  0.42909111  0.15079256  1  0.073025  0  0.103747  0.109009  0  1.033527  0
H  H10  1  0.42909151  0.43195443  0.34920655  1  0.073106  0  0.103762  0.109044  0  1.033514  0
H  H11  1  0.57091170  0.56804588  0.34920539  1  0.073017  0  0.103768  0.109086  0  1.03361  0
H  H12  1  0.43195555  0.57090997  0.84920756  1  0.073072  0  0.103791  0.109108  0  1.033476  0
H  H13  1  0.56804597  0.42908997  0.84920473  1  0.073048  0  0.103793  0.109126  0  1.033624  0
H  H14  1  0.57091248  0.43195373  0.65079250  1  0.072984  0  0.103756  0.109015  0  1.033494  0
H  H15  1  0.42909128  0.56804387  0.65079300  1  0.073067  0  0.103785  0.109087  0  1.033627  0
H  H16  1  0.61597209  0.67344804  0.28317514  1  0.049875  0  0.095466  0.127721  0  0.993094  0
H  H17  1  0.62243893  0.62173047  0.32267583  1  0.036841  0  0.094572  0.130617  0  1.018345  0
H  H18  1  0.67377499  0.61597319  0.28293654  1  0.041121  0  0.09593  0.128394  0  0.992153  0
H  H19  1  0.67344531  0.61597010  0.21682081  1  0.049818  0  0.095447  0.127681  0  0.993042  0
H  H20  1  0.62173243  0.62244064  0.17731867  1  0.036547  0  0.094509  0.130497  0  1.018432  0
H  H21  1  0.61597470  0.67377770  0.21705767  1  0.041248  0  0.095873  0.12832  0  0.992235  0
H  H22  1  0.38403126  0.32655488  0.28317665  1  0.049787  0  0.09547  0.127689  0  0.993079  0
H  H23  1  0.37756083  0.37826727  0.32267726  1  0.036727  0  0.094589  0.130577  0  1.018463  0
H  H24  1  0.32622604  0.38402603  0.28293992  1  0.041204  0  0.095915  0.128373  0  0.992226  0
H  H25  1  0.32655400  0.38402850  0.21682070  1  0.049817  0  0.09546  0.127685  0  0.992958  0
H  H26  1  0.37826816  0.37756083  0.17732096  1  0.036658  0  0.094549  0.130527  0  1.018421  0
H  H27  1  0.38402692  0.32622598  0.21705859  1  0.041282  0  0.095917  0.128374  0  0.992224  0
H  H28  1  0.38402887  0.67344375  0.71682364  1  0.050028  0  0.095455  0.127699  0  0.993026  0
H  H29  1  0.37755819  0.62173088  0.67732276  1  0.036742  0  0.094532  0.13054  0  1.018474  0
H  H30  1  0.32622257  0.61597291  0.71706115  1  0.041096  0  0.095892  0.128328  0  0.992209  0
H  H31  1  0.32655363  0.61597322  0.78317892  1  0.049972  0  0.095459  0.127686  0  0.993024  0
H  H32  1  0.37826793  0.62243964  0.82267876  1  0.036683  0  0.094547  0.130521  0  1.018428  0
H  H33  1  0.38402765  0.67377311  0.78293995  1  0.041296  0  0.095904  0.128372  0  0.992195  0
H  H34  1  0.61597199  0.32655123  0.71682201  1  0.049883  0  0.095472  0.127713  0  0.993085  0
H  H35  1  0.62243978  0.37826466  0.67732072  1  0.036638  0  0.094564  0.130522  0  1.018478  0
H  H36  1  0.67377273  0.38402486  0.71705982  1  0.041322  0  0.095949  0.128386  0  0.992231  0
H  H37  1  0.67344616  0.38402748  0.78317613  1  0.049957  0  0.095441  0.127662  0  0.993063  0
H  H38  1  0.62173291  0.37755727  0.82267701  1  0.036774  0  0.09452  0.130549  0  1.018424  0
H  H39  1  0.61597632  0.32622111  0.78293861  1  0.041111  0  0.095905  0.128306  0  0.992229  0
C  C40  1  0.50000471  0.66428006  0.99999839  1  1.614573  0  0.234596  0.648282  0  4.144445  0
C  C41  1  0.33483883  0.49999282  0.99999693  1  1.639537  0  0.232825  0.645942  0  4.155582  0
C  C42  1  0.49999830  0.50000641  0.10484885  1  1.467723  0  0.230086  0.614818  0  4.144207  0
C  C43  1  0.50000503  0.33571658  0.00000090  1  1.614611  0  0.234461  0.648046  0  4.144993  0
C  C44  1  0.66516628  0.49999596  0.00000121  1  1.639581  0  0.232975  0.64615  0  4.154977  0
C  C45  1  0.50000079  0.49999024  0.89514929  1  1.467884  0  0.230262  0.615161  0  4.143366  0
C  C46  1  0.33571621  0.50000157  0.50000110  1  1.614648  0  0.234538  0.648238  0  4.144627  0
C  C47  1  0.49999723  0.66516488  0.50000054  1  1.639562  0  0.23301  0.646155  0  4.154982  0
C  C48  1  0.50000534  0.49999945  0.39514940  1  1.467563  0  0.230109  0.614922  0  4.14405  0
C  C49  1  0.66428242  0.50000387  0.50000139  1  1.614686  0  0.234471  0.648024  0  4.145031  0
C  C50  1  0.49999492  0.33483963  0.50000341  1  1.639449  0  0.233014  0.646  0  4.155332  0
C  C51  1  0.49999514  0.49999905  0.60485048  1  1.467574  0  0.230024  0.614781  0  4.144259  0
C  C52  1  0.26549469  0.49998902  0.99999995  1  0.126041  0  -0.023228  -0.212579  0  3.981902  0
C  C53  1  0.23188074  0.44962347  0.01468133  1  0.505539  0  0.101304  0.177284  0  4.071989  0
C  C54  1  0.16744500  0.44979369  0.01460856  1  0.588669  0  0.094643  0.135277  0  4.077234  0
C  C55  1  0.23188302  0.55036179  0.98532124  1  0.505333  0  0.101221  0.176783  0  4.072398  0
C  C56  1  0.16744543  0.55020019  0.98539423  1  0.588766  0  0.094863  0.135769  0  4.077192  0
C  C57  1  0.13395643  0.49999708  0.00000156  1  0.133602  0  -0.018435  -0.081833  0  4.079155  0
C  C58  1  0.06566469  0.49999745  0.00000023  1  0.12905  0  -0.017813  -0.088884  0  4.077986  0
C  C59  1  0.03221471  0.50020882  0.96524589  1  0.623589  0  0.096048  0.145147  0  4.07769  0
C  C60  1  0.03221285  0.49978607  0.03475360  1  0.623508  0  0.096031  0.145125  0  4.077721  0
C  C61  1  0.73451180  0.49999929  0.00000254  1  0.125838  0  -0.02302  -0.212429  0  3.981342  0
C  C62  1  0.76812269  0.55036905  0.01467970  1  0.505494  0  0.101124  0.177006  0  4.07186  0
C  C63  1  0.83255936  0.55020439  0.01460583  1  0.588475  0  0.094861  0.135511  0  4.077488  0
C  C64  1  0.76812237  0.44963017  0.98532127  1  0.505788  0  0.101106  0.17685  0  4.071888  0
C  C65  1  0.83255858  0.44979594  0.98539229  1  0.588173  0  0.094814  0.135472  0  4.077416  0
C  C66  1  0.86604683  0.49999956  0.99999918  1  0.134066  0  -0.018418  -0.081521  0  4.079353  0
C  C67  1  0.93433811  0.49999919  0.99999906  1  0.129032  0  -0.017891  -0.089276  0  4.078405  0
C  C68  1  0.96778716  0.50021035  0.03475312  1  0.445156  0  0.096125  0.145345  0  4.07762  0
C  C69  1  0.96778856  0.49978850  0.96524482  1  0.446415  0  0.096019  0.145158  0  4.077877  0
C  C70  1  0.53903985  0.54039716  0.16802579  1  -0.041035  0  -0.086073  -0.139034  0  3.946364  0
C  C71  1  0.54069184  0.54115819  0.20874380  1  -0.012302  0  -0.005212  0.027612  0  3.999604  0
C  C72  1  0.58170137  0.58196573  0.22993325  1  0.00617  0  -0.008649  0.058432  0  3.918196  0
C  C73  1  0.46095666  0.45961023  0.16802578  1  -0.040793  0  -0.08603  -0.138885  0  3.946334  0
C  C74  1  0.45930199  0.45884403  0.20874292  1  -0.012187  0  -0.005183  0.027654  0  3.999396  0
C  C75  1  0.41829597  0.41803808  0.22993585  1  0.011271  0  -0.008695  0.058388  0  3.918491  0
C  C76  1  0.45961151  0.46095819  0.33197333  1  -0.040667  0  -0.086136  -0.139093  0  3.946418  0
C  C77  1  0.45884206  0.45930675  0.29125619  1  -0.012289  0  -0.005125  0.027718  0  3.999395  0
C  C78  1  0.41803570  0.41829882  0.27006383  1  0.006438  0  -0.008644  0.058515  0  3.918297  0
C  C79  1  0.54039371  0.53904380  0.33197275  1  -0.040389  0  -0.0862  -0.139214  0  3.946342  0
C  C80  1  0.54115658  0.54069856  0.29125533  1  -0.01254  0  -0.005123  0.027669  0  3.999336  0
C  C81  1  0.58196314  0.58170491  0.27006298  1  0.011286  0  -0.008714  0.058527  0  3.918171  0
C  C82  1  0.49999487  0.50000244  0.14802480  1  0.052433  0  -0.02617  -0.046951  0  4.050498  0
C  C83  1  0.49999682  0.50000375  0.22941610  1  0.086641  0  0.002218  -0.001933  0  3.944175  0
C  C84  1  0.50000136  0.50000109  0.35197373  1  0.051863  0  -0.026049  -0.046784  0  4.050332  0
C  C85  1  0.49999756  0.50000441  0.27058331  1  -0.084535  0  0.002195  -0.001991  0  3.944159  0
C  C86  1  0.46095611  0.54038723  0.83197366  1  -0.040563  0  -0.086105  -0.139083  0  3.946633  0
C  C87  1  0.45930042  0.54115435  0.79125594  1  -0.01216  0  -0.005158  0.027729  0  3.999346  0
C  C88  1  0.41829470  0.58196019  0.77006461  1  0.011236  0  -0.008608  0.058436  0  3.918295  0
C  C89  1  0.53904371  0.45960329  0.83197192  1  -0.040385  0  -0.086193  -0.139205  0  3.94618  0
C  C90  1  0.54069375  0.45884087  0.79125419  1  -0.012374  0  -0.005177  0.027602  0  3.999322  0
C  C91  1  0.58170151  0.41803252  0.77006343  1  -0.014089  0  -0.008745  0.058486  0  3.918209  0
C  C92  1  0.54039164  0.46095712  0.66802582  1  -0.04079  0  -0.085982  -0.138696  0  3.946339  0
C  C93  1  0.54115877  0.45929958  0.70874295  1  -0.012225  0  -0.005277  0.027377  0  3.999652  0
C  C94  1  0.58196132  0.41829335  0.72993400  1  0.031425  0  -0.008593  0.058599  0  3.918289  0
C  C95  1  0.45960549  0.53904157  0.66802611  1  -0.040496  0  -0.086115  -0.139062  0  3.946341  0
C  C96  1  0.45884216  0.54069117  0.70874325  1  -0.012317  0  -0.005257  0.027592  0  3.999408  0
C  C97  1  0.41803479  0.58169991  0.72993546  1  0.006505  0  -0.008674  0.058492  0  3.918096  0
C  C98  1  0.49999774  0.49999697  0.85197275  1  0.051782  0  -0.026074  -0.046933  0  4.050597  0
C  C99  1  0.49999764  0.49999474  0.77058320  1  -0.084779  0  0.002267  -0.001801  0  3.943847  0
C  C100  1  0.50000050  0.49999647  0.64802614  1  0.052003  0  -0.026194  -0.047102  0  4.050606  0
C  C101  1  0.49999597  0.49999408  0.72941483  1  0.086666  0  0.00225  -0.001962  0  3.944135  0
C  C102  1  0.50000169  0.26621407  0.00000020  1  0.116613  0  -0.021021  -0.213178  0  3.978094  0
C  C103  1  0.47697842  0.23240981  0.03164976  1  0.495102  0  0.101852  0.179137  0  4.071179  0
C  C104  1  0.47706766  0.16791799  0.03153379  1  0.612427  0  0.09258  0.132198  0  4.082795  0
C  C105  1  0.52302132  0.23241013  0.96834999  1  0.495089  0  0.101772  0.179122  0  4.071263  0
C  C106  1  0.52293423  0.16791692  0.96846950  1  0.612269  0  0.092515  0.132042  0  4.082605  0
C  C107  1  0.50000197  0.13423845  0.00000256  1  0.130262  0  -0.015815  -0.07739  0  4.075372  0
C  C108  1  0.50000142  0.06581703  0.00000127  1  0.137355  0  -0.018382  -0.089219  0  4.071478  0
C  C109  1  0.55537345  0.03223404  0.99985397  1  0.446604  0  0.095737  0.144206  0  4.075308  0
C  C110  1  0.44462852  0.03223334  0.00014562  1  0.445428  0  0.095776  0.144272  0  4.075335  0
C  C111  1  0.50000203  0.73378442  0.99999649  1  0.116191  0  -0.021032  -0.213027  0  3.977692  0
C  C112  1  0.47697867  0.76759000  0.96834874  1  0.495018  0  0.101743  0.179163  0  4.071141  0
C  C113  1  0.47706762  0.83208229  0.96846646  1  0.611753  0  0.092486  0.131944  0  4.082921  0
C  C114  1  0.52302717  0.76758703  0.03164603  1  0.495557  0  0.101845  0.178984  0  4.071111  0
C  C115  1  0.52293887  0.83208164  0.03152855  1  0.613437  0  0.092456  0.131913  0  4.082872  0
C  C116  1  0.50000082  0.86576143  0.99999906  1  0.130328  0  -0.015829  -0.077301  0  4.075419  0
C  C117  1  0.50000138  0.93418192  0.00000005  1  0.138294  0  -0.018414  -0.089301  0  4.071508  0
C  C118  1  0.44462996  0.96776454  0.99985329  1  0.622962  0  0.095891  0.144322  0  4.075285  0
C  C119  1  0.55537319  0.96776414  0.00014513  1  0.622932  0  0.095786  0.144309  0  4.075157  0
C  C120  1  0.49999640  0.73451050  0.49999689  1  0.125736  0  -0.023105  -0.212398  0  3.981377  0
C  C121  1  0.55036516  0.76812374  0.48531771  1  0.50544  0  0.101072  0.176785  0  4.072152  0
C  C122  1  0.55020096  0.83255772  0.48539071  1  0.588213  0  0.094868  0.135576  0  4.077559  0
C  C123  1  0.44962865  0.76811957  0.51467910  1  0.505818  0  0.101283  0.177046  0  4.07177  0
C  C124  1  0.44979581  0.83255725  0.51460866  1  0.58848  0  0.09474  0.135321  0  4.077457  0
C  C125  1  0.49999982  0.86604600  0.50000207  1  0.134062  0  -0.018467  -0.081681  0  4.079497  0
C  C126  1  0.49999760  0.93433784  0.50000104  1  0.128744  0  -0.017857  -0.089077  0  4.078224  0
C  C127  1  0.49978321  0.96778834  0.53475528  1  0.446634  0  0.096015  0.145234  0  4.077953  0
C  C128  1  0.50021022  0.96778662  0.46524662  1  0.623567  0  0.096002  0.145071  0  4.077814  0
C  C129  1  0.49998927  0.26549632  0.50000357  1  0.126003  0  -0.023323  -0.212614  0  3.981991  0
C  C130  1  0.44962203  0.23188479  0.48532124  1  0.505573  0  0.101243  0.177054  0  4.072117  0
C  C131  1  0.44978669  0.16744712  0.48539633  1  0.589023  0  0.094566  0.135243  0  4.077249  0
C  C132  1  0.55035921  0.23188183  0.51468025  1  0.505266  0  0.101331  0.177138  0  4.072168  0
C  C133  1  0.55019529  0.16744461  0.51460725  1  0.589001  0  0.09481  0.135446  0  4.077471  0
C  C134  1  0.49999094  0.13395804  0.50000100  1  0.133056  0  -0.018419  -0.081726  0  4.078909  0
C  C135  1  0.49999640  0.06566389  0.50000000  1  0.129077  0  -0.017831  -0.088928  0  4.077915  0
C  C136  1  0.49978779  0.03221200  0.46524634  1  0.445167  0  0.096078  0.145274  0  4.077718  0
C  C137  1  0.50020724  0.03221372  0.53475383  1  0.623564  0  0.096032  0.145035  0  4.077757  0
C  C138  1  0.73378622  0.50000072  0.50000359  1  0.116564  0  -0.021035  -0.21298  0  3.977892  0
C  C139  1  0.76758795  0.52302281  0.46835457  1  0.495063  0  0.101767  0.17901  0  4.071035  0
C  C140  1  0.83208061  0.52293728  0.46847437  1  0.613776  0  0.092632  0.13203  0  4.082644  0
C  C141  1  0.76759223  0.47697781  0.53165076  1  0.494981  0  0.101662  0.178898  0  4.071441  0
C  C142  1  0.83208397  0.47706259  0.53153247  1  0.611823  0  0.092487  0.132086  0  4.082737  0
C  C143  1  0.86576167  0.50000137  0.50000365  1  0.130099  0  -0.015893  -0.077437  0  4.075562  0
C  C144  1  0.93418438  0.50000193  0.50000063  1  0.137428  0  -0.018328  -0.089007  0  4.071387  0
C  C145  1  0.96776742  0.44463044  0.50014420  1  0.445395  0  0.095751  0.144067  0  4.075358  0
C  C146  1  0.96776665  0.55537535  0.49985462  1  0.446531  0  0.09568  0.143976  0  4.075292  0
C  C147  1  0.26621334  0.50000008  0.50000383  1  0.116093  0  -0.021031  -0.213  0  3.977872  0
C  C148  1  0.23241028  0.52302329  0.53165324  1  0.495141  0  0.101593  0.178908  0  4.071661  0
C  C149  1  0.16791715  0.52294036  0.53153343  1  0.611992  0  0.092483  0.131863  0  4.082868  0
C  C150  1  0.23241004  0.47697816  0.46835426  1  0.495516  0  0.101804  0.179015  0  4.071174  0
C  C151  1  0.16791922  0.47706740  0.46847168  1  0.613164  0  0.092477  0.13203  0  4.082909  0
C  C152  1  0.13424113  0.50000592  0.50000116  1  0.130305  0  -0.015775  -0.077391  0  4.075785  0
C  C153  1  0.06581795  0.50000675  0.49999867  1  0.137833  0  -0.01832  -0.089061  0  4.071275  0
C  C154  1  0.03223676  0.55537916  0.50014198  1  0.62327  0  0.095769  0.144321  0  4.075192  0
C  C155  1  0.03223430  0.44463285  0.49985373  1  0.622987  0  0.095914  0.144303  0  4.075422  0
C  C156  1  0.62532182  0.62496156  0.29107066  1  -0.07047  0  -0.234415  -0.395177  0  3.978129  0
C  C157  1  0.62495935  0.62532261  0.20892412  1  -0.069859  0  -0.234304  -0.394936  0  3.97816  0
C  C158  1  0.37467868  0.37504098  0.29107325  1  -0.070218  0  -0.234465  -0.3951  0  3.978258  0
C  C159  1  0.37504188  0.37467915  0.20892526  1  -0.070299  0  -0.234399  -0.395005  0  3.978075  0
C  C160  1  0.37467669  0.62495763  0.70892765  1  -0.070374  0  -0.234339  -0.394998  0  3.97815  0
C  C161  1  0.37504055  0.62532039  0.79107419  1  -0.070495  0  -0.23445  -0.395059  0  3.978125  0
C  C162  1  0.62532007  0.37503820  0.70892558  1  -0.070169  0  -0.234488  -0.395127  0  3.978377  0
C  C163  1  0.62495964  0.37467576  0.79107183  1  -0.070402  0  -0.234309  -0.394951  0  3.978104  0
O  O164  1  0.49999600  0.49999989  0.00000150  1  -1.233846  0  -0.575975  -1.041427  0  2.554178  0
O  O165  1  0.54647730  0.63830715  0.01571105  1  -1.152823  0  -0.307961  -0.534844  0  2.309834  0
O  O166  1  0.36076241  0.52471243  0.97073705  1  -1.149134  0  -0.307129  -0.533372  0  2.316549  0
O  O167  1  0.47119124  0.45583624  0.08786938  1  -1.167955  0  -0.318112  -0.550186  0  2.335622  0
O  O168  1  0.45351754  0.63830419  0.98428615  1  -1.152597  0  -0.308088  -0.535081  0  2.309188  0
O  O169  1  0.52880506  0.54416808  0.08787002  1  -1.167955  0  -0.318057  -0.55016  0  2.335947  0
O  O170  1  0.36076886  0.47527689  0.02925955  1  -1.148883  0  -0.307298  -0.533601  0  2.31652  0
O  O171  1  0.45352427  0.36169186  0.01571738  1  -1.152591  0  -0.307915  -0.534823  0  2.309465  0
O  O172  1  0.63923756  0.47527847  0.97074227  1  -1.148857  0  -0.307218  -0.533537  0  2.316511  0
O  O173  1  0.54647861  0.36169379  0.98428692  1  -1.152793  0  -0.307993  -0.534843  0  2.30973  0
O  O174  1  0.63923490  0.52471901  0.02926467  1  -1.148922  0  -0.307344  -0.533678  0  2.315975  0
O  O175  1  0.47118768  0.54415523  0.91213002  1  -1.16798  0  -0.318297  -0.550438  0  2.334841  0
O  O176  1  0.52881097  0.45583141  0.91212743  1  -1.168004  0  -0.317976  -0.550076  0  2.33592  0
O  O177  1  0.50000255  0.49999716  0.49999965  1  -1.233874  0  -0.575907  -1.041477  0  2.554043  0
O  O178  1  0.36169331  0.45352213  0.48428753  1  -1.152634  0  -0.308003  -0.534909  0  2.309286  0
O  O179  1  0.47528154  0.63923923  0.52926041  1  -1.149032  0  -0.307224  -0.533503  0  2.316512  0
O  O180  1  0.54416789  0.52880532  0.41212823  1  -1.167923  0  -0.318069  -0.550178  0  2.335933  0
O  O181  1  0.36169330  0.54647737  0.51571400  1  -1.152776  0  -0.307993  -0.53499  0  2.309652  0
O  O182  1  0.45583801  0.47119050  0.41213089  1  -1.167852  0  -0.318115  -0.550236  0  2.335359  0
O  O183  1  0.52472302  0.63923624  0.47073795  1  -1.148852  0  -0.307332  -0.533663  0  2.316032  0
O  O184  1  0.63830870  0.54647714  0.48428808  1  -1.152773  0  -0.307904  -0.534751  0  2.309808  0
O  O185  1  0.52471220  0.36076648  0.52926590  1  -1.149112  0  -0.307235  -0.533453  0  2.316293  0
O  O186  1  0.63830797  0.45352220  0.51571682  1  -1.152878  0  -0.308021  -0.534943  0  2.30949  0
O  O187  1  0.47528142  0.36076984  0.47074159  1  -1.148897  0  -0.307278  -0.533508  0  2.316562  0
O  O188  1  0.45583175  0.52880278  0.58787088  1  -1.167958  0  -0.317982  -0.550052  0  2.335925  0
O  O189  1  0.54416239  0.47119145  0.58787091  1  -1.167885  0  -0.318063  -0.55014  0  2.335546  0
F  F190  1  0.26091284  0.60118125  0.97190957  1  -0.611245  0  -0.083272  -0.096459  0  1.367411  0
F  F191  1  0.13698862  0.60023698  0.97169956  1  -0.61643  0  -0.089534  -0.104182  0  1.356213  0
F  F192  1  0.26091030  0.39880270  0.02809434  1  -0.611503  0  -0.083293  -0.096655  0  1.367245  0
F  F193  1  0.13698006  0.39976746  0.02830914  1  -0.616436  0  -0.089368  -0.104034  0  1.356484  0
F  F194  1  0.06262645  0.50001387  0.93101112  1  -0.610338  0  -0.086991  -0.101162  0  1.355907  0
F  F195  1  0.93738082  0.49998036  0.93100987  1  -0.610292  0  -0.087019  -0.101125  0  1.35594  0
F  F196  1  0.06262151  0.49997139  0.06898856  1  -0.610239  0  -0.087046  -0.101175  0  1.355951  0
F  F197  1  0.93737589  0.50002535  0.06898789  1  -0.610233  0  -0.087071  -0.10123  0  1.355843  0
F  F198  1  0.86301736  0.39976365  0.97169356  1  -0.616418  0  -0.08945  -0.104126  0  1.356524  0
F  F199  1  0.73909129  0.39880827  0.97191213  1  -0.611362  0  -0.083273  -0.096481  0  1.367117  0
F  F200  1  0.86301816  0.60023723  0.02829982  1  -0.616437  0  -0.089449  -0.104127  0  1.356535  0
F  F201  1  0.73908931  0.60119411  0.02808836  1  -0.611411  0  -0.083331  -0.096612  0  1.367002  0
F  F202  1  0.54408789  0.26131339  0.93632555  1  -0.60872  0  -0.083617  -0.097309  0  1.366631  0
F  F203  1  0.54451580  0.13757829  0.93696384  1  -0.614183  0  -0.088602  -0.103271  0  1.359864  0
F  F204  1  0.45590499  0.26131887  0.06367111  1  -0.608769  0  -0.083646  -0.097299  0  1.366616  0
F  F205  1  0.45547998  0.13758145  0.06303818  1  -0.614218  0  -0.088607  -0.103301  0  1.360008  0
F  F206  1  0.60999106  0.06255735  0.99992449  1  -0.609336  0  -0.086474  -0.100262  0  1.356343  0
F  F207  1  0.60999025  0.93743913  0.00007210  1  -0.609261  0  -0.086499  -0.100249  0  1.356197  0
F  F208  1  0.39001007  0.06255649  0.00007551  1  -0.609245  0  -0.086493  -0.10029  0  1.356328  0
F  F209  1  0.39001374  0.93743846  0.99992215  1  -0.609229  0  -0.086565  -0.100271  0  1.356246  0
F  F210  1  0.54452441  0.86241615  0.06303356  1  -0.615063  0  -0.088509  -0.103093  0  1.359872  0
F  F211  1  0.54410448  0.73868013  0.06366720  1  -0.608695  0  -0.083623  -0.097256  0  1.366642  0
F  F212  1  0.45547938  0.86242247  0.93696244  1  -0.61381  0  -0.088545  -0.103187  0  1.36014  0
F  F213  1  0.45590452  0.73868552  0.93632543  1  -0.608813  0  -0.083568  -0.097352  0  1.366469  0
F  F214  1  0.39880913  0.73908753  0.52809027  1  -0.611427  0  -0.08336  -0.096592  0  1.367135  0
F  F215  1  0.39976497  0.86301793  0.52830856  1  -0.616429  0  -0.089402  -0.104032  0  1.356542  0
F  F216  1  0.60118969  0.73909125  0.47191108  1  -0.611271  0  -0.083267  -0.09648  0  1.367154  0
F  F217  1  0.60023281  0.86301609  0.47169470  1  -0.616365  0  -0.089422  -0.104078  0  1.356483  0
F  F218  1  0.49996629  0.93738150  0.56899052  1  -0.6103  0  -0.087038  -0.101195  0  1.356027  0
F  F219  1  0.50001414  0.06262597  0.56898861  1  -0.610313  0  -0.086965  -0.101093  0  1.355904  0
F  F220  1  0.50001087  0.93737530  0.43101156  1  -0.610263  0  -0.086974  -0.101126  0  1.356011  0
F  F221  1  0.49997125  0.06262116  0.43101139  1  -0.610225  0  -0.087053  -0.101209  0  1.355939  0
F  F222  1  0.60022785  0.13698638  0.52830279  1  -0.616266  0  -0.089479  -0.104084  0  1.356238  0
F  F223  1  0.60118277  0.26090984  0.52808989  1  -0.61117  0  -0.08334  -0.096584  0  1.367097  0
F  F224  1  0.39975867  0.13698028  0.47170067  1  -0.616486  0  -0.089306  -0.10395  0  1.356632  0
F  F225  1  0.39880086  0.26091253  0.47190881  1  -0.611561  0  -0.083262  -0.09657  0  1.367329  0
F  F226  1  0.73868871  0.45590503  0.56367406  1  -0.608745  0  -0.083518  -0.09726  0  1.36662  0
F  F227  1  0.86242180  0.45546924  0.56303562  1  -0.613863  0  -0.088549  -0.10322  0  1.359714  0
F  F228  1  0.73868570  0.54409042  0.43633020  1  -0.608562  0  -0.0836  -0.097238  0  1.366547  0
F  F229  1  0.86241555  0.54452053  0.43696879  1  -0.615231  0  -0.088562  -0.103142  0  1.359868  0
F  F230  1  0.93744323  0.39000859  0.50006923  1  -0.609295  0  -0.08649  -0.100204  0  1.356156  0
F  F231  1  0.06256297  0.39001618  0.49992007  1  -0.609125  0  -0.086642  -0.100331  0  1.3562  0
F  F232  1  0.93744029  0.60999203  0.49992794  1  -0.609299  0  -0.086495  -0.100197  0  1.356294  0
F  F233  1  0.06256281  0.60999453  0.50006828  1  -0.609221  0  -0.086498  -0.100272  0  1.356319  0
F  F234  1  0.13758180  0.45548154  0.43696642  1  -0.615003  0  -0.088475  -0.103107  0  1.359853  0
F  F235  1  0.26131766  0.45590747  0.43633117  1  -0.608554  0  -0.083559  -0.097192  0  1.366588  0
F  F236  1  0.13757488  0.54452336  0.56303851  1  -0.613957  0  -0.088537  -0.103116  0  1.359843  0
F  F237  1  0.26131351  0.54409268  0.56367739  1  -0.608931  0  -0.083543  -0.097287  0  1.366897  0
