# generated using pymatgen
data_AlH15C24(SO5)3
_symmetry_space_group_name_H-M   'P 1'
_cell_length_a   4.31254451
_cell_length_b   28.37700661
_cell_length_c   28.37626446
_cell_angle_alpha   119.99952564
_cell_angle_beta   90.00113916
_cell_angle_gamma   90.00180807
_symmetry_Int_Tables_number   1
_chemical_formula_structural   AlH15C24(SO5)3
_chemical_formula_sum   'Al2 H30 C48 S6 O30'
_cell_volume   3007.37857590
_cell_formula_units_Z   2
loop_
 _symmetry_equiv_pos_site_id
 _symmetry_equiv_pos_as_xyz
  1  'x, y, z'
loop_
 _atom_site_type_symbol
 _atom_site_label
 _atom_site_symmetry_multiplicity
 _atom_site_fract_x
 _atom_site_fract_y
 _atom_site_fract_z
 _atom_site_occupancy
 _atom_site_pbe_bader_charge
 _atom_site_pbe_bader_spin_density
 _atom_site_pbe_cm5_charge
 _atom_site_pbe_ddec_charge
 _atom_site_pbe_ddec_spin_density
 _atom_site_pbe_ddec_sum_bond_order
 _atom_site_pbe_magmom
Al  Al0  1  0.97301149  0.50000605  0.50000158  1  2.523232  0  0.463389  1.66116  0  2.463507  0
Al  Al1  1  0.97310769  0.16666136  0.83332847  1  2.52323  0  0.463365  1.661412  0  2.463305  0
H  H2  1  0.50967077  0.18002292  0.69766318  1  0.152546  0  0.115872  0.128196  0  0.97427  0
H  H3  1  0.55620442  0.23020804  0.64803965  1  0.118219  0  0.110475  0.108969  0  0.990317  0
H  H4  1  0.51586423  0.38199002  0.80058443  1  0.104226  0  0.116198  0.127214  0  0.985756  0
H  H5  1  0.51572758  0.28467373  0.53274495  1  0.103937  0  0.116188  0.127083  0  0.985959  0
H  H6  1  0.55632800  0.43645782  0.68528121  1  0.118171  0  0.11052  0.108873  0  0.99044  0
H  H7  1  0.50969624  0.48664194  0.63565796  1  0.152816  0  0.115854  0.128164  0  0.974237  0
H  H8  1  0.55646668  0.38685017  0.72163946  1  0.058912  0  0.104125  0.101367  0  1.00148  0
H  H9  1  0.55650168  0.27981556  0.61168859  1  0.058927  0  0.104124  0.101389  0  1.00145  0
H  H10  1  0.50965032  0.01764848  0.81997929  1  0.08631  0  0.115839  0.128108  0  0.974443  0
H  H11  1  0.55625602  0.91784269  0.76980030  1  0.07509  0  0.110443  0.108858  0  0.990333  0
H  H12  1  0.51577353  0.91858793  0.61800645  1  0.107026  0  0.116206  0.127176  0  0.985847  0
H  H13  1  0.51579233  0.74808171  0.71533463  1  0.106884  0  0.116169  0.12706  0  0.985907  0
H  H14  1  0.55630378  0.74882626  0.56354493  1  0.074931  0  0.110498  0.108929  0  0.990325  0
H  H15  1  0.50969119  0.64901997  0.51336293  1  0.086288  0  0.115872  0.128186  0  0.974257  0
H  H16  1  0.55643886  0.83478866  0.61315058  1  0.054117  0  0.104157  0.1015  0  1.001313  0
H  H17  1  0.55653601  0.83188141  0.72019211  1  0.053709  0  0.104101  0.101333  0  1.001527  0
H  H18  1  0.50962793  0.30232903  0.98234956  1  0.095095  0  0.115825  0.128092  0  0.974485  0
H  H19  1  0.55620549  0.35195524  0.08215946  1  0.070458  0  0.110488  0.10885  0  0.99036  0
H  H20  1  0.51589551  0.19941780  0.08140935  1  0.109032  0  0.116127  0.127128  0  0.985781  0
H  H21  1  0.51573278  0.46725104  0.25191837  1  0.108882  0  0.116151  0.127047  0  0.985878  0
H  H22  1  0.55632400  0.31472280  0.25117660  1  0.070782  0  0.11047  0.10877  0  0.990325  0
H  H23  1  0.50967647  0.36434598  0.35098539  1  0.095114  0  0.115882  0.128208  0  0.974211  0
H  H24  1  0.55648386  0.27836540  0.16521535  1  0.054956  0  0.10419  0.101454  0  1.001399  0
H  H25  1  0.55652098  0.38830816  0.16811745  1  0.054953  0  0.104126  0.101297  0  1.001546  0
H  H26  1  0.98186065  0.32478707  0.89226881  1  0.688743  0  0.316451  0.393307  0  0.953343  0
H  H27  1  0.98165198  0.34186158  0.44105265  1  0.688292  0  0.316373  0.393164  0  0.953557  0
H  H28  1  0.98167823  0.06745641  0.67518333  1  0.685515  0  0.31634  0.393055  0  0.953723  0
H  H29  1  0.98166512  0.59921082  0.65815549  1  0.68556  0  0.316243  0.392936  0  0.953872  0
H  H30  1  0.98181291  0.10773313  0.93252825  1  0.687017  0  0.316509  0.393474  0  0.953073  0
H  H31  1  0.98163480  0.55894700  0.40079133  1  0.686823  0  0.316238  0.39287  0  0.953963  0
C  C32  1  0.47453413  0.47097426  0.41926256  1  1.617103  0  0.277914  0.674777  0  4.075873  0
C  C33  1  0.47455520  0.44829714  0.52903107  1  1.61507  0  0.277935  0.674796  0  4.075452  0
C  C34  1  0.47458436  0.58074349  0.55171117  1  1.658509  0  0.277983  0.674879  0  4.075523  0
C  C35  1  0.47466065  0.21836172  0.80428777  1  1.617197  0  0.27801  0.674829  0  4.07541  0
C  C36  1  0.47459903  0.08592450  0.78163307  1  1.658744  0  0.277982  0.674873  0  4.07592  0
C  C37  1  0.47464462  0.19570432  0.91406827  1  1.61348  0  0.277943  0.674957  0  4.075229  0
C  C38  1  0.49837919  0.25178318  0.77698046  1  0.035243  0  0.001487  -0.025852  0  3.929068  0
C  C39  1  0.51779270  0.22438240  0.72000477  1  -0.050257  0  -0.073295  -0.083174  0  3.945379  0
C  C40  1  0.54408460  0.25300598  0.69233986  1  -0.139867  0  -0.073715  -0.106778  0  3.933008  0
C  C41  1  0.54819207  0.31037786  0.72044188  1  0.204722  0  -0.006028  0.117723  0  4.034016  0
C  C42  1  0.52576874  0.33767656  0.77750836  1  -0.058539  0  -0.074572  -0.129852  0  3.933854  0
C  C43  1  0.50170288  0.30888679  0.80525491  1  -0.262189  0  -0.016199  -0.126649  0  3.979911  0
C  C44  1  0.55776578  0.34286932  0.69376919  1  -0.107605  0  -0.087048  -0.129323  0  3.996159  0
C  C45  1  0.55776488  0.32379678  0.63955639  1  -0.011605  0  -0.087066  -0.129402  0  3.996138  0
C  C46  1  0.52566519  0.32898700  0.55581715  1  -0.057801  0  -0.074491  -0.129861  0  3.933502  0
C  C47  1  0.54817820  0.35628911  0.61288621  1  0.205205  0  -0.005932  0.117888  0  4.03371  0
C  C48  1  0.54412112  0.41366027  0.64098466  1  -0.139136  0  -0.073759  -0.106596  0  3.933002  0
C  C49  1  0.51779907  0.44227838  0.61331635  1  -0.050771  0  -0.073188  -0.083067  0  3.945008  0
C  C50  1  0.49830052  0.41487668  0.55634057  1  0.035345  0  0.001441  -0.02599  0  3.929028  0
C  C51  1  0.50158313  0.35777869  0.52806971  1  -0.262742  0  -0.016297  -0.126486  0  3.979805  0
C  C52  1  0.49831434  0.02519623  0.74821362  1  0.066842  0  0.001471  -0.026068  0  3.928905  0
C  C53  1  0.51777213  0.99562618  0.77561943  1  -0.011571  0  -0.073227  -0.082912  0  3.945185  0
C  C54  1  0.54409457  0.93934170  0.74699827  1  0.015978  0  -0.073736  -0.106759  0  3.932965  0
C  C55  1  0.54817352  0.91006568  0.68962405  1  -0.051877  0  -0.005952  0.117873  0  4.033898  0
C  C56  1  0.52570549  0.93982856  0.66232207  1  0.091302  0  -0.074591  -0.129988  0  3.933801  0
C  C57  1  0.50160915  0.99636445  0.69110837  1  -0.364749  0  -0.016256  -0.12639  0  3.979601  0
C  C58  1  0.55775819  0.85090425  0.65713545  1  -0.043456  0  -0.087044  -0.129439  0  3.996251  0
C  C59  1  0.55778825  0.81576704  0.67620886  1  0.055806  0  -0.087006  -0.129271  0  3.996443  0
C  C60  1  0.52572103  0.72683983  0.67102182  1  0.08889  0  -0.074468  -0.129729  0  3.933448  0
C  C61  1  0.54820095  0.75660423  0.64371726  1  -0.049578  0  -0.006062  0.117724  0  4.033842  0
C  C62  1  0.54412230  0.72732980  0.58634422  1  0.016923  0  -0.073751  -0.106699  0  3.93275  0
C  C63  1  0.51780528  0.67104421  0.55772727  1  -0.055136  0  -0.073227  -0.083076  0  3.94487  0
C  C64  1  0.49833522  0.64147195  0.58513079  1  0.110427  0  0.001384  -0.026154  0  3.928978  0
C  C65  1  0.50164627  0.67030144  0.64223060  1  -0.365767  0  -0.016268  -0.126487  0  3.979725  0
C  C66  1  0.49837293  0.22301636  0.97480022  1  0.121694  0  0.001417  -0.025951  0  3.928882  0
C  C67  1  0.51778867  0.27998910  0.00437063  1  0.006163  0  -0.073222  -0.083033  0  3.945218  0
C  C68  1  0.54408598  0.30765542  0.06065964  1  -0.061573  0  -0.073785  -0.106695  0  3.932997  0
C  C69  1  0.54821247  0.27955945  0.08993416  1  0.014799  0  -0.005996  0.117814  0  4.034034  0
C  C70  1  0.52578859  0.22249192  0.06016944  1  0.014011  0  -0.074455  -0.129753  0  3.933749  0
C  C71  1  0.50170109  0.19474531  0.00363371  1  -0.242338  0  -0.016141  -0.126542  0  3.979943  0
C  C72  1  0.55778888  0.30623306  0.14909908  1  -0.104496  0  -0.08707  -0.129424  0  3.996382  0
C  C73  1  0.55778290  0.36044247  0.18423528  1  -0.014169  0  -0.087019  -0.129197  0  3.996345  0
C  C74  1  0.52565631  0.44418308  0.27316565  1  0.014155  0  -0.074514  -0.129767  0  3.933455  0
C  C75  1  0.54817110  0.38711480  0.24339852  1  0.014434  0  -0.006066  0.11765  0  4.033586  0
C  C76  1  0.54410985  0.35901984  0.27267407  1  -0.061318  0  -0.073732  -0.106434  0  3.932797  0
C  C77  1  0.51778625  0.38668702  0.32896111  1  0.006483  0  -0.073191  -0.083135  0  3.94483  0
C  C78  1  0.49829286  0.44366014  0.35853094  1  0.121718  0  0.001397  -0.026089  0  3.928969  0
C  C79  1  0.50158199  0.47192792  0.32970208  1  -0.243042  0  -0.016256  -0.126384  0  3.979822  0
S  S80  1  0.42619244  0.34836535  0.87656624  1  3.142461  0  0.557495  1.188194  0  5.981234  0
S  S81  1  0.42597166  0.31828946  0.45676082  1  3.140723  0  0.557307  1.188093  0  5.981761  0
S  S82  1  0.42604008  0.02818472  0.65162099  1  3.137346  0  0.55702  1.187427  0  5.982273  0
S  S83  1  0.42602199  0.63848469  0.68172107  1  3.138351  0  0.556983  1.187592  0  5.982454  0
S  S84  1  0.42615676  0.12343715  0.97180760  1  3.127869  0  0.557361  1.18813  0  5.981046  0
S  S85  1  0.42597719  0.54323524  0.36151668  1  3.127845  0  0.556885  1.187244  0  5.982902  0
O  O86  1  0.70292027  0.55381754  0.55475049  1  -1.252538  0  -0.238551  -0.605725  0  2.356466  0
O  O87  1  0.70287520  0.50093985  0.44619084  1  -1.25832  0  -0.238393  -0.605654  0  2.356713  0
O  O88  1  0.70289839  0.44526053  0.49906648  1  -1.252114  0  -0.238485  -0.605721  0  2.356525  0
O  O89  1  0.23426995  0.56233448  0.52215918  1  -1.248851  0  -0.227773  -0.590677  0  2.372056  0
O  O90  1  0.23426235  0.47784904  0.54017479  1  -1.247447  0  -0.227866  -0.590746  0  2.371945  0
O  O91  1  0.23422129  0.45983177  0.43767043  1  -1.24763  0  -0.22785  -0.590716  0  2.371974  0
O  O92  1  0.70298521  0.16574381  0.88714764  1  -1.255569  0  -0.238463  -0.605713  0  2.356355  0
O  O93  1  0.70301999  0.22139840  0.83424809  1  -1.252695  0  -0.238625  -0.60571  0  2.356278  0
O  O94  1  0.70296796  0.11284308  0.77859059  1  -1.252547  0  -0.238501  -0.605678  0  2.356521  0
O  O95  1  0.23435952  0.20684475  0.89565659  1  -1.247666  0  -0.227872  -0.59103  0  2.372051  0
O  O96  1  0.23431782  0.10433699  0.81118558  1  -1.248993  0  -0.227834  -0.590767  0  2.37216  0
O  O97  1  0.23437411  0.18880779  0.79314515  1  -1.248277  0  -0.227861  -0.590852  0  2.371945  0
O  O98  1  0.70359982  0.35424431  0.90851675  1  -1.314444  0  -0.313733  -0.546844  0  2.293557  0
O  O99  1  0.27761543  0.39782817  0.88679358  1  -1.281829  0  -0.305178  -0.515458  0  2.110196  0
O  O100  1  0.21096584  0.31031670  0.88629277  1  -1.295717  0  -0.338413  -0.533176  0  2.307979  0
O  O101  1  0.70335739  0.31240262  0.42480209  1  -1.313276  0  -0.313611  -0.546604  0  2.293351  0
O  O102  1  0.27738999  0.26883813  0.44654717  1  -1.282447  0  -0.304949  -0.515223  0  2.111282  0
O  O103  1  0.21073313  0.35633369  0.44702971  1  -1.294547  0  -0.338508  -0.533459  0  2.307551  0
O  O104  1  0.70339374  0.05425573  0.64573044  1  -1.313886  0  -0.313538  -0.546333  0  2.293748  0
O  O105  1  0.27743327  0.98893861  0.60216019  1  -1.28862  0  -0.30491  -0.515237  0  2.110609  0
O  O106  1  0.21079643  0.07595477  0.68966123  1  -1.292885  0  -0.33829  -0.533016  0  2.308016  0
O  O107  1  0.70337796  0.61241183  0.68761147  1  -1.313826  0  -0.313616  -0.546545  0  2.293643  0
O  O108  1  0.27745113  0.67772753  0.73117644  1  -1.288921  0  -0.30479  -0.515044  0  2.111075  0
O  O109  1  0.21074255  0.59071405  0.64367806  1  -1.293182  0  -0.3382  -0.532942  0  2.307958  0
O  O110  1  0.70353785  0.09148563  0.94573948  1  -1.317559  0  -0.31363  -0.546708  0  2.293519  0
O  O111  1  0.27756325  0.11321603  0.01104818  1  -1.279695  0  -0.305126  -0.515523  0  2.11013  0
O  O112  1  0.21092006  0.11370569  0.92403034  1  -1.292116  0  -0.338527  -0.533411  0  2.30753  0
O  O113  1  0.70334516  0.57519800  0.38758636  1  -1.317481  0  -0.31347  -0.546236  0  2.293907  0
O  O114  1  0.27736968  0.55344219  0.32226880  1  -1.279712  0  -0.304827  -0.515049  0  2.11127  0
O  O115  1  0.21073254  0.55296865  0.40929005  1  -1.292258  0  -0.33821  -0.532893  0  2.307969  0
