# generated using pymatgen
data_CoH18C26(NO3)2
_symmetry_space_group_name_H-M   'P 1'
_cell_length_a   7.63138802
_cell_length_b   11.32299802
_cell_length_c   13.29441859
_cell_angle_alpha   82.79081967
_cell_angle_beta   81.90218260
_cell_angle_gamma   72.47599210
_symmetry_Int_Tables_number   1
_chemical_formula_structural   CoH18C26(NO3)2
_chemical_formula_sum   'Co2 H36 C52 N4 O12'
_cell_volume   1080.32958017
_cell_formula_units_Z   2
loop_
 _symmetry_equiv_pos_site_id
 _symmetry_equiv_pos_as_xyz
  1  'x, y, z'
loop_
 _atom_site_type_symbol
 _atom_site_label
 _atom_site_symmetry_multiplicity
 _atom_site_fract_x
 _atom_site_fract_y
 _atom_site_fract_z
 _atom_site_occupancy
 _atom_site_pbe_bader_charge
 _atom_site_pbe_bader_spin_density
 _atom_site_pbe_cm5_charge
 _atom_site_pbe_ddec_charge
 _atom_site_pbe_ddec_spin_density
 _atom_site_pbe_ddec_sum_bond_order
 _atom_site_pbe_magmom
Co  Co0  1  0.68040408  0.38740316  0.99057217  1  1.309802  2.596921  0.688918  0.939298  2.828434  2.467519  2.58
Co  Co1  1  0.30009280  0.63091635  0.00980840  1  1.184936  0.975301  0.680189  0.782979  1.058717  2.855375  0.967
H  H2  1  0.95328044  0.35213441  0.85332961  1  0.6437  0.000583  0.282482  0.366094  0.000586  0.988331  0.001
H  H3  1  0.03627585  0.64811751  0.14379058  1  0.629172  -0.000208  0.28391  0.362218  -0.000161  0.993709  0.0
H  H4  1  0.05327866  0.35374607  0.95502247  1  0.646343  0.00064  0.293647  0.394095  0.000463  0.940066  0.001
H  H5  1  0.93521523  0.65227107  0.04126910  1  0.651387  0.000364  0.291363  0.387027  0.000302  0.953672  0.0
H  H6  1  0.73914371  0.56046303  0.13817615  1  0.121662  0.003029  0.121522  0.087367  0.00115  1.038765  0.002
H  H7  1  0.27334736  0.43958793  0.87603895  1  0.169554  -3.1e-05  0.124943  0.094233  -0.000209  1.049266  0.0
H  H8  1  0.87130234  0.53032644  0.30611519  1  0.102367  0.001249  0.108976  0.119382  0.00058  1.001392  0.001
H  H9  1  0.14247137  0.46202558  0.70935696  1  0.101432  -3e-05  0.109466  0.11922  4.3e-05  1.003414  0.0
H  H10  1  0.97738101  0.31472035  0.39187673  1  0.084602  -0.000136  0.108485  0.108792  -0.000215  0.99222  0.0
H  H11  1  0.03307737  0.67282213  0.61670951  1  0.08048  -0.000204  0.108571  0.110952  -0.000276  0.989106  0.0
H  H12  1  0.01813035  0.08210534  0.38647959  1  0.069769  0.000416  0.105461  0.110283  0.000177  0.992281  0.0
H  H13  1  0.99036736  0.91047740  0.61599420  1  0.062868  -9.3e-05  0.106134  0.110824  -6.5e-05  0.993206  0.0
H  H14  1  0.97740304  0.91392788  0.29763655  1  0.086881  0.000323  0.1016  0.107538  0.00014  1.044033  0.0
H  H15  1  0.02607161  0.08237337  0.70208296  1  0.116735  8e-06  0.102641  0.108684  -3e-06  1.045876  0.0
H  H16  1  0.86723812  0.84903229  0.14786746  1  0.097229  -0.000151  0.109955  0.113606  -0.00035  1.022683  0.0
H  H17  1  0.13286726  0.15222642  0.85420534  1  0.136279  -0.000118  0.111155  0.118512  -0.000422  1.018535  0.0
H  H18  1  0.72255322  0.91194100  0.98547600  1  0.156135  0.000781  0.103194  0.115703  0.000385  1.061935  0.001
H  H19  1  0.27305086  0.08908646  0.01791739  1  0.113821  0.000193  0.103868  0.113164  0.000165  1.052338  0.0
H  H20  1  0.63726212  0.13880992  0.91820384  1  0.110524  0.001845  0.1167  0.086781  0.000422  1.012613  0.001
H  H21  1  0.34804958  0.86537573  0.08966616  1  0.128083  0.000257  0.119746  0.091306  -0.000224  1.017376  0.0
H  H22  1  0.39849424  0.26558553  0.80002861  1  0.091966  0.000173  0.106958  0.108364  5.5e-05  1.020637  0.0
H  H23  1  0.60090162  0.73606799  0.19276850  1  0.110789  0.00017  0.107563  0.108644  9.2e-05  1.023135  0.0
H  H24  1  0.23330177  0.20921054  0.67155611  1  0.115888  -1.4e-05  0.106352  0.126104  -1.8e-05  1.027949  0.0
H  H25  1  0.76306484  0.79175622  0.32277418  1  0.126577  -1.5e-05  0.106756  0.125459  -4e-06  1.02777  0.0
H  H26  1  0.70740260  0.18950139  0.44973941  1  0.120932  7.4e-05  0.097739  0.107128  -1.1e-05  1.071006  0.0
H  H27  1  0.29487466  0.79658285  0.54595198  1  0.075386  -9.7e-05  0.098814  0.107994  -0.000113  1.066165  0.0
H  H28  1  0.86920303  0.25005145  0.57807775  1  0.078352  -0.0  0.101965  0.101527  -2.3e-05  1.010695  0.0
H  H29  1  0.13629982  0.73614797  0.41642883  1  0.075793  -1.7e-05  0.103109  0.104084  -8e-06  1.006309  0.0
H  H30  1  0.33511375  0.11327733  0.15917582  1  0.061743  -1.2e-05  0.101663  0.098367  -2.9e-05  1.022864  0.0
H  H31  1  0.66518721  0.89727143  0.83119888  1  0.067266  9.1e-05  0.101908  0.100353  8e-06  1.014806  0.0
H  H32  1  0.36992521  0.03118328  0.34069954  1  0.099212  7e-06  0.10246  0.117575  0.0  1.024681  0.0
H  H33  1  0.63116467  0.97077157  0.64788061  1  0.089232  4.5e-05  0.101259  0.115559  7e-06  1.032955  0.0
H  H34  1  0.39999223  0.38663918  0.40823434  1  0.083116  -2e-06  0.105178  0.12269  -1.2e-05  0.998819  0.0
H  H35  1  0.60029070  0.61061584  0.59324861  1  0.084134  -1e-05  0.10449  0.12135  -3.2e-05  0.998379  0.0
H  H36  1  0.38497538  0.46242393  0.22440538  1  0.125747  -9.3e-05  0.106573  0.111591  -0.00019  1.043138  0.0
H  H37  1  0.61711840  0.54268552  0.77824371  1  0.125562  -0.000147  0.106113  0.111545  -0.000359  1.04285  0.0
C  C38  1  0.78872056  0.46880194  0.17783201  1  0.521942  -0.007607  0.066066  0.136492  -0.008257  3.892065  -0.005
C  C39  1  0.22234239  0.52979909  0.83459676  1  0.488024  -0.013051  0.064442  0.123383  -0.014105  3.851778  -0.008
C  C40  1  0.85985621  0.45047739  0.27243443  1  -0.032  0.004201  -0.079677  -0.116913  0.001829  3.94731  0.004
C  C41  1  0.15160064  0.54432254  0.74020581  1  -0.036181  -0.000264  -0.077198  -0.109832  -0.001095  3.944557  0.0
C  C42  1  0.91827348  0.33150493  0.31953251  1  0.000276  -0.011562  -0.065109  -0.077972  -0.012278  3.937958  -0.007
C  C43  1  0.09114286  0.66084059  0.68898940  1  -0.005341  -0.014309  -0.068228  -0.088198  -0.015063  3.940225  -0.009
C  C44  1  0.90381912  0.23036492  0.27225725  1  0.018183  0.003239  -0.002195  0.042046  0.00142  4.017406  0.003
C  C45  1  0.10188655  0.76525765  0.73304506  1  -0.077832  -0.00022  -0.000294  0.04893  -0.000679  4.023066  0.001
C  C46  1  0.95748584  0.10346266  0.31441731  1  -0.090946  0.001793  -0.086249  -0.123256  0.000951  4.003464  0.001
C  C47  1  0.04840930  0.89138940  0.68878360  1  0.023829  0.000818  -0.084432  -0.122311  0.000404  3.988697  0.0
C  C48  1  0.93546102  0.01037420  0.26561915  1  -0.015269  0.001208  -0.085794  -0.122833  0.000644  3.968117  0.001
C  C49  1  0.06735304  0.98681094  0.73617800  1  -0.079174  -0.000125  -0.084421  -0.121759  -0.000138  3.957331  0.0
C  C50  1  0.85788588  0.03674224  0.17038887  1  -0.023014  0.003652  -0.002695  0.048179  0.001555  4.012224  0.004
C  C51  1  0.13971869  0.96431537  0.83283371  1  0.069171  0.001822  0.000587  0.057076  0.000351  4.018186  0.002
C  C52  1  0.82652190  0.94598895  0.11734973  1  -0.012073  -0.018721  -0.065822  -0.06998  -0.019806  3.903383  -0.011
C  C53  1  0.17018904  0.05562037  0.88559755  1  -0.021028  -0.023313  -0.069544  -0.08045  -0.024456  3.905037  -0.014
C  C54  1  0.74694138  0.98169579  0.02687727  1  -0.075935  0.006565  -0.088765  -0.135392  0.002889  3.971897  0.006
C  C55  1  0.24672824  0.01956378  0.97709655  1  -0.103884  0.003644  -0.087187  -0.131287  0.000977  3.979412  0.004
C  C56  1  0.70096602  0.10732069  0.98889627  1  0.502838  -0.014096  0.052821  0.111008  -0.014561  3.936436  -0.008
C  C57  1  0.28763643  0.89506759  0.01804233  1  0.472276  -0.018977  0.048632  0.094693  -0.019915  3.904965  -0.011
C  C58  1  0.80770267  0.16093911  0.12590204  1  0.474112  -0.007746  0.115292  0.120163  -0.008786  3.996697  -0.005
C  C59  1  0.18660510  0.84126925  0.87877478  1  0.446047  -0.010269  0.111537  0.108016  -0.010898  4.007786  -0.006
C  C60  1  0.83146919  0.25778460  0.17695254  1  0.471229  -0.005065  0.119277  0.126595  -0.006242  3.984012  -0.003
C  C61  1  0.17044129  0.74291424  0.82887369  1  0.439757  -0.007336  0.114535  0.112739  -0.007905  3.991413  -0.004
C  C62  1  0.73592467  0.30465923  0.77208129  1  1.557011  -0.000696  0.205899  0.563633  -0.001203  4.209866  0.0
C  C63  1  0.26368773  0.69288659  0.22070081  1  1.530031  -0.003101  0.210558  0.549564  -0.004096  4.193666  -0.002
C  C64  1  0.64298458  0.26314346  0.69663521  1  -0.027729  0.004105  -0.030436  -0.065784  0.002124  3.997082  0.003
C  C65  1  0.35958167  0.73023327  0.29687959  1  -0.071045  -0.000711  -0.030785  -0.068455  -0.001014  4.00097  0.0
C  C66  1  0.46511696  0.24923114  0.72292725  1  -0.040836  -0.000278  -0.083118  -0.075001  -0.000488  3.983151  0.0
C  C67  1  0.53503661  0.74823244  0.27049662  1  -0.035948  -0.000804  -0.08308  -0.075672  -0.000879  3.98308  0.0
C  C68  1  0.37336744  0.21677282  0.65210901  1  -0.016798  8.5e-05  -0.100855  -0.202855  -3.1e-05  3.97857  0.0
C  C69  1  0.62501961  0.78064162  0.34212094  1  0.004378  0.000242  -0.100905  -0.204347  5.1e-05  3.979652  0.0
C  C70  1  0.46202832  0.19681336  0.55374072  1  0.336055  -0.000259  0.085795  0.263968  -0.000285  4.046347  0.0
C  C71  1  0.53778336  0.79694701  0.44128247  1  0.354962  -0.000915  0.088156  0.268225  -0.000935  4.042834  -0.001
C  C72  1  0.64096348  0.20717705  0.52650065  1  -0.03918  0.000583  -0.108304  -0.217418  0.000239  4.018474  0.0
C  C73  1  0.36128960  0.78194666  0.46873805  1  -0.008119  0.000167  -0.107315  -0.215362  -2.5e-05  4.008897  0.0
C  C74  1  0.73021060  0.24044164  0.59792148  1  -0.029625  0.000839  -0.086603  -0.076035  0.000267  4.002707  0.001
C  C75  1  0.27371881  0.74851757  0.39655238  1  -0.015119  -0.001129  -0.085185  -0.074468  -0.001156  3.998528  -0.001
C  C76  1  0.32646233  0.34604768  0.07301768  1  1.526285  0.012861  0.226124  0.597968  0.0079  4.133724  0.01
C  C77  1  0.67265756  0.66761628  0.92474953  1  1.548204  0.022196  0.222114  0.600679  0.01462  4.152368  0.018
C  C78  1  0.35421393  0.29454103  0.18052633  1  0.038196  -9.9e-05  -0.028373  -0.075241  -0.000705  4.002247  0.0
C  C79  1  0.64531298  0.71442594  0.81619620  1  -0.04391  0.000932  -0.027654  -0.073821  -8.9e-05  3.999939  0.0
C  C80  1  0.35197125  0.17241202  0.21343186  1  -0.0039  0.001893  -0.082314  -0.06593  0.000905  3.997498  0.001
C  C81  1  0.64764133  0.83545036  0.77938054  1  0.039302  0.003909  -0.083523  -0.069728  0.001884  4.002962  0.002
C  C82  1  0.36989757  0.12624433  0.31453243  1  -0.02726  -0.000443  -0.103646  -0.202657  -0.00048  3.995133  0.0
C  C83  1  0.63024300  0.87676970  0.67727732  1  -0.029752  -0.000837  -0.104293  -0.201267  -0.000914  3.997239  -0.001
C  C84  1  0.38132660  0.20482176  0.38493388  1  0.35366  0.00149  0.083641  0.257606  0.000779  4.044931  0.001
C  C85  1  0.61794767  0.79462093  0.61021366  1  0.347288  0.003398  0.081854  0.253474  0.001778  4.047878  0.002
C  C86  1  0.38803949  0.32628789  0.35340856  1  -0.017921  -0.000536  -0.10673  -0.216477  -0.00058  4.001521  0.0
C  C87  1  0.61179472  0.67400617  0.64562915  1  -0.033474  -0.001045  -0.107272  -0.21601  -0.001139  4.004625  -0.001
C  C88  1  0.37778352  0.36913838  0.25107163  1  -0.071999  0.001464  -0.082152  -0.058766  0.000581  3.967296  0.001
C  C89  1  0.62252425  0.63571342  0.74879686  1  -0.022841  0.00293  -0.082285  -0.059566  0.001327  3.962811  0.002
N  N90  1  0.77664037  0.37495889  0.13073188  1  -1.217804  0.06526  -0.322232  -0.277984  0.034803  3.574705  0.054
N  N91  1  0.23026865  0.62729969  0.87916263  1  -1.157344  -0.01817  -0.331709  -0.218228  -0.017568  3.624412  -0.012
N  N92  1  0.73153535  0.19537980  0.03629838  1  -1.223831  0.061265  -0.321352  -0.304771  0.032505  3.597422  0.056
N  N93  1  0.25546224  0.80631226  0.97122096  1  -1.173746  0.003087  -0.331949  -0.249654  0.001021  3.647323  0.004
O  O94  1  0.63137384  0.34611229  0.85207252  1  -1.170097  0.069313  -0.313735  -0.562887  0.036647  2.392109  0.058
O  O95  1  0.36784817  0.65504428  0.13862963  1  -1.106391  -0.009892  -0.300219  -0.506436  -0.009567  2.459792  -0.008
O  O96  1  0.90645414  0.29770411  0.75297785  1  -1.187086  0.002108  -0.323491  -0.56301  0.000242  2.173628  0.002
O  O97  1  0.09397177  0.69961195  0.24078172  1  -1.186186  -0.002062  -0.315944  -0.55139  -0.002101  2.198242  -0.002
O  O98  1  0.37051038  0.15927655  0.48665125  1  -1.090081  0.00042  -0.156962  -0.217775  0.000202  2.548961  0.0
O  O99  1  0.62866834  0.83601844  0.50737681  1  -1.106692  0.000608  -0.155707  -0.215978  0.000232  2.558283  0.0
O  O100  1  0.24458531  0.29830594  0.02133202  1  -1.174884  0.019478  -0.297192  -0.521113  0.009401  2.171846  0.016
O  O101  1  0.75775377  0.71745087  0.97335536  1  -1.172562  0.030663  -0.306208  -0.53623  0.014758  2.183493  0.025
O  O102  1  0.39614656  0.43778565  0.03791681  1  -1.15567  0.061457  -0.321419  -0.58093  0.03294  2.530706  0.048
O  O103  1  0.60166577  0.57918056  0.96327593  1  -1.174847  0.087488  -0.318732  -0.586655  0.046382  2.527634  0.066
O  O104  1  0.94183109  0.39131552  0.91875491  1  -1.258513  0.062894  -0.578272  -0.771516  0.032505  2.199413  0.054
O  O105  1  0.04600689  0.61021311  0.07813223  1  -1.234651  0.064472  -0.571593  -0.741233  0.033323  2.198452  0.055
