# generated using pymatgen
data_InH9(C2O)6
_symmetry_space_group_name_H-M   'P 1'
_cell_length_a   5.95422592
_cell_length_b   7.50867682
_cell_length_c   12.42753037
_cell_angle_alpha   89.98394492
_cell_angle_beta   89.33045999
_cell_angle_gamma   90.00290412
_symmetry_Int_Tables_number   1
_chemical_formula_structural   InH9(C2O)6
_chemical_formula_sum   'In2 H18 C24 O12'
_cell_volume   555.57652037
_cell_formula_units_Z   2
loop_
 _symmetry_equiv_pos_site_id
 _symmetry_equiv_pos_as_xyz
  1  'x, y, z'
loop_
 _atom_site_type_symbol
 _atom_site_label
 _atom_site_symmetry_multiplicity
 _atom_site_fract_x
 _atom_site_fract_y
 _atom_site_fract_z
 _atom_site_occupancy
 _atom_site_hle17_bader_spin_density
 _atom_site_hle17_ddec_charge
 _atom_site_hle17_ddec_spin_density
 _atom_site_hle17_ddec_sum_bond_order
 _atom_site_hle17_magmom
 _atom_site_hse06_10hf_bader_spin_density
 _atom_site_hse06_10hf_ddec_charge
 _atom_site_hse06_10hf_ddec_spin_density
 _atom_site_hse06_10hf_ddec_sum_bond_order
 _atom_site_hse06_10hf_magmom
 _atom_site_hse06_bader_spin_density
 _atom_site_hse06_ddec_charge
 _atom_site_hse06_ddec_spin_density
 _atom_site_hse06_ddec_sum_bond_order
 _atom_site_hse06_magmom
 _atom_site_pbe_bader_spin_density
 _atom_site_pbe_cm5_charge
 _atom_site_pbe_ddec_charge
 _atom_site_pbe_ddec_spin_density
 _atom_site_pbe_ddec_sum_bond_order
 _atom_site_pbe_magmom
In  In0  1  0.00048491  0.83372020  0.49764894  1  0  1.744013  0  2.128805  0  0  1.568964  0  2.590211  0  0  1.636903  0  2.532404  0  0  0.748762  1.52156  0  2.629183  0
In  In1  1  0.50046819  0.16631335  0.49765848  1  0  1.744399  0  2.128389  0  0  1.569355  0  2.589795  0  0  1.637293  0  2.531983  0  0  0.748933  1.521946  0  2.628768  0
H  H2  1  0.59140893  0.66553714  0.27028360  1  0  0.109695  0  0.938211  0  0  0.118789  0  0.998526  0  0  0.122441  0  0.995832  0  0  0.108838  0.116149  0  1.000533  0
H  H3  1  0.11061422  0.33667751  0.72744134  1  0  0.103509  0  0.948666  0  0  0.11337  0  1.009176  0  0  0.116808  0  1.006735  0  0  0.104966  0.110881  0  1.011014  0
H  H4  1  0.09096212  0.33429398  0.27026637  1  0  0.109571  0  0.938028  0  0  0.118818  0  0.998153  0  0  0.122467  0  0.99545  0  0  0.108911  0.116177  0  1.000164  0
H  H5  1  0.61020605  0.66356036  0.72745572  1  0  0.103013  0  0.948867  0  0  0.113206  0  1.009106  0  0  0.11665  0  1.006595  0  0  0.10492  0.110713  0  1.010972  0
H  H6  1  0.79467117  0.60739155  0.09827642  1  0  0.09269  0  0.977512  0  0  0.101582  0  1.043401  0  0  0.103465  0  1.044886  0  0  0.098472  0.100013  0  1.042954  0
H  H7  1  0.30066525  0.39418259  0.89978412  1  0  0.093966  0  0.975551  0  0  0.102586  0  1.041551  0  0  0.104537  0  1.042887  0  0  0.099088  0.101028  0  1.041143  0
H  H8  1  0.29451605  0.39257236  0.09833435  1  0  0.092785  0  0.977914  0  0  0.101884  0  1.043459  0  0  0.103781  0  1.044938  0  0  0.098717  0.100292  0  1.043084  0
H  H9  1  0.80055829  0.60597062  0.89972477  1  0  0.094006  0  0.975012  0  0  0.102798  0  1.040817  0  0  0.104719  0  1.042247  0  0  0.09904  0.101234  0  1.040418  0
H  H10  1  0.02584703  0.87394836  0.09916877  1  0  0.10765  0  0.954318  0  0  0.116307  0  1.020095  0  0  0.119036  0  1.019245  0  0  0.10693  0.114057  0  1.021351  0
H  H11  1  0.53267464  0.12641819  0.89530304  1  0  0.107624  0  0.953287  0  0  0.116089  0  1.019203  0  0  0.118799  0  1.018208  0  0  0.106754  0.113917  0  1.020435  0
H  H12  1  0.52567224  0.12598276  0.09898137  1  0  0.107426  0  0.95456  0  0  0.116188  0  1.020187  0  0  0.118952  0  1.019297  0  0  0.106838  0.113938  0  1.021439  0
H  H13  1  0.03249688  0.87361268  0.89547621  1  0  0.1077  0  0.953245  0  0  0.116247  0  1.019029  0  0  0.118946  0  1.018063  0  0  0.106875  0.114081  0  1.020262  0
H  H14  1  0.06227078  0.16850366  0.54214016  1  0  0.425246  0  0.874688  0  0  0.393594  0  0.94067  0  0  0.405083  0  0.923955  0  0  0.298974  0.385426  0  0.952551  0
H  H15  1  0.56213990  0.83125005  0.54178179  1  0  0.425514  0  0.87421  0  0  0.393841  0  0.940232  0  0  0.40531  0  0.923545  0  0  0.299203  0.385689  0  0.952085  0
H  H16  1  0.85669307  0.47672835  0.56223172  1  0  0.447281  0  0.843743  0  0  0.415435  0  0.907372  0  0  0.42683  0  0.890802  0  0  0.312238  0.407377  0  0.919093  0
H  H17  1  0.33499174  0.51321260  0.43870408  1  0  0.45147  0  0.83619  0  0  0.421329  0  0.897141  0  0  0.432998  0  0.880112  0  0  0.315554  0.413052  0  0.909227  0
H  H18  1  0.35638785  0.52305765  0.56247740  1  0  0.447395  0  0.843598  0  0  0.415523  0  0.907213  0  0  0.426907  0  0.890656  0  0  0.312252  0.407481  0  0.918914  0
H  H19  1  0.83462688  0.48704262  0.43850842  1  0  0.451308  0  0.83625  0  0  0.421132  0  0.897219  0  0  0.432803  0  0.880198  0  0  0.315353  0.412822  0  0.90935  0
C  C20  1  0.17068393  0.78505200  0.29744714  1  0  0.647366  0  3.879104  0  0  0.597389  0  4.168148  0  0  0.63267  0  4.161483  0  0  0.223365  0.573551  0  4.171773  0
C  C21  1  0.69248913  0.21611328  0.69700140  1  0  0.650839  0  3.877789  0  0  0.599653  0  4.167092  0  0  0.6349  0  4.159956  0  0  0.222895  0.575864  0  4.171027  0
C  C22  1  0.67019022  0.21479013  0.29729831  1  0  0.648067  0  3.879698  0  0  0.598065  0  4.168776  0  0  0.633354  0  4.162106  0  0  0.223708  0.574245  0  4.172375  0
C  C23  1  0.19203247  0.78397658  0.69712415  1  0  0.650476  0  3.878424  0  0  0.599193  0  4.167735  0  0  0.634452  0  4.160636  0  0  0.222777  0.575395  0  4.171651  0
C  C24  1  0.29295814  0.76703092  0.19344658  1  0  -0.057865  0  3.763772  0  0  -0.035739  0  4.002487  0  0  -0.044809  0  4.02419  0  0  -0.012159  -0.029919  0  3.987662  0
C  C25  1  0.80692947  0.23232916  0.80186060  1  0  -0.064539  0  3.764756  0  0  -0.043222  0  4.005524  0  0  -0.05286  0  4.027993  0  0  -0.016153  -0.037012  0  3.990141  0
C  C26  1  0.79267161  0.23285397  0.19334392  1  0  -0.05724  0  3.76328  0  0  -0.035258  0  4.00227  0  0  -0.044341  0  4.02397  0  0  -0.012104  -0.029442  0  3.987434  0
C  C27  1  0.30659974  0.76776865  0.80195764  1  0  -0.065555  0  3.765854  0  0  -0.043581  0  4.005892  0  0  -0.053323  0  4.028492  0  0  -0.016349  -0.037312  0  3.990422  0
C  C28  1  0.51332159  0.69459395  0.19351649  1  0  -0.039963  0  3.699315  0  0  -0.070164  0  3.956071  0  0  -0.068034  0  3.973839  0  0  -0.075486  -0.071198  0  3.943729  0
C  C29  1  0.02687580  0.30555193  0.80337832  1  0  -0.049185  0  3.713965  0  0  -0.079464  0  3.97139  0  0  -0.077746  0  3.990018  0  0  -0.081384  -0.080218  0  3.958501  0
C  C30  1  0.01301428  0.30528330  0.19347655  1  0  -0.040223  0  3.699459  0  0  -0.070539  0  3.956352  0  0  -0.068389  0  3.974102  0  0  -0.07582  -0.071565  0  3.944002  0
C  C31  1  0.52655829  0.69459487  0.80342165  1  0  -0.047553  0  3.714137  0  0  -0.078354  0  3.971412  0  0  -0.076567  0  3.990034  0  0  -0.081119  -0.079134  0  3.958514  0
C  C32  1  0.62634817  0.66454862  0.09823112  1  0  -0.122727  0  3.746427  0  0  -0.139283  0  3.99833  0  0  -0.144357  0  4.020341  0  0  -0.088579  -0.136031  0  3.983793  0
C  C33  1  0.13294688  0.33603319  0.89915731  1  0  -0.119494  0  3.7473  0  0  -0.135554  0  3.998945  0  0  -0.140293  0  4.020534  0  0  -0.089312  -0.132593  0  3.984716  0
C  C34  1  0.12622375  0.33542301  0.09822567  1  0  -0.122714  0  3.745482  0  0  -0.139378  0  3.99751  0  0  -0.144467  0  4.019496  0  0  -0.088671  -0.136144  0  3.982987  0
C  C35  1  0.63279085  0.66408404  0.89915801  1  0  -0.119836  0  3.747297  0  0  -0.136123  0  3.999139  0  0  -0.140878  0  4.020705  0  0  -0.089218  -0.133155  0  3.98491  0
C  C36  1  0.52434140  0.70347375  0.99844583  1  0  0.063447  0  3.784547  0  0  0.078359  0  4.007024  0  0  0.080942  0  4.030307  0  0  -0.001432  0.077008  0  3.990986  0
C  C37  1  0.02433748  0.29654882  0.99840817  1  0  0.063448  0  3.784648  0  0  0.078259  0  4.007283  0  0  0.080844  0  4.030562  0  0  -0.001504  0.076909  0  3.991241  0
C  C38  1  0.30361405  0.78191457  0.99779142  1  0  0.036575  0  3.781078  0  0  0.055917  0  4.011468  0  0  0.052056  0  4.035497  0  0  -0.006756  0.058337  0  3.994857  0
C  C39  1  0.80364570  0.21809725  0.99768722  1  0  0.036504  0  3.7818  0  0  0.055712  0  4.012327  0  0  0.051839  0  4.036377  0  0  -0.006817  0.05814  0  3.995704  0
C  C40  1  0.19305285  0.81482725  0.09757182  1  0  -0.090983  0  3.665999  0  0  -0.123864  0  3.914368  0  0  -0.121185  0  3.932438  0  0  -0.069873  -0.12525  0  3.902349  0
C  C41  1  0.69996351  0.18523980  0.89741805  1  0  -0.087412  0  3.66196  0  0  -0.119465  0  3.910203  0  0  -0.116295  0  3.928041  0  0  -0.069722  -0.12118  0  3.898294  0
C  C42  1  0.69288791  0.18509952  0.09743849  1  0  -0.090876  0  3.665222  0  0  -0.12365  0  3.91344  0  0  -0.121008  0  3.931531  0  0  -0.069487  -0.125019  0  3.901388  0
C  C43  1  0.19978079  0.81480105  0.89755076  1  0  -0.087472  0  3.661979  0  0  -0.119871  0  3.910199  0  0  -0.116673  0  3.928066  0  0  -0.06996  -0.121605  0  3.898266  0
O  O44  1  0.15930896  0.08467693  0.50262365  1  0  -0.985156  0  1.810879  0  0  -0.906424  0  2.066559  0  0  -0.938433  0  2.035548  0  0  -0.530489  -0.884141  0  2.087495  0
O  O45  1  0.65933887  0.91537960  0.50260671  1  0  -0.985131  0  1.810768  0  0  -0.906523  0  2.066603  0  0  -0.938515  0  2.035589  0  0  -0.530569  -0.884253  0  2.087538  0
O  O46  1  0.98391626  0.86468271  0.30644611  1  0  -0.598805  0  1.922247  0  0  -0.541958  0  2.147223  0  0  -0.569755  0  2.141179  0  0  -0.277035  -0.522684  0  2.150726  0
O  O47  1  0.49354618  0.15754004  0.68910214  1  0  -0.610378  0  1.940586  0  0  -0.553646  0  2.170148  0  0  -0.581716  0  2.163855  0  0  -0.281507  -0.534268  0  2.173833  0
O  O48  1  0.48357931  0.13495392  0.30628857  1  0  -0.599026  0  1.922435  0  0  -0.542385  0  2.147575  0  0  -0.570174  0  2.14155  0  0  -0.277364  -0.523127  0  2.151075  0
O  O49  1  0.99322213  0.84277629  0.68922034  1  0  -0.610155  0  1.94013  0  0  -0.553675  0  2.169931  0  0  -0.581737  0  2.163655  0  0  -0.28162  -0.534305  0  2.173611  0
O  O50  1  0.26012673  0.71510090  0.38239034  1  0  -0.683866  0  2.046508  0  0  -0.615197  0  2.282928  0  0  -0.645518  0  2.272772  0  0  -0.297322  -0.594033  0  2.289067  0
O  O51  1  0.79909163  0.26770468  0.61065333  1  0  -0.709489  0  2.079488  0  0  -0.633373  0  2.306763  0  0  -0.662794  0  2.295522  0  0  -0.298378  -0.612785  0  2.313701  0
O  O52  1  0.75941613  0.28496225  0.38221627  1  0  -0.684744  0  2.046986  0  0  -0.615822  0  2.283339  0  0  -0.646127  0  2.27311  0  0  -0.297543  -0.59464  0  2.289477  0
O  O53  1  0.29845861  0.73218225  0.61078153  1  0  -0.709341  0  2.07947  0  0  -0.633136  0  2.306786  0  0  -0.662487  0  2.2954  0  0  -0.298281  -0.612561  0  2.313739  0
O  O54  1  0.84893055  0.56497156  0.50275842  1  0  -0.86144  0  1.917331  0  0  -0.801745  0  2.122559  0  0  -0.823433  0  2.085921  0  0  -0.551003  -0.786627  0  2.148119  0
O  O55  1  0.34903066  0.43505279  0.50290643  1  0  -0.861818  0  1.917187  0  0  -0.802192  0  2.122651  0  0  -0.823869  0  2.086046  0  0  -0.551344  -0.78708  0  2.148075  0
