# generated using pymatgen
data_Zn4H30C30N6O13
_symmetry_space_group_name_H-M   'P 1'
_cell_length_a   15.39773920
_cell_length_b   15.65537280
_cell_length_c   17.11202538
_cell_angle_alpha   64.25578034
_cell_angle_beta   63.58767111
_cell_angle_gamma   62.14673863
_symmetry_Int_Tables_number   1
_chemical_formula_structural   Zn4H30C30N6O13
_chemical_formula_sum   'Zn8 H60 C60 N12 O26'
_cell_volume   3129.88359095
_cell_formula_units_Z   2
loop_
 _symmetry_equiv_pos_site_id
 _symmetry_equiv_pos_as_xyz
  1  'x, y, z'
loop_
 _atom_site_type_symbol
 _atom_site_label
 _atom_site_symmetry_multiplicity
 _atom_site_fract_x
 _atom_site_fract_y
 _atom_site_fract_z
 _atom_site_occupancy
 _atom_site_pbe_bader_charge
 _atom_site_pbe_bader_spin_density
 _atom_site_pbe_cm5_charge
 _atom_site_pbe_ddec_charge
 _atom_site_pbe_ddec_spin_density
 _atom_site_pbe_ddec_sum_bond_order
 _atom_site_pbe_magmom
Zn  Zn0  1  0.02751002  0.02996268  0.08077760  1  1.321406  0  0.677937  0.99042  0  2.256465  0
Zn  Zn1  1  0.83185884  0.02974042  0.04330067  1  1.321675  0  0.686136  0.988578  0  2.321835  0
Zn  Zn2  1  0.03406383  0.82531320  0.05445035  1  1.319167  0  0.680943  0.990645  0  2.276735  0
Zn  Zn3  1  0.03436195  0.02000929  0.90392608  1  1.286883  0  0.661711  0.901091  0  2.530866  0
Zn  Zn4  1  0.39448078  0.40785037  0.51989881  1  1.303911  0  0.669463  0.93823  0  2.435196  0
Zn  Zn5  1  0.61638476  0.39899558  0.48072115  1  1.326001  0  0.682961  0.991155  0  2.29206  0
Zn  Zn6  1  0.43635795  0.40728896  0.68020556  1  1.306819  0  0.670618  0.963401  0  2.351613  0
Zn  Zn7  1  0.41519818  0.60334680  0.50129494  1  1.321668  0  0.68385  0.986974  0  2.338376  0
H  H8  1  0.96996200  0.85181153  0.30128905  1  0.384056  0  0.274605  0.260028  0  0.989548  0
H  H9  1  0.88801134  0.94312731  0.34682854  1  0.374822  0  0.274633  0.256017  0  1.006635  0
H  H10  1  0.77405752  0.83267669  0.43715429  1  0.031158  0  0.094331  0.063703  0  0.995445  0
H  H11  1  0.85696250  0.76859750  0.35308815  1  0.048626  0  0.106255  0.086665  0  0.958731  0
H  H12  1  0.81261624  0.93192277  0.23305186  1  0.000991  0  0.097343  0.036655  0  1.017542  0
H  H13  1  0.65952321  0.91711960  0.25305654  1  0.392624  0  0.279182  0.270258  0  0.968901  0
H  H14  1  0.63846733  0.86003668  0.36394169  1  0.4559  0  0.25992  0.246233  0  1.078846  0
H  H15  1  0.58774048  0.95912568  0.44591404  1  0.081061  0  0.103658  0.10361  0  1.033653  0
H  H16  1  0.50740022  0.10962395  0.50278376  1  0.116921  0  0.110129  0.116527  0  0.987697  0
H  H17  1  0.72488156  0.24322550  0.27778461  1  0.10243  0  0.111043  0.12242  0  0.984325  0
H  H18  1  0.39433472  0.93928543  0.94815164  1  0.395993  0  0.28939  0.273608  0  0.949593  0
H  H19  1  0.42588394  0.85769390  0.03926899  1  0.379586  0  0.280421  0.258137  0  0.985745  0
H  H20  1  0.53676959  0.73178726  0.94963817  1  0.020345  0  0.095791  0.063132  0  0.99879  0
H  H21  1  0.47284773  0.82034423  0.86791076  1  0.070049  0  0.102955  0.080889  0  0.990763  0
H  H22  1  0.30540760  0.80860580  0.97830599  1  0.0254  0  0.101073  0.052584  0  0.994867  0
H  H23  1  0.34237401  0.64058877  0.98343077  1  0.39676  0  0.286474  0.276667  0  0.956068  0
H  H24  1  0.46592197  0.61156413  0.96398684  1  0.391523  0  0.279648  0.261816  0  0.989013  0
H  H25  1  0.51129505  0.59417455  0.07634212  1  0.086455  0  0.102378  0.096114  0  1.028831  0
H  H26  1  0.49263437  0.52314843  0.24109298  1  0.081832  0  0.109348  0.113433  0  0.98628  0
H  H27  1  0.20079378  0.75975243  0.29770768  1  0.104306  0  0.112811  0.122521  0  0.980309  0
H  H28  1  0.73168977  0.43507561  0.00983056  1  0.380414  0  0.283793  0.268848  0  0.965037  0
H  H29  1  0.79013908  0.51464452  0.93289524  1  0.370949  0  0.277334  0.261125  0  0.989721  0
H  H30  1  0.74027210  0.51779763  0.81651514  1  -0.001056  0  0.09685  0.066157  0  0.993578  0
H  H31  1  0.67554154  0.43317649  0.89885614  1  0.047293  0  0.104497  0.084117  0  0.958989  0
H  H32  1  0.83455528  0.30006929  0.92175621  1  0.028171  0  0.105795  0.062574  0  0.965921  0
H  H33  1  0.89260993  0.26987095  0.78058572  1  0.40478  0  0.280085  0.276191  0  0.976255  0
H  H34  1  0.83856075  0.38886325  0.72993878  1  0.373454  0  0.278291  0.261679  0  0.98336  0
H  H35  1  0.89203142  0.52715494  0.73477905  1  0.061744  0  0.103517  0.102116  0  1.004052  0
H  H36  1  0.06549590  0.54182514  0.66050803  1  0.094702  0  0.111197  0.116299  0  0.979502  0
H  H37  1  0.18300792  0.26320507  0.85203048  1  0.067341  0  0.112589  0.121499  0  0.981123  0
H  H38  1  0.91488426  0.63577231  0.90308900  1  0.362775  0  0.274813  0.256449  0  0.99231  0
H  H39  1  0.93227704  0.71801554  0.92458626  1  0.384119  0  0.275792  0.258316  0  0.986918  0
H  H40  1  0.73192124  0.72072825  0.94111019  1  0.019711  0  0.095513  0.068749  0  0.979932  0
H  H41  1  0.79256692  0.80742853  0.85194473  1  0.039218  0  0.082109  0.043389  0  1.032213  0
H  H42  1  0.79116868  0.86570116  0.96629471  1  0.007971  0  0.100557  0.050096  0  0.982464  0
H  H43  1  0.61578298  0.96869527  0.98555983  1  0.389679  0  0.281462  0.273388  0  0.963477  0
H  H44  1  0.59020789  0.89435579  0.95983111  1  0.412033  0  0.256783  0.239567  0  1.076182  0
H  H45  1  0.58768795  0.74511800  0.07634031  1  0.036922  0  0.099459  0.096618  0  1.031404  0
H  H46  1  0.53847601  0.65220590  0.23837913  1  0.065472  0  0.092223  0.086128  0  1.066126  0
H  H47  1  0.77959676  0.68622726  0.27406571  1  0.087268  0  0.10449  0.108546  0  1.012093  0
H  H48  1  0.85012926  0.92273577  0.49165510  1  0.401402  0  0.271516  0.262749  0  1.0128  0
H  H49  1  0.79473677  0.04615331  0.46783450  1  0.397447  0  0.273894  0.257972  0  0.989962  0
H  H50  1  0.73955091  0.89800113  0.64443871  1  0.005916  0  0.096247  0.06606  0  0.971953  0
H  H51  1  0.65888222  0.97250197  0.57390490  1  0.015268  0  0.078331  0.034353  0  1.045399  0
H  H52  1  0.64456426  0.12764381  0.58762194  1  0.043984  0  0.103851  0.059089  0  0.971841  0
H  H53  1  0.52612418  0.10702476  0.73015412  1  0.37132  0  0.277563  0.2683  0  0.98027  0
H  H54  1  0.58986233  0.98886667  0.76857667  1  0.39555  0  0.277057  0.267649  0  0.984401  0
H  H55  1  0.84207521  0.90969958  0.68537244  1  0.055802  0  0.103208  0.104245  0  1.01507  0
H  H56  1  0.92485325  0.90991333  0.78083843  1  0.099864  0  0.104447  0.104078  0  0.994211  0
H  H57  1  0.71895028  0.21149234  0.78654932  1  0.116596  0  0.106851  0.114648  0  1.003682  0
H  H58  1  0.53205629  0.76209547  0.45534720  1  0.430614  0  0.279603  0.275202  0  0.989518  0
H  H59  1  0.47587198  0.83899069  0.51883253  1  0.395396  0  0.283625  0.264448  0  0.972362  0
H  H60  1  0.63689944  0.77667757  0.55536011  1  0.015099  0  0.095621  0.058658  0  0.996463  0
H  H61  1  0.68539610  0.68753462  0.49657875  1  0.052406  0  0.107802  0.087773  0  0.961875  0
H  H62  1  0.55756091  0.60900539  0.60323313  1  0.025207  0  0.106704  0.057659  0  0.976703  0
H  H63  1  0.61948715  0.53772409  0.72646328  1  0.40506  0  0.284943  0.274663  0  0.967619  0
H  H64  1  0.64459079  0.63630899  0.70826452  1  0.377925  0  0.277201  0.257258  0  0.991483  0
H  H65  1  0.51755869  0.82589310  0.67446652  1  0.05842  0  0.103423  0.10246  0  1.005929  0
H  H66  1  0.35368147  0.90728313  0.77823691  1  0.10262  0  0.108539  0.111368  0  0.996389  0
H  H67  1  0.22758833  0.69354635  0.81582136  1  0.107545  0  0.111789  0.119961  0  0.981198  0
C  C68  1  0.82514037  0.84184850  0.36629721  1  0.307276  0  -0.073134  -0.012364  0  3.941736  0
C  C69  1  0.75818005  0.91825600  0.30225436  1  0.399914  0  -0.004539  0.108833  0  3.941027  0
C  C70  1  0.70081774  0.01614339  0.32879656  1  -0.0638  0  0.00086  0.047904  0  3.893193  0
C  C71  1  0.61736869  0.02177138  0.40870599  1  -0.066887  0  -0.088458  -0.128631  0  3.980923  0
C  C72  1  0.57228104  0.10530849  0.44071630  1  0.036203  0  -0.077039  -0.07581  0  3.96646  0
C  C73  1  0.61322577  0.18383077  0.39530454  1  -0.075035  0  -0.023137  -0.0529  0  4.007344  0
C  C74  1  0.69461799  0.18114990  0.31379078  1  -0.034424  0  -0.078525  -0.110027  0  3.945257  0
C  C75  1  0.73505676  0.09964810  0.27927537  1  0.007793  0  -0.017453  -0.087634  0  3.973712  0
C  C76  1  0.81373153  0.09834681  0.18731319  1  1.562247  0  0.230887  0.626012  0  4.156784  0
C  C77  1  0.57020460  0.26836643  0.43487845  1  1.513025  0  0.222656  0.59873  0  4.165696  0
C  C78  1  0.46404464  0.79328020  0.94103951  1  0.280434  0  -0.072543  -0.021673  0  3.948169  0
C  C79  1  0.37642370  0.74806253  0.99177208  1  0.358506  0  -0.004818  0.103968  0  3.934198  0
C  C80  1  0.36155250  0.71119910  0.09343150  1  0.000558  0  -0.007692  0.025453  0  3.934148  0
C  C81  1  0.44158098  0.62929587  0.12473223  1  -0.063708  0  -0.089325  -0.125215  0  4.006718  0
C  C82  1  0.43276339  0.59030311  0.21655857  1  -0.04041  0  -0.082147  -0.090885  0  3.995847  0
C  C83  1  0.34738877  0.63914016  0.27877810  1  -0.013814  0  -0.014504  -0.027407  0  3.993028  0
C  C84  1  0.26818287  0.72309742  0.24898253  1  -0.059914  0  -0.077271  -0.114643  0  3.931593  0
C  C85  1  0.27291969  0.75566844  0.15717333  1  -0.007886  0  -0.013109  -0.073786  0  3.948467  0
C  C86  1  0.17635393  0.82746519  0.13044649  1  1.565436  0  0.232751  0.621264  0  4.154562  0
C  C87  1  0.34817777  0.59400556  0.37526285  1  1.531008  0  0.228683  0.609252  0  4.154595  0
C  C88  1  0.74242731  0.45477008  0.87957856  1  0.334837  0  -0.075279  -0.019219  0  3.978797  0
C  C89  1  0.83888535  0.36308415  0.85879542  1  0.347881  0  -0.006148  0.097803  0  3.932431  0
C  C90  1  0.94008803  0.38041508  0.82890712  1  0.015142  0  -0.002156  0.036709  0  3.915388  0
C  C91  1  0.95550327  0.46824516  0.76074740  1  -0.069794  0  -0.093111  -0.137458  0  4.007945  0
C  C92  1  0.05241107  0.47805295  0.71948325  1  -0.060306  0  -0.080182  -0.085979  0  3.983742  0
C  C93  1  0.13496339  0.40394485  0.75212704  1  0.037956  0  -0.017767  -0.034065  0  3.99991  0
C  C94  1  0.11897408  0.32128380  0.82662114  1  0.040855  0  -0.073055  -0.101464  0  3.928111  0
C  C95  1  0.02404302  0.30698968  0.86123234  1  -0.052333  0  -0.015812  -0.080158  0  3.956321  0
C  C96  1  0.02548705  0.20154840  0.91499011  1  1.569692  0  0.230948  0.6135  0  4.156621  0
C  C97  1  0.24194566  0.40407115  0.69846989  1  1.522633  0  0.227605  0.607407  0  4.165128  0
C  C98  1  0.78446591  0.76029200  0.92336747  1  0.31319  0  -0.077257  -0.010439  0  3.957729  0
C  C99  1  0.73347438  0.83322626  0.98163474  1  0.360019  0  0.00199  0.130513  0  3.900223  0
C  C100  1  0.70664011  0.77597826  0.08275506  1  0.077225  0  -0.002097  0.043355  0  3.896532  0
C  C101  1  0.62918691  0.73384690  0.11967267  1  -0.08232  0  -0.094266  -0.128319  0  4.008524  0
C  C102  1  0.60246314  0.67965512  0.21067626  1  -0.065112  0  -0.094307  -0.104077  0  4.009572  0
C  C103  1  0.65815004  0.65906675  0.26678117  1  -0.044299  0  -0.018975  -0.029894  0  3.974313  0
C  C104  1  0.73770459  0.69770025  0.23122334  1  0.051508  0  -0.077824  -0.103898  0  3.940272  0
C  C105  1  0.75830632  0.75972170  0.14095461  1  0.008495  0  -0.01125  -0.070254  0  3.918614  0
C  C106  1  0.82840966  0.81766731  0.11036518  1  1.538292  0  0.240021  0.633378  0  4.123211  0
C  C107  1  0.62186712  0.59907161  0.36379734  1  1.558493  0  0.239796  0.635611  0  4.107175  0
C  C108  1  0.71895507  0.97134512  0.59342155  1  0.317583  0  -0.079559  -0.011038  0  3.992282  0
C  C109  1  0.66766397  0.05555647  0.63906951  1  0.321959  0  0.000169  0.120382  0  3.888815  0
C  C110  1  0.73490288  0.06119077  0.67906668  1  0.026046  0  0.006203  0.055232  0  3.88676  0
C  C111  1  0.81505806  0.97625175  0.70683904  1  -0.0214  0  -0.086783  -0.126722  0  4.006682  0
C  C112  1  0.86118763  0.97565601  0.76083231  1  0.005841  0  -0.078211  -0.076095  0  3.970782  0
C  C113  1  0.82249658  0.05815785  0.79394390  1  -0.044737  0  -0.020735  -0.03865  0  4.008912  0
C  C114  1  0.74548448  0.14552943  0.76415333  1  -0.01942  0  -0.076712  -0.104423  0  3.934925  0
C  C115  1  0.70713752  0.14854582  0.70262238  1  -0.06158  0  -0.014481  -0.07932  0  3.954076  0
C  C116  1  0.63771272  0.24793762  0.66040327  1  1.581859  0  0.235895  0.630804  0  4.144466  0
C  C117  1  0.86491888  0.05076431  0.85980214  1  1.524055  0  0.223324  0.601032  0  4.149139  0
C  C118  1  0.61394174  0.73231890  0.53718399  1  0.322901  0  -0.071972  -0.023639  0  3.965729  0
C  C119  1  0.56830703  0.65966485  0.62435420  1  0.343875  0  -0.004317  0.106509  0  3.929786  0
C  C120  1  0.46504999  0.71514982  0.68205762  1  -0.056294  0  -0.002663  0.030554  0  3.929534  0
C  C121  1  0.45398641  0.79703687  0.70387854  1  -0.00703  0  -0.092332  -0.139502  0  4.010738  0
C  C122  1  0.36298012  0.84234592  0.76292767  1  -0.056244  0  -0.077058  -0.075743  0  3.984706  0
C  C123  1  0.28331429  0.80181670  0.80676177  1  -0.021788  0  -0.017235  -0.034409  0  4.008195  0
C  C124  1  0.29125416  0.72244797  0.78395883  1  0.00537  0  -0.072802  -0.100095  0  3.937327  0
C  C125  1  0.37979925  0.68300430  0.71890606  1  0.00418  0  -0.013767  -0.070496  0  3.96679  0
C  C126  1  0.38354433  0.61039536  0.68156356  1  1.563722  0  0.233084  0.623213  0  4.166002  0
C  C127  1  0.19211849  0.84448635  0.87716856  1  1.518583  0  0.22445  0.601692  0  4.145525  0
N  N128  1  0.90978061  0.86742748  0.35743438  1  -1.1079  0  -0.649965  -0.626267  0  3.220318  0
N  N129  1  0.69486734  0.87240909  0.30247605  1  -1.158909  0  -0.637526  -0.641512  0  3.257191  0
N  N130  1  0.45065262  0.87532965  0.96972479  1  -1.099827  0  -0.625714  -0.592347  0  3.228089  0
N  N131  1  0.40054767  0.66977328  0.95274778  1  -1.092174  0  -0.626713  -0.629597  0  3.201829  0
N  N132  1  0.72994834  0.49190984  0.95031942  1  -1.096737  0  -0.642306  -0.622754  0  3.211956  0
N  N133  1  0.83216362  0.33410876  0.79106342  1  -1.067395  0  -0.629625  -0.631996  0  3.159835  0
N  N134  1  0.88068321  0.68451381  0.94135149  1  -1.094251  0  -0.645732  -0.623195  0  3.238336  0
N  N135  1  0.64778527  0.91691566  0.95073096  1  -1.112704  0  -0.639189  -0.649972  0  3.22438  0
N  N136  1  0.81227557  0.98182444  0.51897534  1  -1.127351  0  -0.646826  -0.618936  0  3.22897  0
N  N137  1  0.57160678  0.04216335  0.71128497  1  -1.048554  0  -0.63422  -0.647423  0  3.129108  0
N  N138  1  0.54569155  0.80139306  0.48086419  1  -1.140133  0  -0.625524  -0.590103  0  3.251706  0
N  N139  1  0.64340568  0.59530430  0.67591452  1  -1.098225  0  -0.632615  -0.642827  0  3.155527  0
O  O140  1  0.97742739  0.97066606  0.03677671  1  -1.233777  0  -0.582995  -1.042441  0  2.550452  0
O  O141  1  0.78004316  0.11325308  0.12461975  1  -1.177634  0  -0.325716  -0.564482  0  2.292681  0
O  O142  1  0.90631367  0.08078081  0.17963895  1  -1.162631  0  -0.309712  -0.540258  0  2.283982  0
O  O143  1  0.62311053  0.32506015  0.40624886  1  -1.162815  0  -0.317572  -0.557099  0  2.293998  0
O  O144  1  0.48222073  0.27740785  0.49691666  1  -1.176242  0  -0.320516  -0.547336  0  2.312319  0
O  O145  1  0.13007149  0.78323054  0.12291941  1  -1.176424  0  -0.314894  -0.551258  0  2.303467  0
O  O146  1  0.14815295  0.92152709  0.12030174  1  -1.157613  0  -0.312922  -0.547449  0  2.26645  0
O  O147  1  0.33229400  0.65032971  0.42000535  1  -1.160667  0  -0.31946  -0.55099  0  2.264885  0
O  O148  1  0.37136291  0.49851226  0.40321917  1  -1.14147  0  -0.312143  -0.536656  0  2.339535  0
O  O149  1  0.00399830  0.16268265  0.87649198  1  -1.165714  0  -0.308904  -0.537306  0  2.382396  0
O  O150  1  0.05315243  0.15652745  0.98673285  1  -1.176278  0  -0.30959  -0.542918  0  2.265626  0
O  O151  1  0.30662837  0.37560723  0.73972630  1  -1.169183  0  -0.314282  -0.5439  0  2.285327  0
O  O152  1  0.26037134  0.43030624  0.61221830  1  -1.164156  0  -0.315461  -0.544592  0  2.340276  0
O  O153  1  0.78474694  0.91347519  0.09035726  1  -1.17114  0  -0.312252  -0.562928  0  2.345574  0
O  O154  1  0.92314282  0.76901341  0.10726449  1  -1.161547  0  -0.311544  -0.540587  0  2.2715  0
O  O155  1  0.67360457  0.50549559  0.38842228  1  -1.165651  0  -0.309487  -0.537136  0  2.266907  0
O  O156  1  0.53639703  0.64645059  0.41339645  1  -1.18836  0  -0.316003  -0.573542  0  2.32918  0
O  O157  1  0.54882075  0.28488020  0.71284355  1  -1.168307  0  -0.313134  -0.541979  0  2.305124  0
O  O158  1  0.67562764  0.28754413  0.57577181  1  -1.182046  0  -0.313504  -0.552763  0  2.308633  0
O  O159  1  0.96132008  0.99994000  0.84853098  1  -1.176649  0  -0.324287  -0.553979  0  2.332597  0
O  O160  1  0.80484270  0.09250661  0.92407894  1  -1.160867  0  -0.314777  -0.542761  0  2.271855  0
O  O161  1  0.41184685  0.51700494  0.72374130  1  -1.15644  0  -0.306313  -0.528045  0  2.288882  0
O  O162  1  0.35843258  0.65130098  0.60824914  1  -1.169267  0  -0.320022  -0.558038  0  2.30731  0
O  O163  1  0.17718599  0.93414956  0.87322806  1  -1.169745  0  -0.329347  -0.557453  0  2.332891  0
O  O164  1  0.13547441  0.79168578  0.93723461  1  -1.169172  0  -0.312151  -0.54839  0  2.255336  0
O  O165  1  0.47161219  0.45716094  0.54708907  1  -1.232874  0  -0.578947  -1.043516  0  2.552187  0
