# generated using pymatgen
data_Zn2H10C27Br2(N4Cl)2
_symmetry_space_group_name_H-M   'P 1'
_cell_length_a   18.57553355
_cell_length_b   18.84619745
_cell_length_c   18.77765272
_cell_angle_alpha   103.61194374
_cell_angle_beta   109.83677639
_cell_angle_gamma   110.14520061
_symmetry_Int_Tables_number   1
_chemical_formula_structural   Zn2H10C27Br2(N4Cl)2
_chemical_formula_sum   'Zn4 H20 C54 Br4 N16 Cl4'
_cell_volume   5323.59493840
_cell_formula_units_Z   2
loop_
 _symmetry_equiv_pos_site_id
 _symmetry_equiv_pos_as_xyz
  1  'x, y, z'
loop_
 _atom_site_type_symbol
 _atom_site_label
 _atom_site_symmetry_multiplicity
 _atom_site_fract_x
 _atom_site_fract_y
 _atom_site_fract_z
 _atom_site_occupancy
 _atom_site_pbe_bader_charge
 _atom_site_pbe_bader_spin_density
 _atom_site_pbe_cm5_charge
 _atom_site_pbe_ddec_charge
 _atom_site_pbe_ddec_spin_density
 _atom_site_pbe_ddec_sum_bond_order
 _atom_site_pbe_magmom
Br  Br0  1  0.43545504  0.08348350  0.16586232  1  -0.055144  0  -0.002634  -0.081956  0  1.467636  0
Br  Br1  1  0.42682732  0.15568185  0.03176923  1  -0.069153  0  0.00312  -0.082551  0  1.461751  0
Br  Br2  1  0.31027176  0.89436241  0.03529139  1  -0.065849  0  0.003816  -0.082291  0  1.458257  0
Br  Br3  1  0.25300591  0.98157167  0.92149378  1  -0.051039  0  -0.001389  -0.081336  0  1.463266  0
C  C4  1  0.95786704  0.44232961  0.25933302  1  0.632159  0  0.12247  0.191199  0  4.063153  0
C  C5  1  0.96344643  0.25839624  0.45271225  1  0.602474  0  0.122335  0.189609  0  4.060955  0
C  C6  1  0.10008812  0.73526254  0.43565814  1  0.450881  0  0.021615  -0.043933  0  3.948893  0
C  C7  1  0.10199962  0.43951767  0.73860848  1  0.451373  0  0.021773  -0.0437  0  3.950354  0
C  C8  1  0.96006285  0.39011413  0.68886045  1  0.459302  0  0.023382  -0.038301  0  3.952776  0
C  C9  1  0.95806489  0.68544109  0.38522364  1  0.456774  0  0.024253  -0.040162  0  3.950471  0
C  C10  1  0.84846651  0.57789542  0.57787291  1  0.156028  0  -0.023571  0.03246  0  4.189347  0
C  C11  1  0.20233722  0.72682419  0.72653149  1  0.140047  0  -0.023684  0.058124  0  4.170552  0
C  C12  1  0.03370197  0.75777551  0.40913921  1  0.131536  0  -0.025535  0.03331  0  4.21104  0
C  C13  1  0.03533100  0.41360839  0.76128172  1  0.084816  0  -0.027163  0.030782  0  4.209662  0
C  C14  1  0.52035270  0.98244283  0.06758777  1  -0.016073  0  -0.16225  -0.195425  0  3.859343  0
C  C15  1  0.52380311  0.06397434  0.98086361  1  -0.03419  0  -0.161902  -0.190037  0  3.857465  0
C  C16  1  0.43715907  0.99888129  0.90597444  1  -0.032203  0  -0.162101  -0.19479  0  3.86011  0
C  C17  1  0.45514494  0.91023921  0.98345493  1  -0.048235  0  -0.162138  -0.190194  0  3.855479  0
C  C18  1  0.26155334  0.79901762  0.79866279  1  -0.504465  0  -0.057688  -0.100623  0  4.163505  0
C  C19  1  0.52050961  0.06341103  0.06247412  1  0.137824  0  -0.007303  0.144806  0  3.881387  0
C  C20  1  0.38797453  0.93315801  0.93185337  1  0.133525  0  -0.00852  0.140731  0  3.87985  0
C  C21  1  0.09791212  0.33344181  0.47859142  1  0.436781  0  0.021536  -0.024974  0  3.920699  0
C  C22  1  0.09414804  0.47415541  0.33457908  1  0.438376  0  0.021723  -0.024174  0  3.920901  0
C  C23  1  0.35505575  0.97367007  0.98850317  1  0.002445  0  0.015815  0.102164  0  3.474576  0
C  C24  1  0.43280509  0.06053002  0.05700629  1  0.006644  0  0.017412  0.102634  0  3.463077  0
C  C25  1  0.31719228  0.86065073  0.85998327  1  0.177279  0  -0.063857  -0.12535  0  4.126863  0
C  C26  1  0.59290393  0.13563196  0.13325706  1  0.181478  0  -0.068396  -0.136654  0  4.125336  0
C  C27  1  0.64838488  0.19770582  0.19413670  1  -0.556091  0  -0.057447  -0.093001  0  4.173586  0
C  C28  1  0.04488772  0.17866836  0.43671309  1  -0.010355  0  -0.030507  -0.05363  0  4.087509  0
C  C29  1  0.03988966  0.42838559  0.17914813  1  -0.098525  0  -0.031745  -0.055013  0  4.086545  0
C  C30  1  0.04628795  0.11225883  0.42612760  1  -0.1429  0  -0.040023  -0.048588  0  4.319892  0
C  C31  1  0.04218540  0.41988718  0.11303314  1  -0.105349  0  -0.040405  -0.048625  0  4.320044  0
C  C32  1  0.04725736  0.04005232  0.41771884  1  -0.101998  0  -0.025488  -0.018336  0  4.240556  0
C  C33  1  0.04426804  0.41429360  0.04135277  1  -0.025011  0  -0.025134  -0.019005  0  4.239255  0
C  C34  1  0.04634455  0.97309529  0.41273097  1  0.03401  0  -0.023253  -0.01147  0  4.243499  0
C  C35  1  0.04467599  0.41222126  0.97516055  1  -0.042886  0  -0.023935  -0.01116  0  4.243301  0
C  C36  1  0.04379662  0.90043963  0.40951222  1  -0.11445  0  -0.045618  -0.060565  0  4.334169  0
C  C37  1  0.04343749  0.41151293  0.90322928  1  -0.037502  0  -0.046461  -0.061418  0  4.334803  0
C  C38  1  0.30987643  0.61106877  0.53458232  1  0.615065  0  0.117049  0.181079  0  4.108559  0
C  C39  1  0.31089867  0.53794969  0.61016687  1  0.589914  0  0.118091  0.184086  0  4.104447  0
C  C40  1  0.04030094  0.83376898  0.40845897  1  -0.094049  0  -0.026134  -0.059185  0  4.076968  0
C  C41  1  0.04111043  0.41212467  0.83708777  1  -0.124412  0  -0.024958  -0.05803  0  4.077245  0
C  C42  1  0.79170081  0.59993415  0.59944617  1  -0.313852  0  -0.018717  -0.043788  0  4.05274  0
C  C43  1  0.73234542  0.60934259  0.60818908  1  0.128644  0  -0.044867  -0.066224  0  4.320347  0
C  C44  1  0.66230266  0.61267166  0.61077811  1  -0.100434  0  -0.019283  -0.002221  0  4.235518  0
C  C45  1  0.59400358  0.61045843  0.60799739  1  0.024975  0  -0.026344  -0.024593  0  4.232249  0
C  C46  1  0.51749930  0.60384336  0.60099967  1  -0.298681  0  -0.036763  -0.038022  0  4.310745  0
C  C47  1  0.44568152  0.59497913  0.59195385  1  0.137587  0  -0.039531  -0.055703  0  4.115512  0
C  C48  1  0.75639779  0.27366384  0.34527566  1  0.444433  0  0.013034  -0.037889  0  3.959538  0
C  C49  1  0.74505607  0.35161670  0.27510899  1  0.428554  0  0.013819  -0.044162  0  3.972788  0
C  C50  1  0.03197781  0.44436740  0.25189108  1  0.160159  0  -0.025801  -0.021664  0  4.188612  0
C  C51  1  0.03704147  0.25112081  0.45287344  1  0.149854  0  -0.027303  -0.024133  0  4.191136  0
C  C52  1  0.36346538  0.58284516  0.58027835  1  0.213984  0  -0.031884  -0.083452  0  4.192492  0
C  C53  1  0.71127460  0.26892438  0.26576122  1  0.163998  0  -0.027757  0.055184  0  4.173388  0
C  C54  1  0.87932960  0.59718644  0.52220226  1  0.398544  0  0.022958  -0.032831  0  3.917015  0
C  C55  1  0.87578675  0.51978486  0.59493608  1  0.418635  0  0.024212  -0.032716  0  3.914964  0
C  C56  1  0.17001889  0.64455561  0.71916765  1  0.437944  0  0.018816  -0.039675  0  3.914577  0
C  C57  1  0.17057831  0.71954241  0.64415440  1  0.398335  0  0.019233  -0.041508  0  3.918675  0
Cl  Cl58  1  0.86177040  0.41752934  0.18119947  1  -0.172747  0  0.031646  -0.048651  0  1.520528  0
Cl  Cl59  1  0.86960075  0.18122007  0.43462463  1  -0.172337  0  0.034558  -0.04543  0  1.5166  0
Cl  Cl60  1  0.33089025  0.66926346  0.48042143  1  -0.177125  0  0.021455  -0.05048  0  1.461982  0
Cl  Cl61  1  0.33334269  0.48568855  0.66994004  1  -0.168632  0  0.021634  -0.051236  0  1.462979  0
H  H62  1  0.58607959  0.99011038  0.08467313  1  0.044221  0  0.100805  0.113084  0  0.958936  0
H  H63  1  0.57692808  0.05061244  0.98079480  1  0.036607  0  0.099329  0.106831  0  0.961696  0
H  H64  1  0.54029768  0.12564037  0.98093298  1  0.068766  0  0.089428  0.102056  0  0.997736  0
H  H65  1  0.50477249  0.97268546  0.11700600  1  0.044886  0  0.084399  0.094527  0  1.011038  0
H  H66  1  0.39682984  0.02677131  0.88113322  1  0.053079  0  0.084341  0.094697  0  1.012035  0
H  H67  1  0.42171776  0.85413652  0.99086935  1  0.068275  0  0.089021  0.101574  0  1.00059  0
H  H68  1  0.16445918  0.35762561  0.48916400  1  0.114795  0  0.123766  0.119817  0  0.9889  0
H  H69  1  0.16139193  0.48718644  0.35870660  1  0.111421  0  0.123514  0.119249  0  0.990751  0
H  H70  1  0.75019978  0.22389847  0.36603478  1  0.113893  0  0.108444  0.099174  0  1.040849  0
H  H71  1  0.72825218  0.37645729  0.22900272  1  0.106262  0  0.11589  0.109173  0  1.005965  0
H  H72  1  0.87360699  0.64011528  0.49364027  1  0.126588  0  0.124331  0.112902  0  0.995048  0
H  H73  1  0.86686047  0.48922550  0.63583352  1  0.117609  0  0.124494  0.113518  0  0.994938  0
H  H74  1  0.17785874  0.62128896  0.76749357  1  0.087638  0  0.123258  0.114533  0  0.994248  0
H  H75  1  0.17901698  0.76786648  0.62094300  1  0.117492  0  0.123083  0.114421  0  0.992809  0
H  H76  1  0.16909353  0.77198630  0.45892609  1  0.105109  0  0.127015  0.117283  0  0.985555  0
H  H77  1  0.17088795  0.46245862  0.77530132  1  0.126116  0  0.126481  0.116511  0  0.985611  0
H  H78  1  0.89360733  0.36578318  0.67864673  1  0.103847  0  0.127918  0.117929  0  0.979103  0
H  H79  1  0.89162002  0.67503857  0.36030417  1  0.088092  0  0.128658  0.119295  0  0.978367  0
H  H80  1  0.48731820  0.89596671  0.94670604  1  0.038093  0  0.098839  0.106012  0  0.964118  0
H  H81  1  0.44709901  0.96706357  0.85594371  1  0.04876  0  0.09977  0.111498  0  0.961308  0
N  N82  1  0.97483102  0.46798448  0.33886230  1  -0.790497  0  -0.276825  -0.240983  0  3.552228  0
N  N83  1  0.97918010  0.33723307  0.47470836  1  -0.761521  0  -0.275647  -0.240984  0  3.563333  0
N  N84  1  0.06277113  0.38397072  0.49202002  1  -0.782508  0  -0.282995  -0.188406  0  3.584389  0
N  N85  1  0.05950872  0.48871089  0.38556278  1  -0.774161  0  -0.285205  -0.191031  0  3.592269  0
N  N86  1  0.23451788  0.58559895  0.53751481  1  -0.766765  0  -0.265611  -0.223363  0  3.513546  0
N  N87  1  0.23518172  0.53983457  0.58483795  1  -0.778894  0  -0.26629  -0.224514  0  3.51683  0
N  N88  1  0.81309609  0.35229027  0.39716293  1  -0.811645  0  -0.275065  -0.193167  0  3.548442  0
N  N89  1  0.80613095  0.40118734  0.35323258  1  -0.807589  0  -0.277185  -0.191672  0  3.54264  0
N  N90  1  0.91871987  0.55201881  0.50603040  1  -0.810841  0  -0.275538  -0.186407  0  3.602193  0
N  N91  1  0.91654023  0.50450561  0.55073645  1  -0.741227  0  -0.274464  -0.182487  0  3.602288  0
N  N92  1  0.12479142  0.59311859  0.63868639  1  -0.845772  0  -0.285623  -0.192559  0  3.615921  0
N  N93  1  0.12517238  0.63925853  0.59261985  1  -0.741532  0  -0.285677  -0.187962  0  3.623678  0
N  N94  1  0.06646037  0.65676422  0.42808307  1  -0.796374  0  -0.267929  -0.174883  0  3.544522  0
N  N95  1  0.06876072  0.43172617  0.65988157  1  -0.813784  0  -0.268479  -0.17575  0  3.546945  0
N  N96  1  0.98059294  0.40116769  0.62907908  1  -0.788262  0  -0.262971  -0.185382  0  3.543071  0
N  N97  1  0.97822399  0.62588983  0.39684676  1  -0.797985  0  -0.264946  -0.181154  0  3.547614  0
Zn  Zn98  1  0.91194689  0.51091542  0.39325149  1  1.202165  0  0.74807  0.650043  0  2.362069  0
Zn  Zn99  1  0.91471716  0.39420022  0.51111036  1  1.204713  0  0.746755  0.657873  0  2.32577  0
Zn  Zn100  1  0.12581023  0.48555726  0.59758992  1  1.196161  0  0.747164  0.631839  0  2.436037  0
Zn  Zn101  1  0.12392343  0.59655362  0.48415373  1  1.194071  0  0.747413  0.629549  0  2.446401  0
