# generated using pymatgen
data_DyH12C11N5O7
_symmetry_space_group_name_H-M   'P 1'
_cell_length_a   7.51806367
_cell_length_b   16.84112339
_cell_length_c   17.24657098
_cell_angle_alpha   62.07622598
_cell_angle_beta   77.39361291
_cell_angle_gamma   77.08540542
_symmetry_Int_Tables_number   1
_chemical_formula_structural   DyH12C11N5O7
_chemical_formula_sum   'Dy4 H48 C44 N20 O28'
_cell_volume   1864.16218063
_cell_formula_units_Z   4
loop_
 _symmetry_equiv_pos_site_id
 _symmetry_equiv_pos_as_xyz
  1  'x, y, z'
loop_
 _atom_site_type_symbol
 _atom_site_label
 _atom_site_symmetry_multiplicity
 _atom_site_fract_x
 _atom_site_fract_y
 _atom_site_fract_z
 _atom_site_occupancy
 _atom_site_pbe_bader_charge
 _atom_site_pbe_bader_spin_density
 _atom_site_pbe_cm5_charge
 _atom_site_pbe_ddec_charge
 _atom_site_pbe_ddec_spin_density
 _atom_site_pbe_ddec_sum_bond_order
 _atom_site_pbe_magmom
Dy  Dy0  1  0.52238708  0.88838875  0.61764035  1  2.184386  0  1.533966  2.103635  0  2.150288  0
Dy  Dy1  1  0.02858476  0.61163796  0.88229765  1  2.181714  0  1.533217  2.101532  0  2.151165  0
Dy  Dy2  1  0.47760927  0.11161181  0.38235883  1  2.184264  0  1.533963  2.10366  0  2.150242  0
Dy  Dy3  1  0.97141159  0.38836259  0.11770327  1  2.181738  0  1.533183  2.101458  0  2.151195  0
H  H4  1  0.31352327  0.74057169  0.69966846  1  0.648045  0  0.305529  0.407378  0  0.918791  0
H  H5  1  0.75381719  0.75956563  0.80029522  1  0.635058  0  0.30594  0.408749  0  0.916929  0
H  H6  1  0.68647464  0.25942818  0.30033262  1  0.648099  0  0.305534  0.407385  0  0.918766  0
H  H7  1  0.24617936  0.24043424  0.19970773  1  0.635085  0  0.30594  0.408739  0  0.916949  0
H  H8  1  0.41227112  0.72700979  0.61057636  1  0.656709  0  0.29102  0.363187  0  0.990174  0
H  H9  1  0.75035145  0.77320736  0.88928712  1  0.657955  0  0.290637  0.362694  0  0.991034  0
H  H10  1  0.58772504  0.27299144  0.38942427  1  0.656724  0  0.291001  0.363163  0  0.990203  0
H  H11  1  0.24964626  0.22679320  0.11071366  1  0.657989  0  0.290661  0.362753  0  0.990955  0
H  H12  1  0.29626907  0.07072268  0.58096189  1  0.652325  0  0.294356  0.390426  0  0.958116  0
H  H13  1  0.94831537  0.42927337  0.91903059  1  0.653156  0  0.294246  0.390196  0  0.958181  0
H  H14  1  0.70372981  0.92927856  0.41903731  1  0.652335  0  0.294356  0.390439  0  0.958105  0
H  H15  1  0.05168253  0.57072651  0.08096932  1  0.653152  0  0.294237  0.390189  0  0.958192  0
H  H16  1  0.20950050  0.99886465  0.67650395  1  0.630974  0  0.331396  0.418171  0  0.86829  0
H  H17  1  0.88514588  0.50118905  0.82354453  1  0.637376  0  0.330927  0.417315  0  0.86944  0
H  H18  1  0.79049819  0.00113727  0.32349671  1  0.630991  0  0.331401  0.418185  0  0.868269  0
H  H19  1  0.11485495  0.49881016  0.17645483  1  0.637404  0  0.330957  0.417348  0  0.869398  0
H  H20  1  0.39808388  0.39686609  0.60025022  1  0.506671  0  0.34548  0.310063  0  0.895023  0
H  H21  1  0.39496997  0.10296594  0.89993372  1  0.513558  0  0.344979  0.310453  0  0.894247  0
H  H22  1  0.60192123  0.60313718  0.39974921  1  0.506548  0  0.345525  0.310148  0  0.894958  0
H  H23  1  0.60503203  0.89703393  0.10006697  1  0.513553  0  0.345049  0.3106  0  0.894193  0
H  H24  1  0.81445905  0.80788406  0.38309972  1  0.084705  0  0.102571  0.117261  0  0.997957  0
H  H25  1  0.00503881  0.69209709  0.11686155  1  0.076942  0  0.102636  0.117397  0  0.997795  0
H  H26  1  0.18554801  0.19211717  0.61689987  1  0.084693  0  0.102572  0.117271  0  0.997948  0
H  H27  1  0.99495968  0.30790075  0.88313981  1  0.076974  0  0.102657  0.117407  0  0.997829  0
H  H28  1  0.02376902  0.66990751  0.38230522  1  0.112661  0  0.103935  0.108  0  1.004777  0
H  H29  1  0.07593438  0.82988263  0.11782658  1  0.07015  0  0.103838  0.108001  0  1.004993  0
H  H30  1  0.97623667  0.33009373  0.61769450  1  0.112948  0  0.10395  0.108005  0  1.004804  0
H  H31  1  0.92407170  0.17011249  0.88217762  1  0.070269  0  0.103809  0.107979  0  1.004947  0
H  H32  1  0.08925766  0.58143201  0.65382297  1  0.130774  0  0.116591  0.124388  0  0.996945  0
H  H33  1  0.32497263  0.91842972  0.84632410  1  0.139238  0  0.116357  0.124277  0  0.99593  0
H  H34  1  0.91074142  0.41856855  0.34617652  1  0.130515  0  0.116595  0.124397  0  0.996928  0
H  H35  1  0.67502547  0.08156947  0.15367901  1  0.139188  0  0.116363  0.124307  0  0.995902  0
H  H36  1  0.60409538  0.26046767  0.57468987  1  0.153016  0  0.145646  0.112263  0  0.966939  0
H  H37  1  0.43868141  0.23937532  0.92551541  1  0.161133  0  0.14586  0.111916  0  0.967888  0
H  H38  1  0.39591265  0.73953493  0.42530726  1  0.152994  0  0.145699  0.112297  0  0.967079  0
H  H39  1  0.56131630  0.76062523  0.07448596  1  0.161127  0  0.145832  0.111903  0  0.967907  0
H  H40  1  0.01945261  0.90934894  0.51424061  1  0.081184  0  0.112943  0.171226  0  0.988255  0
H  H41  1  0.44314639  0.59073403  0.98574332  1  0.073408  0  0.112774  0.170476  0  0.98808  0
H  H42  1  0.98054918  0.09064690  0.48575265  1  0.081048  0  0.112924  0.171173  0  0.988301  0
H  H43  1  0.55685054  0.40926449  0.01425614  1  0.073459  0  0.112773  0.170493  0  0.988079  0
H  H44  1  0.21358408  0.83181419  0.50747864  1  0.083881  0  0.103377  0.160477  0  1.019505  0
H  H45  1  0.55281241  0.66835637  0.99236047  1  0.088923  0  0.103567  0.160307  0  1.019293  0
H  H46  1  0.78642025  0.16818232  0.49251523  1  0.083847  0  0.103357  0.16044  0  1.019595  0
H  H47  1  0.44718140  0.33164352  0.00763867  1  0.088994  0  0.103571  0.160313  0  1.019317  0
H  H48  1  0.09279142  0.90179768  0.41204649  1  0.046378  0  0.0955  0.148039  0  1.000663  0
H  H49  1  0.40648770  0.59849262  0.08782916  1  0.054863  0  0.095581  0.148419  0  1.00019  0
H  H50  1  0.90721543  0.09819952  0.58794567  1  0.04645  0  0.095536  0.148128  0  1.000719  0
H  H51  1  0.59350611  0.40150726  0.91216998  1  0.054878  0  0.095591  0.14845  0  1.000194  0
C  C52  1  0.87631483  0.75717929  0.44192120  1  -0.070918  0  -0.108131  -0.215666  0  3.974765  0
C  C53  1  0.07528317  0.74275462  0.05810201  1  -0.048566  0  -0.106542  -0.212863  0  3.976516  0
C  C54  1  0.12368813  0.24282195  0.55807878  1  -0.070911  0  -0.108061  -0.215616  0  3.974762  0
C  C55  1  0.92471181  0.25724593  0.94190019  1  -0.048552  0  -0.10658  -0.212883  0  3.976641  0
C  C56  1  0.82799881  0.77210962  0.51968466  1  0.671888  0  0.117254  0.384668  0  4.063873  0
C  C57  1  0.11983635  0.72784216  0.98032917  1  0.674917  0  0.116231  0.380914  0  4.067643  0
C  C58  1  0.17200066  0.22788958  0.48031599  1  0.671903  0  0.117246  0.384631  0  4.06386  0
C  C59  1  0.88016020  0.27215772  0.01967203  1  0.67486  0  0.116221  0.380966  0  4.067703  0
C  C60  1  0.90788835  0.70611328  0.59751922  1  -0.014533  0  -0.028623  -0.186398  0  3.929716  0
C  C61  1  0.21177701  0.79382809  0.90252330  1  -0.009001  0  -0.028694  -0.184318  0  3.92929  0
C  C62  1  0.09210956  0.29388660  0.40248069  1  -0.01448  0  -0.028588  -0.186335  0  3.929578  0
C  C63  1  0.78822012  0.20617450  0.09747603  1  -0.008986  0  -0.028691  -0.184382  0  3.929393  0
C  C64  1  0.25770253  0.97129745  0.44029108  1  1.544793  0  0.211888  0.728141  0  4.113544  0
C  C65  1  0.66934794  0.52888714  0.05970053  1  1.552422  0  0.212  0.72801  0  4.114337  0
C  C66  1  0.74229596  0.02870041  0.55970679  1  1.545137  0  0.211896  0.728099  0  4.113605  0
C  C67  1  0.33064666  0.47111476  0.94030284  1  1.552514  0  0.212075  0.72829  0  4.114094  0
C  C68  1  0.99143269  0.68163289  0.44119760  1  -0.074304  0  -0.084295  -0.111969  0  3.982749  0
C  C69  1  0.11423420  0.81819842  0.05890855  1  -0.026094  0  -0.08518  -0.11397  0  3.985274  0
C  C70  1  0.00857164  0.31836835  0.55880167  1  -0.074611  0  -0.08434  -0.112015  0  3.98289  0
C  C71  1  0.88576623  0.18180214  0.94109198  1  -0.026168  0  -0.085176  -0.113976  0  3.985249  0
C  C72  1  0.02632089  0.63066372  0.59496321  1  -0.016829  0  -0.060977  -0.1037  0  3.926034  0
C  C73  1  0.25230234  0.86919313  0.90515259  1  -0.041281  0  -0.061271  -0.10503  0  3.925403  0
C  C74  1  0.97367779  0.36933819  0.40503745  1  -0.017077  0  -0.060988  -0.103725  0  3.925976  0
C  C75  1  0.74769537  0.13080742  0.09484994  1  -0.041313  0  -0.061185  -0.104902  0  3.925236  0
C  C76  1  0.87146865  0.71425392  0.68199868  1  1.580625  0  0.244398  0.680269  0  4.105995  0
C  C77  1  0.26801180  0.78569465  0.81803881  1  1.569943  0  0.246036  0.68228  0  4.103776  0
C  C78  1  0.12852634  0.28574664  0.31800062  1  1.58058  0  0.244368  0.680179  0  4.106111  0
C  C79  1  0.73198708  0.21430659  0.18196155  1  1.569935  0  0.246087  0.682337  0  4.103759  0
C  C80  1  0.06901289  0.61627989  0.51881384  1  0.42783  0  0.06915  0.126811  0  4.109818  0
C  C81  1  0.20432245  0.88351402  0.98134682  1  0.410987  0  0.070505  0.129159  0  4.108026  0
C  C82  1  0.93098775  0.38371998  0.48118697  1  0.428309  0  0.069149  0.126786  0  4.110002  0
C  C83  1  0.79567838  0.11648518  0.01865486  1  0.411052  0  0.070451  0.129044  0  4.107927  0
C  C84  1  0.34678759  0.44693569  0.46802565  1  1.401386  0  0.310566  0.357412  0  4.135027  0
C  C85  1  0.26140336  0.05286997  0.03215623  1  1.394762  0  0.310588  0.357347  0  4.135328  0
C  C86  1  0.65321499  0.55306691  0.53197258  1  1.401386  0  0.310553  0.357358  0  4.135109  0
C  C87  1  0.73860195  0.94712787  0.96784623  1  1.395444  0  0.310606  0.357443  0  4.135239  0
C  C88  1  0.52502977  0.31891978  0.52792873  1  0.969802  0  0.159118  0.144664  0  3.960871  0
C  C89  1  0.37135781  0.18090858  0.97227228  1  0.968985  0  0.160199  0.146688  0  3.959914  0
C  C90  1  0.47497086  0.68108485  0.47206818  1  0.969475  0  0.158985  0.144601  0  3.960759  0
C  C91  1  0.62864458  0.81908994  0.02772957  1  0.969008  0  0.160127  0.146497  0  3.959846  0
C  C92  1  0.14009093  0.89883818  0.46911802  1  -0.097029  0  -0.239895  -0.521078  0  3.863774  0
C  C93  1  0.50803654  0.60134175  0.03081454  1  -0.107904  0  -0.239914  -0.52022  0  3.861777  0
C  C94  1  0.85991320  0.10115901  0.53087673  1  -0.097282  0  -0.239925  -0.521107  0  3.863936  0
C  C95  1  0.49196156  0.39865746  0.96918450  1  -0.107996  0  -0.239926  -0.520318  0  3.861768  0
N  N96  1  0.18670520  0.53798115  0.52570826  1  -0.561176  0  -0.167597  -0.146393  0  3.352891  0
N  N97  1  0.25054193  0.96177763  0.97448964  1  -0.56074  0  -0.168865  -0.148705  0  3.353687  0
N  N98  1  0.81330068  0.46201941  0.47429174  1  -0.561263  0  -0.16763  -0.146348  0  3.352984  0
N  N99  1  0.74945909  0.03822089  0.02551175  1  -0.5608  0  -0.168836  -0.148601  0  3.353747  0
N  N100  1  0.41930388  0.38682943  0.54512141  1  -1.263983  0  -0.372819  -0.317174  0  3.648872  0
N  N101  1  0.35095721  0.11298467  0.95507955  1  -1.285128  0  -0.373311  -0.319374  0  3.649334  0
N  N102  1  0.58070337  0.61317115  0.45487440  1  -1.263667  0  -0.372832  -0.317288  0  3.64859  0
N  N103  1  0.64904634  0.88701452  0.04492420  1  -1.285255  0  -0.373332  -0.319458  0  3.649122  0
N  N104  1  0.40630658  0.41659715  0.40686228  1  -0.639097  0  -0.221934  -0.265438  0  3.090314  0
N  N105  1  0.22923993  0.08320377  0.09332845  1  -0.630425  0  -0.221273  -0.264569  0  3.089248  0
N  N106  1  0.59369366  0.58340409  0.59313679  1  -0.639004  0  -0.221894  -0.265347  0  3.090135  0
N  N107  1  0.77076323  0.91679677  0.90667414  1  -0.630874  0  -0.221277  -0.264591  0  3.089202  0
N  N108  1  0.51775783  0.33579557  0.44541375  1  -0.721912  0  -0.202814  -0.167396  0  3.327934  0
N  N109  1  0.29833385  0.16401288  0.05479174  1  -0.729482  0  -0.203955  -0.168267  0  3.327365  0
N  N110  1  0.48224592  0.66420771  0.55458406  1  -0.721878  0  -0.202793  -0.167371  0  3.327713  0
N  N111  1  0.70166775  0.83598835  0.94520837  1  -0.729428  0  -0.203913  -0.168135  0  3.327234  0
N  N112  1  0.22982876  0.52659669  0.45478030  1  -0.532808  0  -0.182975  -0.224644  0  3.293771  0
N  N113  1  0.21102527  0.97319384  0.04538968  1  -0.522155  0  -0.1825  -0.223426  0  3.292747  0
N  N114  1  0.77017284  0.47340455  0.54521748  1  -0.532669  0  -0.182967  -0.22469  0  3.293901  0
N  N115  1  0.78897848  0.02680468  0.95461319  1  -0.522239  0  -0.182535  -0.223544  0  3.292853  0
O  O116  1  0.71752429  0.84548088  0.51561407  1  -1.188338  0  -0.401666  -0.639487  0  2.377803  0
O  O117  1  0.07857749  0.65454689  0.98433476  1  -1.182818  0  -0.401321  -0.63753  0  2.37901  0
O  O118  1  0.28247381  0.15451832  0.48438730  1  -1.188351  0  -0.401701  -0.639485  0  2.377809  0
O  O119  1  0.92141905  0.34545299  0.01566587  1  -1.182815  0  -0.401303  -0.63754  0  2.379006  0
O  O120  1  0.97102569  0.65872860  0.74202965  1  -1.209169  0  -0.415118  -0.663848  0  2.290538  0
O  O121  1  0.37209899  0.84126573  0.75801420  1  -1.203061  0  -0.415842  -0.665047  0  2.288333  0
O  O122  1  0.02897339  0.34127196  0.25797042  1  -1.20922  0  -0.415122  -0.663816  0  2.290636  0
O  O123  1  0.62789736  0.15873483  0.24198613  1  -1.203052  0  -0.41587  -0.665095  0  2.288287  0
O  O124  1  0.35938969  0.96622283  0.49471115  1  -1.224378  0  -0.454594  -0.775434  0  2.365755  0
O  O125  1  0.82033188  0.53387727  0.00523420  1  -1.228174  0  -0.455023  -0.775623  0  2.365459  0
O  O126  1  0.64060568  0.03377638  0.50528699  1  -1.224528  0  -0.454623  -0.775441  0  2.365648  0
O  O127  1  0.17966758  0.46612193  0.99476645  1  -1.228252  0  -0.454997  -0.77564  0  2.365504  0
O  O128  1  0.74393868  0.77368917  0.69355085  1  -1.192984  0  -0.38364  -0.658718  0  2.32821  0
O  O129  1  0.21164977  0.72625947  0.80647874  1  -1.188311  0  -0.384188  -0.659455  0  2.327707  0
O  O130  1  0.25605689  0.22630935  0.30644990  1  -1.192915  0  -0.383645  -0.658684  0  2.328203  0
O  O131  1  0.78834483  0.27374245  0.19352172  1  -1.188376  0  -0.38422  -0.659487  0  2.327763  0
O  O132  1  0.37762554  0.77045097  0.63849850  1  -1.310711  0  -0.666326  -0.884008  0  2.125154  0
O  O133  1  0.78690984  0.72973549  0.86139189  1  -1.298193  0  -0.666179  -0.884586  0  2.124357  0
O  O134  1  0.62237081  0.22954958  0.36150299  1  -1.310731  0  -0.666305  -0.883973  0  2.125144  0
O  O135  1  0.21308573  0.27026302  0.13861118  1  -1.298372  0  -0.666197  -0.884629  0  2.124298  0
O  O136  1  0.25613954  0.03865396  0.36490342  1  -1.17423  0  -0.373807  -0.622466  0  2.100449  0
O  O137  1  0.65969463  0.46161653  0.13514158  1  -1.172832  0  -0.373474  -0.621829  0  2.100752  0
O  O138  1  0.74386109  0.96134593  0.63509333  1  -1.174209  0  -0.373767  -0.622398  0  2.100581  0
O  O139  1  0.34030699  0.53838943  0.86486217  1  -1.173001  0  -0.373571  -0.622072  0  2.100637  0
O  O140  1  0.32387901  0.01469857  0.63759218  1  -1.274746  0  -0.629416  -0.852663  0  2.065842  0
O  O141  1  0.97657583  0.48527582  0.86239799  1  -1.282003  0  -0.628618  -0.851306  0  2.067481  0
O  O142  1  0.67611656  0.98529996  0.36240683  1  -1.274765  0  -0.629414  -0.852688  0  2.06583  0
O  O143  1  0.02342324  0.51472474  0.13760150  1  -1.282033  0  -0.628624  -0.851301  0  2.067432  0
