# generated using pymatgen
data_CdH8C10S2(NO)4
_symmetry_space_group_name_H-M   'P 1'
_cell_length_a   7.15298287
_cell_length_b   9.81319819
_cell_length_c   9.81319634
_cell_angle_alpha   84.04913645
_cell_angle_beta   75.88196212
_cell_angle_gamma   75.88189005
_symmetry_Int_Tables_number   1
_chemical_formula_structural   CdH8C10S2(NO)4
_chemical_formula_sum   'Cd2 H16 C20 S4 N8 O8'
_cell_volume   647.12559480
_cell_formula_units_Z   2
loop_
 _symmetry_equiv_pos_site_id
 _symmetry_equiv_pos_as_xyz
  1  'x, y, z'
loop_
 _atom_site_type_symbol
 _atom_site_label
 _atom_site_symmetry_multiplicity
 _atom_site_fract_x
 _atom_site_fract_y
 _atom_site_fract_z
 _atom_site_occupancy
 _atom_site_hle17_bader_spin_density
 _atom_site_hle17_ddec_charge
 _atom_site_hle17_ddec_spin_density
 _atom_site_hle17_ddec_sum_bond_order
 _atom_site_hle17_magmom
 _atom_site_hse06_10hf_bader_spin_density
 _atom_site_hse06_10hf_ddec_charge
 _atom_site_hse06_10hf_ddec_spin_density
 _atom_site_hse06_10hf_ddec_sum_bond_order
 _atom_site_hse06_10hf_magmom
 _atom_site_hse06_bader_spin_density
 _atom_site_hse06_ddec_charge
 _atom_site_hse06_ddec_spin_density
 _atom_site_hse06_ddec_sum_bond_order
 _atom_site_hse06_magmom
 _atom_site_pbe_bader_spin_density
 _atom_site_pbe_cm5_charge
 _atom_site_pbe_ddec_charge
 _atom_site_pbe_ddec_spin_density
 _atom_site_pbe_ddec_sum_bond_order
 _atom_site_pbe_magmom
Cd  Cd0  1  0.75000057  0.56708940  0.43291001  1  0  1.194116  0  1.714135  0  0  1.006321  0  2.17207  0  0  1.05507  0  2.123109  0  0  0.813539  0.970125  0  2.207222  0
Cd  Cd1  1  0.25000113  0.43291057  0.56708920  1  0  1.194121  0  1.714148  0  0  1.006323  0  2.172094  0  0  1.055073  0  2.12313  0  0  0.813537  0.970128  0  2.207246  0
H  H2  1  0.68465240  0.06104061  0.63192511  1  0  0.327333  0  0.921347  0  0  0.306374  0  0.984465  0  0  0.314912  0  0.977522  0  0  0.309722  0.30003  0  0.989749  0
H  H3  1  0.81534914  0.36807495  0.93895893  1  0  0.327344  0  0.921322  0  0  0.306386  0  0.984441  0  0  0.314923  0  0.977498  0  0  0.309713  0.300043  0  0.989724  0
H  H4  1  0.31534930  0.93895937  0.36807309  1  0  0.327333  0  0.921353  0  0  0.306373  0  0.984474  0  0  0.314911  0  0.97753  0  0  0.309716  0.30003  0  0.989759  0
H  H5  1  0.18465078  0.63192607  0.06104049  1  0  0.327359  0  0.921313  0  0  0.306399  0  0.984433  0  0  0.314936  0  0.977491  0  0  0.309726  0.300055  0  0.989718  0
H  H6  1  0.37163993  0.82147128  0.00029336  1  0  0.120902  0  0.955015  0  0  0.130055  0  1.017278  0  0  0.13303  0  1.015887  0  0  0.105418  0.127772  0  1.018545  0
H  H7  1  0.12835785  0.99970707  0.17852908  1  0  0.12089  0  0.955009  0  0  0.130034  0  1.017276  0  0  0.133007  0  1.015893  0  0  0.105417  0.127746  0  1.018552  0
H  H8  1  0.62835965  0.17853079  0.99970703  1  0  0.12088  0  0.955007  0  0  0.130034  0  1.017269  0  0  0.133007  0  1.015886  0  0  0.105408  0.127751  0  1.018538  0
H  H9  1  0.87164029  0.00029500  0.82147056  1  0  0.120897  0  0.955044  0  0  0.130045  0  1.017307  0  0  0.133024  0  1.015908  0  0  0.105411  0.127749  0  1.018594  0
H  H10  1  0.86687065  0.88253006  0.44524936  1  0  0.101757  0  0.966245  0  0  0.109462  0  1.032025  0  0  0.112421  0  1.028226  0  0  0.131208  0.107137  0  1.03504  0
H  H11  1  0.63312900  0.55474812  0.11747108  1  0  0.101738  0  0.966403  0  0  0.109479  0  1.032123  0  0  0.112437  0  1.028328  0  0  0.131237  0.107156  0  1.035138  0
H  H12  1  0.13312639  0.11747097  0.55474852  1  0  0.101743  0  0.966368  0  0  0.109484  0  1.032087  0  0  0.112442  0  1.028292  0  0  0.131236  0.10716  0  1.035103  0
H  H13  1  0.36687125  0.44525184  0.88253042  1  0  0.101729  0  0.966301  0  0  0.109473  0  1.032029  0  0  0.112432  0  1.028232  0  0  0.131228  0.10715  0  1.035046  0
H  H14  1  0.40022228  0.71749496  0.70411470  1  0  0.115688  0  0.970231  0  0  0.123856  0  1.032862  0  0  0.125854  0  1.032877  0  0  0.116118  0.122157  0  1.033557  0
H  H15  1  0.09977670  0.29588343  0.28250616  1  0  0.115711  0  0.970208  0  0  0.123874  0  1.032845  0  0  0.12587  0  1.03286  0  0  0.116121  0.122174  0  1.03354  0
H  H16  1  0.59977797  0.28250499  0.29588783  1  0  0.115669  0  0.970205  0  0  0.123807  0  1.032886  0  0  0.125806  0  1.032901  0  0  0.116093  0.122109  0  1.03358  0
H  H17  1  0.90022279  0.70411443  0.71749364  1  0  0.115693  0  0.970193  0  0  0.123845  0  1.032856  0  0  0.125843  0  1.032871  0  0  0.116108  0.122146  0  1.033551  0
C  C18  1  0.31383902  0.93099615  0.97175962  1  0  -0.106378  0  3.760798  0  0  -0.135009  0  4.02399  0  0  -0.136641  0  4.04393  0  0  -0.102986  -0.133722  0  4.010217  0
C  C19  1  0.18616161  0.02823985  0.06900305  1  0  -0.106322  0  3.760767  0  0  -0.134939  0  4.023959  0  0  -0.136569  0  4.043898  0  0  -0.102962  -0.133647  0  4.010191  0
C  C20  1  0.68616090  0.06900487  0.02824082  1  0  -0.106327  0  3.760762  0  0  -0.134954  0  4.023955  0  0  -0.136587  0  4.043895  0  0  -0.102976  -0.133667  0  4.01018  0
C  C21  1  0.81383687  0.97176116  0.93099663  1  0  -0.106385  0  3.760838  0  0  -0.135002  0  4.02403  0  0  -0.13663  0  4.043971  0  0  -0.102974  -0.133707  0  4.010262  0
C  C22  1  0.36247958  0.98993634  0.83742341  1  0  -0.053367  0  3.801182  0  0  -0.03419  0  4.059687  0  0  -0.033448  0  4.081646  0  0  -0.018646  -0.034429  0  4.044553  0
C  C23  1  0.13752416  0.16257718  0.01006283  1  0  -0.053415  0  3.801208  0  0  -0.034235  0  4.059718  0  0  -0.033493  0  4.081676  0  0  -0.018665  -0.034476  0  4.044583  0
C  C24  1  0.63752211  0.01006362  0.16257682  1  0  -0.053422  0  3.801133  0  0  -0.034235  0  4.059653  0  0  -0.033491  0  4.081611  0  0  -0.018665  -0.034476  0  4.04452  0
C  C25  1  0.86247576  0.83742384  0.98993557  1  0  -0.053396  0  3.801177  0  0  -0.034241  0  4.059725  0  0  -0.0335  0  4.081686  0  0  -0.018666  -0.034471  0  4.044571  0
C  C26  1  0.48819183  0.91880651  0.71416613  1  0  0.129865  0  3.818898  0  0  0.117939  0  4.077284  0  0  0.12013  0  4.100901  0  0  0.079958  0.116854  0  4.060817  0
C  C27  1  0.01180900  0.28583387  0.08119260  1  0  0.129903  0  3.818808  0  0  0.11797  0  4.077207  0  0  0.120162  0  4.10082  0  0  0.079964  0.116887  0  4.060737  0
C  C28  1  0.51180952  0.08119450  0.28583508  1  0  0.129877  0  3.818762  0  0  0.117917  0  4.077199  0  0  0.120107  0  4.100814  0  0  0.079942  0.116832  0  4.06073  0
C  C29  1  0.98818982  0.71416609  0.91880712  1  0  0.129855  0  3.818808  0  0  0.117925  0  4.077221  0  0  0.120115  0  4.100839  0  0  0.079945  0.116839  0  4.06075  0
C  C30  1  0.73531005  0.87330814  0.52569198  1  0  0.221219  0  3.672954  0  0  0.157346  0  3.947983  0  0  0.172407  0  3.959749  0  0  0.139159  0.147253  0  3.940074  0
C  C31  1  0.76468722  0.47430682  0.12669246  1  0  0.221202  0  3.673063  0  0  0.157311  0  3.948096  0  0  0.172371  0  3.959861  0  0  0.13911  0.147213  0  3.940189  0
C  C32  1  0.26468910  0.12669077  0.47430778  1  0  0.221209  0  3.673035  0  0  0.157316  0  3.948067  0  0  0.172377  0  3.959833  0  0  0.139123  0.14722  0  3.940159  0
C  C33  1  0.23530871  0.52569314  0.87330878  1  0  0.221234  0  3.672999  0  0  0.157336  0  3.948033  0  0  0.172396  0  3.9598  0  0  0.139148  0.147238  0  3.940127  0
C  C34  1  0.49593591  0.78982762  0.66515649  1  0  -0.033558  0  3.675151  0  0  -0.071764  0  3.935439  0  0  -0.069455  0  3.955242  0  0  -0.001059  -0.073582  0  3.92256  0
C  C35  1  0.00406562  0.33484193  0.21017505  1  0  -0.033575  0  3.675038  0  0  -0.071775  0  3.935345  0  0  -0.069464  0  3.955146  0  0  -0.001065  -0.073595  0  3.922466  0
C  C36  1  0.50406434  0.21017233  0.33484604  1  0  -0.033461  0  3.675147  0  0  -0.071631  0  3.93544  0  0  -0.06932  0  3.955242  0  0  -0.001012  -0.073451  0  3.922561  0
C  C37  1  0.99593387  0.66515592  0.78982679  1  0  -0.033477  0  3.67498  0  0  -0.071672  0  3.935278  0  0  -0.069362  0  3.955081  0  0  -0.001005  -0.073493  0  3.922401  0
S  S38  1  0.25000309  0.16744918  0.83255056  1  0  0.079413  0  2.589624  0  0  0.08141  0  2.928462  0  0  0.07733  0  2.934012  0  0  0.083457  0.082904  0  2.925145  0
S  S39  1  0.74999827  0.83255184  0.16744861  1  0  0.079435  0  2.589604  0  0  0.08145  0  2.928437  0  0  0.077368  0  2.933986  0  0  0.083484  0.08294  0  2.925114  0
S  S40  1  0.75000079  0.33324158  0.66675933  1  0  1.580972  0  5.838133  0  0  1.454687  0  6.383335  0  0  1.510367  0  6.347034  0  0  0.5506  1.415229  0  6.4078  0
S  S41  1  0.24999947  0.66675838  0.33324217  1  0  1.580988  0  5.83811  0  0  1.454705  0  6.383311  0  0  1.51039  0  6.347005  0  0  0.550598  1.41525  0  6.407775  0
N  N42  1  0.65080600  0.76283562  0.54883815  1  0  -0.419042  0  3.311146  0  0  -0.335097  0  3.602319  0  0  -0.358073  0  3.619395  0  0  -0.372416  -0.318643  0  3.590195  0
N  N43  1  0.84919440  0.45115943  0.23716566  1  0  -0.419038  0  3.311024  0  0  -0.335106  0  3.602214  0  0  -0.358084  0  3.619293  0  0  -0.372412  -0.318652  0  3.590092  0
N  N44  1  0.34919459  0.23716328  0.45116237  1  0  -0.419052  0  3.311252  0  0  -0.335118  0  3.602441  0  0  -0.358094  0  3.619517  0  0  -0.372406  -0.318665  0  3.59032  0
N  N45  1  0.15080508  0.54883842  0.76283618  1  0  -0.419089  0  3.311063  0  0  -0.335153  0  3.602259  0  0  -0.358128  0  3.619333  0  0  -0.372455  -0.318699  0  3.590138  0
N  N46  1  0.63967455  0.96940593  0.62260361  1  0  -0.323592  0  3.40916  0  0  -0.257783  0  3.643175  0  0  -0.274672  0  3.658246  0  0  -0.370599  -0.246138  0  3.632976  0
N  N47  1  0.86032667  0.37739602  0.03059458  1  0  -0.323593  0  3.40922  0  0  -0.257782  0  3.643238  0  0  -0.274672  0  3.658316  0  0  -0.370566  -0.246138  0  3.633037  0
N  N48  1  0.36032571  0.03059403  0.37739585  1  0  -0.323622  0  3.409204  0  0  -0.257806  0  3.643238  0  0  -0.274695  0  3.658312  0  0  -0.370593  -0.24616  0  3.633037  0
N  N49  1  0.13967359  0.62260394  0.96940590  1  0  -0.323606  0  3.409154  0  0  -0.257796  0  3.643181  0  0  -0.274682  0  3.658251  0  0  -0.370594  -0.24615  0  3.63298  0
O  O50  1  0.80999112  0.18118774  0.64131270  1  0  -0.713118  0  1.962233  0  0  -0.66233  0  2.20864  0  0  -0.682329  0  2.191051  0  0  -0.355411  -0.647983  0  2.220914  0
O  O51  1  0.69000841  0.35868758  0.81881218  1  0  -0.713129  0  1.9623  0  0  -0.662331  0  2.208702  0  0  -0.68233  0  2.191111  0  0  -0.355403  -0.647987  0  2.220978  0
O  O52  1  0.19000914  0.81881222  0.35868677  1  0  -0.713138  0  1.962241  0  0  -0.662339  0  2.208644  0  0  -0.682337  0  2.191053  0  0  -0.355412  -0.647991  0  2.220919  0
O  O53  1  0.30999007  0.64131344  0.18118750  1  0  -0.713113  0  1.962212  0  0  -0.662318  0  2.208622  0  0  -0.682316  0  2.191028  0  0  -0.355407  -0.647978  0  2.2209  0
O  O54  1  0.91679107  0.40278935  0.59501483  1  0  -0.79497  0  2.046512  0  0  -0.720079  0  2.339038  0  0  -0.745534  0  2.318381  0  0  -0.384267  -0.700847  0  2.353213  0
O  O55  1  0.58320908  0.40498634  0.59721002  1  0  -0.794949  0  2.046458  0  0  -0.720069  0  2.33901  0  0  -0.745519  0  2.318352  0  0  -0.38428  -0.700823  0  2.353154  0
O  O56  1  0.08320918  0.59721060  0.40498667  1  0  -0.794974  0  2.046526  0  0  -0.720085  0  2.339055  0  0  -0.745542  0  2.318399  0  0  -0.384269  -0.700843  0  2.35321  0
O  O57  1  0.41679118  0.59501362  0.40278944  1  0  -0.794966  0  2.046477  0  0  -0.720095  0  2.339038  0  0  -0.745547  0  2.318378  0  0  -0.384275  -0.700862  0  2.353209  0
