# generated using pymatgen
data_CuH6C8(N2O)3
_symmetry_space_group_name_H-M   'P 1'
_cell_length_a   7.23067301
_cell_length_b   7.06169007
_cell_length_c   11.48456344
_cell_angle_alpha   78.35871301
_cell_angle_beta   80.56055891
_cell_angle_gamma   76.37495599
_symmetry_Int_Tables_number   1
_chemical_formula_structural   CuH6C8(N2O)3
_chemical_formula_sum   'Cu2 H12 C16 N12 O6'
_cell_volume   553.99063157
_cell_formula_units_Z   2
loop_
 _symmetry_equiv_pos_site_id
 _symmetry_equiv_pos_as_xyz
  1  'x, y, z'
loop_
 _atom_site_type_symbol
 _atom_site_label
 _atom_site_symmetry_multiplicity
 _atom_site_fract_x
 _atom_site_fract_y
 _atom_site_fract_z
 _atom_site_occupancy
 _atom_site_hle17_ddec_charge
 _atom_site_hle17_ddec_spin_density
 _atom_site_hle17_ddec_sum_bond_order
 _atom_site_hle17_magmom
 _atom_site_hse06_10hf_ddec_charge
 _atom_site_hse06_10hf_ddec_spin_density
 _atom_site_hse06_10hf_ddec_sum_bond_order
 _atom_site_hse06_10hf_magmom
 _atom_site_hse06_ddec_charge
 _atom_site_hse06_ddec_spin_density
 _atom_site_hse06_ddec_sum_bond_order
 _atom_site_hse06_magmom
 _atom_site_pbe_cm5_charge
 _atom_site_pbe_ddec_charge
 _atom_site_pbe_ddec_spin_density
 _atom_site_pbe_ddec_sum_bond_order
 _atom_site_pbe_magmom
Cu  Cu0  1  0.07777344  0.01282143  0.75624110  1  0.938164  0.644035  1.898253  0.423  1.00281  0.829568  2.281629  0.654  1.086151  0.914298  2.223789  0.759  0.823239  0.935475  0.736117  2.336609  0.558
Cu  Cu1  1  0.92222797  0.98716073  0.24376421  1  0.938774  -0.644426  1.898191  -0.423  1.002844  -0.82956  2.281746  -0.654  1.085716  -0.91428  2.224034  -0.759  0.823328  0.935565  -0.736122  2.336713  -0.558
H  H2  1  0.87560109  0.61777762  0.08602903  1  0.344324  -0.000355  0.905621  0.0  0.327053  -4.5e-05  0.966765  0.0  0.334525  -4.3e-05  0.961007  0.0  0.299093  0.321581  -5.6e-05  0.970959  0.0
H  H3  1  0.12439426  0.38222508  0.91396727  1  0.344317  0.000355  0.905672  0.0  0.327045  4.6e-05  0.966818  0.0  0.33454  4.3e-05  0.961023  0.0  0.299067  0.321566  5.6e-05  0.971024  0.0
H  H4  1  0.75446685  0.46813883  0.19885788  1  0.343286  -0.000216  0.91622  -0.001  0.32266  6e-06  0.984177  0.0  0.330518  -1.7e-05  0.97831  0.0  0.296398  0.317382  3.8e-05  0.987624  0.0
H  H5  1  0.24552672  0.53185938  0.80114005  1  0.343307  0.000216  0.916195  0.001  0.322725  -6e-06  0.984084  0.0  0.330606  1.7e-05  0.978175  0.0  0.296422  0.317447  -3.8e-05  0.98753  0.0
H  H6  1  0.30196104  0.33273176  0.40844326  1  0.333896  -0.000229  0.87287  0.0  0.326157  -2.8e-05  0.917447  0.0  0.332299  -2.1e-05  0.913291  0.0  0.313412  0.322028  -3.6e-05  0.920319  0.0
H  H7  1  0.69804399  0.66726536  0.59155886  1  0.333881  0.000229  0.872915  0.0  0.326152  2.8e-05  0.917473  0.0  0.332295  2.1e-05  0.913316  0.0  0.313386  0.322022  3.6e-05  0.920351  0.0
H  H8  1  0.42819413  0.42528281  0.27195222  1  0.346956  -5.4e-05  0.921986  0.0  0.32636  2.5e-05  0.987537  0.0  0.335952  1.1e-05  0.979223  0.0  0.295777  0.319284  3.2e-05  0.993662  0.0
H  H9  1  0.57182239  0.57471312  0.72804888  1  0.346907  5.4e-05  0.922071  0.0  0.326335  -2.5e-05  0.987586  0.0  0.33594  -1.1e-05  0.979244  0.0  0.295749  0.31925  -3.2e-05  0.993726  0.0
H  H10  1  0.95789969  0.39099958  0.77326259  1  0.410113  7e-06  0.832087  0.0  0.398002  -3.3e-05  0.881363  0.0  0.405409  -1.7e-05  0.873091  0.0  0.313797  0.392857  -2.7e-05  0.886938  0.0
H  H11  1  0.04210747  0.60900053  0.22673718  1  0.410113  -7e-06  0.83204  0.0  0.397999  3.3e-05  0.881321  0.0  0.405372  1.7e-05  0.873072  0.0  0.313809  0.392853  2.7e-05  0.886898  0.0
H  H12  1  0.79522831  0.32472638  0.86933104  1  0.425893  3.6e-05  0.882973  0.0  0.394689  1.4e-05  0.947727  0.0  0.406691  1.6e-05  0.930488  0.0  0.284695  0.38583  1.6e-05  0.960405  0.0
H  H13  1  0.20477709  0.67526915  0.13066516  1  0.42589  -3.6e-05  0.882992  0.0  0.394678  -1.4e-05  0.947755  0.0  0.406641  -1.6e-05  0.930564  0.0  0.28469  0.385824  -1.6e-05  0.960426  0.0
C  C14  1  0.75285279  0.82047347  0.89410545  1  0.352719  -0.042298  3.794036  -0.04  0.365513  -0.001432  4.068778  0.001  0.394739  3.4e-05  4.085439  0.003  0.203268  0.341653  -0.002172  4.055415  -0.001
C  C15  1  0.24714082  0.17953072  0.10589344  1  0.352561  0.042235  3.794084  0.04  0.365363  0.001427  4.068805  -0.001  0.394443  -3.2e-05  4.085442  -0.003  0.203177  0.341511  0.00217  4.055444  0.001
C  C16  1  0.58532499  0.77854468  0.96078705  1  -0.282444  0.118293  3.891747  0.104  -0.321964  0.021269  4.191496  0.022  -0.357757  0.006569  4.218501  0.008  -0.041943  -0.288437  0.039306  4.165359  0.038
C  C17  1  0.41467396  0.22147305  0.03921041  1  -0.282466  -0.118105  3.891635  -0.104  -0.321911  -0.021251  4.191388  -0.022  -0.357744  -0.006568  4.218489  -0.008  -0.041938  -0.288383  -0.039301  4.165244  -0.038
C  C18  1  0.41354236  0.85012041  0.91121313  1  0.364886  -0.041335  3.798479  -0.039  0.37248  -0.001971  4.078748  0.001  0.400805  -0.002146  4.095761  0.001  0.211327  0.348406  -0.001747  4.066408  0.0
C  C19  1  0.58646280  0.14988854  0.08878396  1  0.364801  0.041279  3.798193  0.039  0.372412  0.001963  4.078443  -0.001  0.400594  0.002145  4.095436  -0.001  0.211288  0.348345  0.001744  4.066108  0.0
C  C20  1  0.58764507  0.64137856  0.07549708  1  0.642279  -0.009074  3.890891  -0.013  0.594558  -0.000302  4.193595  -0.002  0.628883  -0.00033  4.194089  -0.001  0.237412  0.569253  -9.9e-05  4.1918  -0.002
C  C21  1  0.41234956  0.35862115  0.92449968  1  0.642253  0.009068  3.891113  0.013  0.594563  0.0003  4.193795  0.002  0.628899  0.000328  4.19427  0.001  0.237402  0.569253  9.9e-05  4.191999  0.002
C  C22  1  0.41534971  0.18003640  0.60399093  1  0.34413  -0.031962  3.83365  -0.03  0.35347  -0.000375  4.103444  0.003  0.380582  1.5e-05  4.118781  0.003  0.195066  0.331639  -0.000393  4.093984  0.002
C  C23  1  0.58464356  0.81997542  0.39601920  1  0.344075  0.032063  3.833046  0.03  0.353462  0.000379  4.102857  -0.003  0.380435  -5e-06  4.118169  -0.003  0.194998  0.331632  0.000393  4.093413  -0.002
C  C24  1  0.58593338  0.20608655  0.53440845  1  -0.308887  0.087638  3.903757  0.076  -0.331015  0.014022  4.186674  0.015  -0.361877  0.004194  4.210398  0.006  -0.054375  -0.305794  0.025299  4.167283  0.024
C  C25  1  0.41405428  0.79391300  0.46559079  1  -0.308971  -0.087641  3.903694  -0.077  -0.331146  -0.014034  4.186725  -0.015  -0.362025  -0.004225  4.210521  -0.006  -0.054353  -0.305938  -0.025291  4.16736  -0.024
C  C26  1  0.75323631  0.15955963  0.58897516  1  0.382136  -0.031289  3.803327  -0.029  0.387858  -0.000578  4.072775  0.003  0.415378  -0.001121  4.086144  0.002  0.207846  0.365833  0.000274  4.064168  0.003
C  C27  1  0.24676041  0.84043710  0.41101829  1  0.382258  0.031369  3.80306  0.029  0.388027  0.000577  4.072506  -0.003  0.415397  0.001125  4.08584  -0.002  0.207807  0.366005  -0.000275  4.063912  -0.003
C  C28  1  0.59410452  0.29156146  0.40627606  1  0.625293  -0.007024  3.941244  -0.01  0.579473  -0.000221  4.25064  -0.001  0.610995  -0.000244  4.252818  -0.001  0.225246  0.557365  -9.7e-05  4.247573  -0.001
C  C29  1  0.40589430  0.70844447  0.59372904  1  0.625227  0.007041  3.941099  0.01  0.579412  0.000222  4.250549  0.001  0.61095  0.000247  4.252771  0.001  0.225326  0.5573  9.8e-05  4.247475  0.001
N  N30  1  0.89955307  0.84103943  0.83666754  1  -0.442869  0.093953  2.905534  0.1  -0.454815  0.046657  3.207139  0.06  -0.488021  0.036052  3.211002  0.048  -0.366174  -0.428647  0.052691  3.205003  0.064
N  N31  1  0.10045225  0.15895025  0.16333552  1  -0.442841  -0.093829  2.905688  -0.1  -0.454689  -0.046648  3.207223  -0.06  -0.487567  -0.036048  3.210916  -0.048  -0.366106  -0.428534  -0.052679  3.205093  -0.063
N  N32  1  0.26885101  0.91325383  0.87035028  1  -0.438696  0.101268  2.927557  0.106  -0.444847  0.053834  3.230095  0.067  -0.47945  0.04227  3.235777  0.056  -0.359567  -0.418539  0.060003  3.22774  0.071
N  N33  1  0.73115747  0.08673433  0.12964569  1  -0.438719  -0.101172  2.927293  -0.106  -0.444813  -0.053833  3.229835  -0.067  -0.479061  -0.042272  3.235281  -0.056  -0.359518  -0.418514  -0.060001  3.227485  -0.071
N  N34  1  0.75509805  0.56145700  0.11688160  1  -0.665042  0.01553  3.102257  0.016  -0.639522  0.002076  3.344396  0.002  -0.665658  0.000331  3.342041  0.0  -0.569414  -0.618604  0.00474  3.344434  0.005
N  N35  1  0.24489696  0.43854724  0.88311802  1  -0.665152  -0.015505  3.102344  -0.016  -0.639625  -0.002076  3.344422  -0.002  -0.665715  -0.000332  3.341945  0.0  -0.569435  -0.618701  -0.00474  3.344474  -0.005
N  N36  1  0.26525548  0.16955191  0.65996402  1  -0.469391  0.076976  2.913949  0.082  -0.469866  0.043727  3.206959  0.056  -0.498565  0.035437  3.210079  0.048  -0.370092  -0.450353  0.047009  3.207905  0.057
N  N37  1  0.73475566  0.83046772  0.34003717  1  -0.469489  -0.077066  2.913578  -0.082  -0.46994  -0.04374  3.206587  -0.056  -0.498357  -0.035448  3.209574  -0.048  -0.370131  -0.450423  -0.047024  3.207522  -0.057
N  N38  1  0.89094782  0.12300654  0.63745313  1  -0.475146  0.084672  2.944014  0.089  -0.474155  0.050229  3.23674  0.063  -0.504364  0.040538  3.237974  0.054  -0.367323  -0.453074  0.05406  3.238221  0.063
N  N39  1  0.10903861  0.87697369  0.36255136  1  -0.475193  -0.084723  2.943797  -0.089  -0.474164  -0.050232  3.236491  -0.063  -0.504058  -0.040538  3.237563  -0.054  -0.367276  -0.453095  -0.054063  3.237982  -0.063
N  N40  1  0.42859197  0.34032206  0.35653583  1  -0.699864  0.006997  3.089563  0.007  -0.66474  0.001022  3.319754  0.001  -0.687578  0.000152  3.314787  0.0  -0.575353  -0.648943  0.00201  3.323162  0.002
N  N41  1  0.57141244  0.65968400  0.64346781  1  -0.699786  -0.006988  3.089535  -0.007  -0.664668  -0.001021  3.319656  -0.001  -0.687467  -0.00015  3.31463  0.0  -0.575336  -0.648873  -0.002008  3.323071  -0.002
O  O42  1  0.43292677  0.59664190  0.13108143  1  -0.630767  0.003757  2.028892  0.005  -0.568941  0.001578  2.245572  0.002  -0.597081  0.000634  2.239351  0.001  -0.305228  -0.547941  0.002358  2.249173  0.003
O  O43  1  0.56706960  0.40335634  0.86891361  1  -0.630753  -0.003749  2.028894  -0.005  -0.56894  -0.001578  2.245574  -0.002  -0.597055  -0.000632  2.239312  -0.001  -0.305204  -0.547897  -0.002358  2.249127  -0.003
O  O44  1  0.75176573  0.31462284  0.34663862  1  -0.610208  0.008944  1.951843  0.01  -0.584261  0.002407  2.192259  0.002  -0.607463  0.001193  2.182793  0.001  -0.316478  -0.566156  0.003634  2.197489  0.004
O  O45  1  0.24823687  0.68537878  0.65336927  1  -0.610085  -0.008934  1.951826  -0.01  -0.584174  -0.002405  2.192311  -0.002  -0.607554  -0.001189  2.182992  -0.001  -0.316481  -0.566066  -0.003632  2.197533  -0.004
O  O46  1  0.93799361  0.29991036  0.84783722  1  -0.830824  -0.000572  1.874984  0.0  -0.79696  -0.000948  2.06168  -0.001  -0.815292  -0.001022  2.03261  -0.001  -0.580642  -0.782128  -0.000539  2.082131  0.0
O  O47  1  0.06201144  0.70008668  0.15216056  1  -0.830847  0.000573  1.874938  0.0  -0.796947  0.000946  2.061641  0.001  -0.815045  0.001022  2.032471  0.001  -0.580659  -0.782121  0.00054  2.082096  0.0
