# generated using pymatgen
data_AlH8C16IBrO5
_symmetry_space_group_name_H-M   'P 1'
_cell_length_a   6.62985460
_cell_length_b   21.14199600
_cell_length_c   21.88691438
_cell_angle_alpha   90.02629723
_cell_angle_beta   90.01703833
_cell_angle_gamma   96.27572922
_symmetry_Int_Tables_number   1
_chemical_formula_structural   AlH8C16IBrO5
_chemical_formula_sum   'Al4 H32 C64 I4 Br4 O20'
_cell_volume   3049.46780639
_cell_formula_units_Z   4
loop_
 _symmetry_equiv_pos_site_id
 _symmetry_equiv_pos_as_xyz
  1  'x, y, z'
loop_
 _atom_site_type_symbol
 _atom_site_label
 _atom_site_symmetry_multiplicity
 _atom_site_fract_x
 _atom_site_fract_y
 _atom_site_fract_z
 _atom_site_occupancy
 _atom_site_pbe_bader_charge
 _atom_site_pbe_bader_spin_density
 _atom_site_pbe_cm5_charge
 _atom_site_pbe_ddec_charge
 _atom_site_pbe_ddec_spin_density
 _atom_site_pbe_ddec_sum_bond_order
 _atom_site_pbe_magmom
Al  Al0  1  0.01940254  0.31405002  0.50171668  1  2.497991  0  0.393165  1.64493  0  2.57777  0
Al  Al1  1  0.97349964  0.68682817  0.00161227  1  2.500504  0  0.393023  1.645063  0  2.57603  0
Al  Al2  1  0.51987233  0.31398965  0.50180592  1  2.502364  0  0.395992  1.644302  0  2.564549  0
Al  Al3  1  0.47306196  0.68699839  0.00146219  1  2.501285  0  0.396265  1.645053  0  2.563221  0
H  H4  1  0.53427586  0.18797337  0.64790037  1  0.097024  0  0.111649  0.117367  0  0.99081  0
H  H5  1  0.45963979  0.81188856  0.14840425  1  0.081979  0  0.111677  0.11815  0  0.990369  0
H  H6  1  0.96333199  0.85270243  0.91407644  1  0.118826  0  0.111294  0.119176  0  0.98968  0
H  H7  1  0.02854691  0.14723155  0.41594980  1  0.123379  0  0.111542  0.119174  0  0.990449  0
H  H8  1  0.59042101  0.83482153  0.87667538  1  0.100261  0  0.109048  0.11463  0  0.995895  0
H  H9  1  0.40142843  0.16483066  0.37835851  1  0.110915  0  0.109829  0.116036  0  0.996718  0
H  H10  1  0.43507104  0.02792703  0.77767425  1  0.086337  0  0.109208  0.121053  0  0.998158  0
H  H11  1  0.55742004  0.97095315  0.27998552  1  0.067164  0  0.109327  0.121151  0  0.997842  0
H  H12  1  0.87625138  0.05149125  0.65814460  1  0.088902  0  0.08839  0.089617  0  1.059181  0
H  H13  1  0.11621813  0.94903371  0.15973185  1  0.083097  0  0.088285  0.089635  0  1.058815  0
H  H14  1  0.97495725  0.94553127  0.84369280  1  0.059814  0  0.093955  0.097562  0  1.022817  0
H  H15  1  0.01648168  0.05361857  0.34638974  1  0.047433  0  0.09471  0.09978  0  1.02323  0
H  H16  1  0.90849716  0.14998384  0.59581144  1  0.104719  0  0.113261  0.120386  0  0.98567  0
H  H17  1  0.08440479  0.85145783  0.09601438  1  0.091505  0  0.112973  0.120091  0  0.986523  0
H  H18  1  0.50425443  0.09131163  0.71189801  1  0.068595  0  0.101417  0.100923  0  1.015156  0
H  H19  1  0.48904295  0.90763163  0.21379084  1  0.058045  0  0.101028  0.100187  0  1.014492  0
H  H20  1  0.60276023  0.92656216  0.80436099  1  0.045016  0  0.086363  0.086059  0  1.059085  0
H  H21  1  0.38876135  0.07246434  0.30662708  1  0.082803  0  0.086411  0.086736  0  1.059476  0
H  H22  1  0.32770885  0.67514722  0.69538122  1  0.074016  0  0.108106  0.124391  0  0.987005  0
H  H23  1  0.64558901  0.32599807  0.19593883  1  0.086712  0  0.108108  0.124334  0  0.987269  0
H  H24  1  0.40107320  0.62913082  0.59924535  1  0.099181  0  0.104658  0.115834  0  0.996709  0
H  H25  1  0.57791518  0.37256157  0.09993040  1  0.08442  0  0.10431  0.115088  0  0.997681  0
H  H26  1  0.23144580  0.41251702  0.68365635  1  0.080347  0  0.090274  0.103062  0  1.065278  0
H  H27  1  0.76494294  0.58858513  0.18402638  1  0.069349  0  0.089335  0.101543  0  1.067473  0
H  H28  1  0.09373310  0.49245793  0.94541587  1  0.118269  0  0.103019  0.107153  0  1.008725  0
H  H29  1  0.90706431  0.50730710  0.44521002  1  0.068622  0  0.102966  0.107619  0  1.008862  0
H  H30  1  0.17648280  0.39711775  0.88966867  1  0.117922  0  0.099207  0.110566  0  1.002778  0
H  H31  1  0.83085198  0.60366925  0.38993907  1  0.104891  0  0.099737  0.111522  0  1.001985  0
H  H32  1  0.78353011  0.35219563  0.57221727  1  0.607133  0  0.353503  0.434288  0  0.849628  0
H  H33  1  0.21006485  0.64951456  0.07233865  1  0.633055  0  0.353889  0.434197  0  0.848173  0
H  H34  1  0.27847384  0.33426537  0.42489753  1  0.635547  0  0.353258  0.43568  0  0.847989  0
H  H35  1  0.71430865  0.66557770  0.92491187  1  0.634638  0  0.352367  0.43514  0  0.848795  0
C  C36  1  0.72969241  0.21957304  0.43991631  1  1.556431  0  0.261034  0.629052  0  4.128763  0
C  C37  1  0.26290620  0.78078296  0.93894739  1  1.566768  0  0.260719  0.628246  0  4.127491  0
C  C38  1  0.80374475  0.39021753  0.41735316  1  1.601701  0  0.25654  0.636998  0  4.147055  0
C  C39  1  0.18769678  0.61011663  0.91752033  1  1.596022  0  0.256644  0.637574  0  4.144974  0
C  C40  1  0.30595909  0.40848392  0.56636989  1  1.593271  0  0.263528  0.651974  0  4.113006  0
C  C41  1  0.68714918  0.59297612  0.06682750  1  1.587366  0  0.263089  0.652437  0  4.111257  0
C  C42  1  0.23842344  0.23298912  0.57885542  1  1.570972  0  0.269125  0.638046  0  4.104995  0
C  C43  1  0.75513263  0.76824751  0.07843117  1  1.56108  0  0.268719  0.637116  0  4.10481  0
C  C44  1  0.22209832  0.17556208  0.61863122  1  -0.017809  0  -0.014276  -0.045865  0  3.978403  0
C  C45  1  0.77130287  0.82519579  0.11886541  1  -0.001645  0  -0.013546  -0.043265  0  3.978632  0
C  C46  1  0.38968790  0.15821496  0.65135030  1  -0.012015  0  -0.078857  -0.08497  0  3.97695  0
C  C47  1  0.60388101  0.84182364  0.15210254  1  -0.044888  0  -0.079702  -0.088906  0  3.979982  0
C  C48  1  0.37134778  0.10370500  0.68721536  1  -0.055186  0  -0.088428  -0.124253  0  3.957094  0
C  C49  1  0.62191532  0.89580581  0.18874847  1  -0.027032  0  -0.088494  -0.122321  0  3.957725  0
C  C50  1  0.18534024  0.06414543  0.69104402  1  -0.057465  0  -0.011894  0.073635  0  4.020027  0
C  C51  1  0.80745891  0.93557123  0.19286811  1  -0.005283  0  -0.012111  0.073661  0  4.019454  0
C  C52  1  0.02013157  0.08166226  0.65695439  1  -0.043441  0  -0.097838  -0.132958  0  3.988239  0
C  C53  1  0.97261819  0.91872538  0.15831219  1  -0.019779  0  -0.097434  -0.132248  0  3.985896  0
C  C54  1  0.03748536  0.13670621  0.62185171  1  0.014643  0  -0.078021  -0.075638  0  3.96447  0
C  C55  1  0.95553452  0.86419676  0.12241989  1  -0.041833  0  -0.077511  -0.076076  0  3.965832  0
C  C56  1  0.10865521  0.92051823  0.84966954  1  -0.013239  0  -0.094315  -0.135064  0  3.983688  0
C  C57  1  0.88290513  0.07877333  0.35205960  1  -0.040515  0  -0.094555  -0.137099  0  3.986122  0
C  C58  1  0.10213932  0.86923735  0.88950388  1  -0.026821  0  -0.0813  -0.082092  0  3.968837  0
C  C59  1  0.88970946  0.13047011  0.39144600  1  -0.032978  0  -0.081355  -0.082473  0  3.968099  0
C  C60  1  0.45682427  0.85959607  0.86895903  1  -0.041982  0  -0.081227  -0.085355  0  3.976716  0
C  C61  1  0.53504985  0.14000007  0.37074924  1  -0.046748  0  -0.081897  -0.086391  0  3.977161  0
C  C62  1  0.46278280  0.91075802  0.82882163  1  -0.041957  0  -0.093609  -0.132461  0  3.955341  0
C  C63  1  0.52888021  0.08845258  0.33098919  1  -0.066432  0  -0.092711  -0.132792  0  3.953374  0
C  C64  1  0.28757421  0.94113629  0.81742985  1  -0.034499  0  -0.009512  0.130599  0  4.024651  0
C  C65  1  0.70402749  0.05796939  0.31982779  1  0.026582  0  -0.011865  0.130082  0  4.023356  0
C  C66  1  0.16501203  0.00730370  0.73044095  1  -0.174676  0  -0.012204  0.057978  0  3.922003  0
C  C67  1  0.82728129  0.99205382  0.23279587  1  -0.145021  0  -0.012245  0.057269  0  3.922713  0
C  C68  1  0.29790920  0.99426517  0.77430737  1  0.053352  0  -0.092609  -0.186482  0  3.967791  0
C  C69  1  0.69423978  0.00478362  0.27673163  1  0.050958  0  -0.09215  -0.186939  0  3.968193  0
C  C70  1  0.27541077  0.83792691  0.89891817  1  -0.011089  0  -0.019529  -0.050287  0  3.989818  0
C  C71  1  0.71666920  0.16198041  0.40048322  1  -0.041947  0  -0.019832  -0.050527  0  3.98868  0
C  C72  1  0.37494739  0.58123775  0.61812740  1  -0.036595  0  -0.096136  -0.172516  0  3.979202  0
C  C73  1  0.60786111  0.42040822  0.11875953  1  0.012205  0  -0.09553  -0.170382  0  3.981646  0
C  C74  1  0.32090329  0.46728862  0.60520896  1  0.082722  0  -0.017217  -0.053418  0  3.970774  0
C  C75  1  0.67104512  0.53420636  0.10568537  1  0.014607  0  -0.01695  -0.055098  0  3.969408  0
C  C76  1  0.14178439  0.49680451  0.89786120  1  -0.041472  0  -0.089486  -0.09311  0  4.008909  0
C  C77  1  0.85628079  0.50338716  0.39786691  1  0.056967  0  -0.089221  -0.09324  0  4.009742  0
C  C78  1  0.18673947  0.44272648  0.86611668  1  -0.065521  0  -0.105003  -0.123098  0  4.052569  0
C  C79  1  0.81499558  0.55800346  0.36640437  1  -0.03175  0  -0.105686  -0.125135  0  4.054232  0
C  C80  1  0.26002762  0.44810037  0.80679152  1  -0.192593  0  -0.042434  0.020993  0  3.846746  0
C  C81  1  0.73920218  0.55326612  0.30731837  1  -0.241697  0  -0.042485  0.021972  0  3.845347  0
C  C82  1  0.26408430  0.50623724  0.77359570  1  0.017606  0  0.000379  0.017479  0  3.885312  0
C  C83  1  0.72798156  0.49494715  0.27403313  1  0.064217  0  0.000296  0.015788  0  3.882199  0
C  C84  1  0.23047995  0.56257358  0.80861427  1  0.005163  0  -0.000613  0.020274  0  3.91735  0
C  C85  1  0.75779628  0.43816349  0.30887220  1  0.015074  0  -0.001122  0.022425  0  3.915935  0
C  C86  1  0.29805992  0.51221228  0.70801179  1  0.036005  0  -0.006378  0.034805  0  3.94552  0
C  C87  1  0.69136012  0.48918048  0.20853596  1  -0.007228  0  -0.006204  0.035831  0  3.944885  0
C  C88  1  0.33621139  0.57393614  0.68140959  1  -0.005191  0  -0.003722  0.108215  0  4.017545  0
C  C89  1  0.64692659  0.42757327  0.18205865  1  -0.00072  0  -0.004322  0.106308  0  4.019605  0
C  C90  1  0.31193491  0.62860654  0.71729191  1  0.110144  0  -0.096898  -0.189849  0  4.012604  0
C  C91  1  0.66651405  0.37254545  0.21786927  1  0.124003  0  -0.096898  -0.188799  0  4.012488  0
C  C92  1  0.24930982  0.62257980  0.77650612  1  -0.171317  0  -0.015497  0.060216  0  3.969762  0
C  C93  1  0.73202385  0.37808604  0.27685078  1  -0.177565  0  -0.014764  0.059015  0  3.971606  0
C  C94  1  0.28088712  0.46019963  0.66725716  1  -0.041804  0  -0.089014  -0.136457  0  3.950797  0
C  C95  1  0.71198286  0.54110563  0.16771168  1  0.005037  0  -0.088084  -0.133894  0  3.945838  0
C  C96  1  0.37119892  0.52861151  0.58061087  1  -0.258675  0  -0.045579  0.036047  0  3.940688  0
C  C97  1  0.61694601  0.47301126  0.08111970  1  -0.260117  0  -0.046261  0.035366  0  3.943621  0
C  C98  1  0.17943064  0.55664831  0.87160770  1  0.002991  0  -0.010404  -0.056452  0  3.911615  0
C  C99  1  0.81258606  0.44373348  0.37160366  1  -0.045505  0  -0.009603  -0.056557  0  3.914455  0
I  I100  1  0.41667151  0.54147232  0.48608112  1  0.122695  0  0.099947  0.001766  0  1.484473  0
I  I101  1  0.57620458  0.46000632  0.98645462  1  0.126025  0  0.101201  0.002273  0  1.49341  0
I  I102  1  0.40111161  0.36680506  0.77913253  1  0.091524  0  0.071225  -0.040448  0  1.378738  0
I  I103  1  0.60733357  0.63643441  0.28016754  1  0.092963  0  0.071205  -0.041056  0  1.381052  0
Br  Br104  1  0.16809043  0.69783225  0.81232718  1  -0.036384  0  0.066464  -0.024844  0  1.567894  0
Br  Br105  1  0.80882105  0.30195267  0.31205749  1  -0.04202  0  0.065562  -0.025412  0  1.564865  0
Br  Br106  1  0.93080610  0.94714786  0.71473088  1  -0.084915  0  0.040662  -0.066153  0  1.468342  0
Br  Br107  1  0.06096507  0.05252500  0.21741343  1  -0.08625  0  0.041123  -0.06552  0  1.470824  0
O  O108  1  0.62633647  0.36617837  0.43255038  1  -1.2544  0  -0.239521  -0.604925  0  2.358192  0
O  O109  1  0.36509810  0.63466608  0.93224452  1  -1.252121  0  -0.23942  -0.604552  0  2.354005  0
O  O110  1  0.90701996  0.24711749  0.45032944  1  -1.262584  0  -0.235741  -0.596334  0  2.394192  0
O  O111  1  0.08580158  0.75317532  0.94955364  1  -1.264984  0  -0.235595  -0.596004  0  2.393979  0
O  O112  1  0.07304249  0.24971952  0.55806185  1  -1.255954  0  -0.232423  -0.583432  0  2.356566  0
O  O113  1  0.92049751  0.75180425  0.05734792  1  -1.252197  0  -0.231866  -0.582294  0  2.354524  0
O  O114  1  0.96998499  0.37837232  0.44143675  1  -1.257174  0  -0.241774  -0.606235  0  2.366726  0
O  O115  1  0.02185246  0.62147108  0.94215044  1  -1.259151  0  -0.241892  -0.606843  0  2.367095  0
O  O116  1  0.12841055  0.38071530  0.55769408  1  -1.24885  0  -0.232696  -0.587441  0  2.32233  0
O  O117  1  0.86459836  0.62094339  0.05848851  1  -1.253939  0  -0.233341  -0.588248  0  2.319995  0
O  O118  1  0.56505978  0.23820864  0.45917896  1  -1.257154  0  -0.233043  -0.581425  0  2.35067  0
O  O119  1  0.42782500  0.76254269  0.95845838  1  -1.259508  0  -0.232869  -0.58106  0  2.346872  0
O  O120  1  0.77196404  0.32154537  0.53905729  1  -1.409979  0  -0.44778  -0.982842  0  2.18571  0
O  O121  1  0.22133723  0.67976046  0.03887084  1  -1.436372  0  -0.447879  -0.982766  0  2.185534  0
O  O122  1  0.47167945  0.39085490  0.54709716  1  -1.250828  0  -0.235393  -0.594334  0  2.337858  0
O  O123  1  0.52158074  0.61037119  0.04710973  1  -1.254298  0  -0.235246  -0.594317  0  2.337059  0
O  O124  1  0.41459998  0.26118907  0.56801592  1  -1.259923  0  -0.236212  -0.58961  0  2.336988  0
O  O125  1  0.57895802  0.74010816  0.06741644  1  -1.25565  0  -0.235788  -0.589834  0  2.338494  0
O  O126  1  0.26947021  0.31263624  0.46406923  1  -1.43837  0  -0.448276  -0.986178  0  2.18877  0
O  O127  1  0.72332155  0.68781817  0.96378811  1  -1.436115  0  -0.447721  -0.986345  0  2.187314  0
