# generated using pymatgen
data_ZnH11C11(N2O)2
_symmetry_space_group_name_H-M   'P 1'
_cell_length_a   14.69999412
_cell_length_b   16.63993544
_cell_length_c   17.33502592
_cell_angle_alpha   92.87605064
_cell_angle_beta   87.38942673
_cell_angle_gamma   81.64697575
_symmetry_Int_Tables_number   1
_chemical_formula_structural   ZnH11C11(N2O)2
_chemical_formula_sum   'Zn8 H88 C88 N32 O16'
_cell_volume   4184.00778602
_cell_formula_units_Z   8
loop_
 _symmetry_equiv_pos_site_id
 _symmetry_equiv_pos_as_xyz
  1  'x, y, z'
loop_
 _atom_site_type_symbol
 _atom_site_label
 _atom_site_symmetry_multiplicity
 _atom_site_fract_x
 _atom_site_fract_y
 _atom_site_fract_z
 _atom_site_occupancy
 _atom_site_pbe_bader_charge
 _atom_site_pbe_bader_spin_density
 _atom_site_pbe_cm5_charge
 _atom_site_pbe_ddec_charge
 _atom_site_pbe_ddec_spin_density
 _atom_site_pbe_ddec_sum_bond_order
 _atom_site_pbe_magmom
Zn  Zn0  1  0.52834330  0.56940431  0.88854421  1  1.213335  0  0.73549  0.612934  0  2.489649  0
Zn  Zn1  1  0.50117307  0.44082831  0.07940090  1  1.203747  0  0.717535  0.606835  0  2.454708  0
Zn  Zn2  1  0.99242629  0.92767805  0.40974678  1  1.168283  0  0.754963  0.60873  0  2.585673  0
Zn  Zn3  1  0.99612134  0.04571431  0.64983400  1  1.175055  0  0.732234  0.615447  0  2.43217  0
Zn  Zn4  1  0.37367178  0.57992713  0.01320675  1  1.155874  0  0.744254  0.636044  0  2.432875  0
Zn  Zn5  1  0.83019552  0.02745490  0.49816970  1  1.20865  0  0.746684  0.68048  0  2.322434  0
Zn  Zn6  1  0.68838813  0.47784308  0.98804951  1  1.184397  0  0.754946  0.651133  0  2.319737  0
Zn  Zn7  1  0.14425004  0.98193214  0.53340206  1  1.21272  0  0.730297  0.609117  0  2.431816  0
H  H8  1  0.47976516  0.76878744  0.83720903  1  0.063971  0  0.110792  0.097641  0  1.005943  0
H  H9  1  0.41130218  0.50965926  0.28076634  1  0.094856  0  0.116095  0.10576  0  0.992172  0
H  H10  1  0.88657171  0.19704756  0.39953349  1  0.065967  0  0.109843  0.101762  0  1.018382  0
H  H11  1  0.85376017  0.13836287  0.77555321  1  0.078672  0  0.116778  0.103174  0  1.000303  0
H  H12  1  0.17019390  0.35166261  0.23725513  1  0.038661  0  0.101  0.123907  0  0.965743  0
H  H13  1  0.25099076  0.46527421  0.64941921  1  0.0147  0  0.0893  0.104069  0  0.99327  0
H  H14  1  0.80150115  0.85627619  0.70228334  1  0.038667  0  0.098848  0.112617  0  0.979385  0
H  H15  1  0.67731405  0.90810131  0.16027406  1  0.080824  0  0.096835  0.116691  0  0.980745  0
H  H16  1  0.89232420  0.83338711  0.76492174  1  0.060583  0  0.104499  0.130187  0  0.957818  0
H  H17  1  0.79097690  0.85512118  0.15739175  1  -0.001473  0  0.091476  0.101024  0  1.001104  0
H  H18  1  0.27993866  0.32838916  0.27546580  1  0.054757  0  0.096157  0.110205  0  0.992413  0
H  H19  1  0.36308406  0.40999498  0.65477033  1  0.024692  0  0.089905  0.096137  0  1.004186  0
H  H20  1  0.94877724  0.68352174  0.81864462  1  0.02302  0  0.095243  0.102163  0  0.981012  0
H  H21  1  0.73012165  0.63078904  0.18549619  1  0.098283  0  0.095127  0.103554  0  0.979862  0
H  H22  1  0.28823832  0.09562099  0.30520346  1  0.02591  0  0.094203  0.100571  0  0.983718  0
H  H23  1  0.29875787  0.20044606  0.72227620  1  0.046131  0  0.096792  0.102354  0  0.982378  0
H  H24  1  0.36948132  0.18512639  0.23969492  1  0.007367  0  0.089926  0.09348  0  0.981483  0
H  H25  1  0.38382110  0.30453218  0.75735117  1  -0.002934  0  0.086383  0.086507  0  0.994667  0
H  H26  1  0.03465485  0.73731058  0.72196529  1  0.040882  0  0.096623  0.103398  0  0.9756  0
H  H27  1  0.81363097  0.72566661  0.24019023  1  0.027406  0  0.088599  0.087564  0  0.997479  0
H  H28  1  0.08497072  0.12980006  0.18859668  1  0.043887  0  0.100843  0.042194  0  0.955736  0
H  H29  1  0.07335961  0.32742261  0.75153403  1  0.028512  0  0.096547  0.032646  0  0.974274  0
H  H30  1  0.88704895  0.58015240  0.65111482  1  0.027165  0  0.095339  0.026934  0  0.969232  0
H  H31  1  0.50396583  0.75419324  0.23117703  1  0.02808  0  0.098418  0.035259  0  0.968723  0
H  H32  1  0.12494329  0.27082683  0.12200678  1  0.047823  0  0.098798  0.104229  0  0.990408  0
H  H33  1  0.13742740  0.47950889  0.76454639  1  -0.010584  0  0.087052  0.084492  0  1.005168  0
H  H34  1  0.78275940  0.73607582  0.60359081  1  0.04614  0  0.105521  0.109768  0  0.992776  0
H  H35  1  0.56709477  0.90120875  0.27425552  1  0.057176  0  0.097505  0.10786  0  0.98904  0
H  H36  1  0.18623612  0.17003987  0.10088346  1  -0.004407  0  0.093964  0.090761  0  0.989347  0
H  H37  1  0.15102821  0.40461965  0.83364854  1  0.074648  0  0.098304  0.121137  0  0.983682  0
H  H38  1  0.88657846  0.67831417  0.55797929  1  0.013303  0  0.100254  0.106  0  0.969698  0
H  H39  1  0.58193703  0.81281502  0.32706769  1  0.052056  0  0.094756  0.106279  0  0.972655  0
H  H40  1  0.97220128  0.59227169  0.76001922  1  -0.008404  0  0.085892  0.075273  0  1.008409  0
H  H41  1  0.63718448  0.65556779  0.25449738  1  0.025503  0  0.090619  0.085207  0  0.981334  0
H  H42  1  0.23606424  0.06524796  0.22104370  1  0.002484  0  0.086789  0.079441  0  0.987383  0
H  H43  1  0.20665510  0.23802796  0.78904503  1  0.02166  0  0.089712  0.085821  0  0.9831  0
H  H44  1  0.47577679  0.62607576  0.17186046  1  0.128737  0  0.11891  0.103499  0  1.037158  0
H  H45  1  0.64223774  0.63933835  0.75900157  1  0.131424  0  0.124031  0.124598  0  1.007832  0
H  H46  1  0.00361324  0.24248236  0.67158787  1  0.088691  0  0.109861  0.101815  0  1.015977  0
H  H47  1  0.99077319  0.07925351  0.28447796  1  0.111382  0  0.120638  0.115699  0  0.996722  0
H  H48  1  0.34546133  0.13078011  0.15464513  1  0.005958  0  0.088367  0.088356  0  0.983469  0
H  H49  1  0.31116603  0.31592514  0.84263422  1  0.046068  0  0.095567  0.108895  0  1.000337  0
H  H50  1  0.02375518  0.65862864  0.65250668  1  0.003689  0  0.09021  0.090435  0  0.981562  0
H  H51  1  0.74040475  0.72393189  0.32369095  1  0.024439  0  0.087313  0.086614  0  0.986063  0
H  H52  1  0.33992398  0.65276934  0.38909880  1  0.080183  0  0.097155  0.103564  0  0.99711  0
H  H53  1  0.35729389  0.84260548  0.77235125  1  0.039613  0  0.093816  0.092301  0  1.00602  0
H  H54  1  0.71551642  0.19473408  0.86007587  1  0.04274  0  0.095284  0.094765  0  0.998412  0
H  H55  1  0.85077929  0.29229693  0.25580324  1  0.118519  0  0.096145  0.117703  0  1.021883  0
H  H56  1  0.60312099  0.23865262  0.71876601  1  0.059357  0  0.10008  0.105077  0  0.991217  0
H  H57  1  0.64863348  0.31933276  0.31837821  1  0.007788  0  0.089133  0.078097  0  1.025678  0
H  H58  1  0.18056069  0.68407148  0.28065415  1  0.032877  0  0.093347  0.08712  0  1.018882  0
H  H59  1  0.23151468  0.89577277  0.91765775  1  0.040301  0  0.094123  0.096545  0  0.997043  0
H  H60  1  0.21235197  0.64125158  0.13832393  1  0.052608  0  0.117247  0.106531  0  0.993273  0
H  H61  1  0.26776773  0.76907905  0.01918678  1  0.066312  0  0.10963  0.096137  0  1.009011  0
H  H62  1  0.65970241  0.11089271  0.59927872  1  0.122945  0  0.119107  0.111821  0  1.007838  0
H  H63  1  0.59085682  0.20540754  0.39181667  1  0.04263  0  0.107572  0.095243  0  1.001989  0
H  H64  1  0.87513776  0.53820587  0.88511862  1  0.084747  0  0.120056  0.117649  0  0.988218  0
H  H65  1  0.67963765  0.66128284  0.99468602  1  0.143955  0  0.11853  0.109549  0  1.024561  0
H  H66  1  0.20068411  0.12316508  0.44185872  1  0.167242  0  0.117009  0.111495  0  1.036543  0
H  H67  1  0.27827047  0.14457985  0.57998280  1  0.09715  0  0.116414  0.110057  0  1.001035  0
H  H68  1  0.54154324  0.38519085  0.78360807  1  0.068216  0  0.115942  0.0996  0  1.002489  0
H  H69  1  0.58468024  0.36046710  0.22232856  1  0.073018  0  0.116385  0.10098  0  1.012217  0
H  H70  1  0.07924420  0.75189576  0.36038305  1  0.074109  0  0.116552  0.103734  0  1.004351  0
H  H71  1  0.10962143  0.99347982  0.82511029  1  0.083227  0  0.114969  0.104952  0  0.999404  0
H  H72  1  0.41469732  0.33708039  0.19296676  1  0.053535  0  0.104657  0.087145  0  1.024  0
H  H73  1  0.40972421  0.52345103  0.72587962  1  0.07954  0  0.109771  0.09884  0  1.003075  0
H  H74  1  0.05573579  0.86664804  0.66977507  1  0.137667  0  0.124659  0.112065  0  1.028626  0
H  H75  1  0.89897069  0.82196596  0.27345256  1  0.066526  0  0.110927  0.098011  0  1.008777  0
H  H76  1  0.84662360  0.40306832  0.12122527  1  0.067894  0  0.117567  0.112884  0  0.994981  0
H  H77  1  0.66233227  0.29088818  0.99034398  1  0.102153  0  0.120349  0.116535  0  0.988344  0
H  H78  1  0.30050241  0.87934335  0.64017573  1  0.083861  0  0.115277  0.103052  0  0.99972  0
H  H79  1  0.31171354  0.81421517  0.48289847  1  0.075103  0  0.117046  0.108117  0  0.99725  0
H  H80  1  0.67344570  0.81712629  0.75633641  1  0.569461  0  0.327009  0.362098  0  0.885178  0
H  H81  1  0.58867835  0.84356444  0.06444424  1  0.643027  0  0.30682  0.368551  0  0.934204  0
H  H82  1  0.07431279  0.27255444  0.39013248  1  0.579917  0  0.323224  0.361144  0  0.893353  0
H  H83  1  0.15605407  0.38469902  0.57054137  1  0.618983  0  0.2997  0.361512  0  0.951896  0
H  H84  1  0.02969323  0.28024903  0.26790540  1  0.613075  0  0.293378  0.331152  0  0.995649  0
H  H85  1  0.04098592  0.45311490  0.68203938  1  0.584539  0  0.310921  0.335374  0  0.935716  0
H  H86  1  0.73735568  0.56058252  0.66279622  1  0.60108  0  0.31277  0.340574  0  0.922621  0
H  H87  1  0.46572054  0.88764784  0.18341093  1  0.581871  0  0.328422  0.359367  0  0.890692  0
H  H88  1  0.29953281  0.40473908  0.96767799  1  0.621728  0  0.285305  0.301986  0  1.062144  0
H  H89  1  0.19632523  0.24420909  0.02166029  1  0.600471  0  0.313388  0.341021  0  0.954899  0
H  H90  1  0.65346746  0.03388654  0.41717165  1  0.634657  0  0.292144  0.315566  0  1.018284  0
H  H91  1  0.81502618  0.78417528  0.52178053  1  0.61199  0  0.326323  0.358421  0  0.925409  0
H  H92  1  0.75134882  0.74148264  0.87524885  1  0.599248  0  0.312337  0.354496  0  0.917434  0
H  H93  1  0.80808818  0.76194534  0.05313444  1  0.587982  0  0.32562  0.361655  0  0.882944  0
H  H94  1  0.23929529  0.28672100  0.41169877  1  0.626981  0  0.317731  0.364526  0  0.904585  0
H  H95  1  0.37478891  0.30052252  0.56336845  1  0.582023  0  0.324494  0.356491  0  0.888354  0
C  C96  1  0.43552764  0.75666441  0.88591591  1  0.410374  0  0.002866  -0.053966  0  3.971569  0
C  C97  1  0.37055695  0.53542836  0.23477465  1  0.411918  0  0.007897  -0.060365  0  3.972694  0
C  C98  1  0.81463061  0.18895476  0.40554884  1  0.415528  0  0.002116  -0.044475  0  3.963114  0
C  C99  1  0.81657090  0.12111269  0.72606497  1  0.414846  0  0.003333  -0.062889  0  3.981633  0
C  C100  1  0.77487931  0.39997015  0.13688424  1  0.411555  0  -0.001222  -0.073546  0  3.962681  0
C  C101  1  0.62757342  0.32596737  0.94616202  1  0.390805  0  -0.000506  -0.0655  0  3.946304  0
C  C102  1  0.24386580  0.91340758  0.67606015  1  0.372647  0  0.004362  -0.065271  0  4.00561  0
C  C103  1  0.24625708  0.81123677  0.45703853  1  0.412783  0  0.001171  -0.069003  0  3.976349  0
C  C104  1  0.61647169  0.30354599  0.86888270  1  0.001659  0  -0.03622  0.017179  0  4.105382  0
C  C105  1  0.73666007  0.36466359  0.20060715  1  0.034546  0  -0.036711  0.024277  0  4.108437  0
C  C106  1  0.21987762  0.74917591  0.40836517  1  -0.06678  0  -0.042691  0.012114  0  4.140092  0
C  C107  1  0.23342048  0.92201802  0.75731507  1  0.007528  0  -0.044139  0.009864  0  4.147558  0
C  C108  1  0.30882097  0.28698703  0.12276417  1  -0.025746  0  -0.060496  -0.202823  0  4.028093  0
C  C109  1  0.31475829  0.46551967  0.80417731  1  0.046859  0  -0.046628  -0.168035  0  3.991252  0
C  C110  1  0.94218280  0.82123121  0.60756108  1  0.009748  0  -0.044934  -0.180802  0  3.979281  0
C  C111  1  0.75336364  0.87800714  0.30852639  1  0.045042  0  -0.048817  -0.173638  0  3.952532  0
C  C112  1  0.79133177  0.75053998  0.76765006  1  0.95845  0  0.147039  0.483733  0  3.824923  0
C  C113  1  0.69168933  0.78299739  0.11265186  1  0.962821  0  0.150606  0.489093  0  3.800994  0
C  C114  1  0.18165321  0.25419392  0.31753514  1  0.928306  0  0.152124  0.481885  0  3.791949  0
C  C115  1  0.26049516  0.33435224  0.62415014  1  0.976346  0  0.151065  0.493309  0  3.788542  0
C  C116  1  0.84826967  0.80614619  0.72466403  1  -0.030136  0  -0.16431  -0.325977  0  3.826768  0
C  C117  1  0.71831417  0.84907793  0.16979390  1  -0.057694  0  -0.170957  -0.347124  0  3.85121  0
C  C118  1  0.22201882  0.30138948  0.25277215  1  -0.045917  0  -0.164474  -0.32313  0  3.797268  0
C  C119  1  0.28953759  0.40902764  0.66921424  1  -0.03521  0  -0.170024  -0.340881  0  3.850869  0
C  C120  1  0.93931471  0.65614769  0.76115771  1  0.003402  0  -0.159221  -0.180123  0  3.878242  0
C  C121  1  0.68539656  0.68199649  0.21621440  1  -0.077664  0  -0.159791  -0.17065  0  3.884117  0
C  C122  1  0.25286411  0.11859264  0.25467336  1  -0.003997  0  -0.161256  -0.168985  0  3.88307  0
C  C123  1  0.25474308  0.25623006  0.74489432  1  -0.024068  0  -0.157428  -0.167589  0  3.876506  0
C  C124  1  0.10452194  0.18799370  0.20998624  1  0.46677  0  -8.3e-05  0.216768  0  3.80126  0
C  C125  1  0.12230764  0.35837042  0.71818080  1  0.430579  0  2.5e-05  0.198687  0  3.799975  0
C  C126  1  0.83140043  0.63252802  0.66206427  1  0.493626  0  0.000264  0.2136  0  3.839232  0
C  C127  1  0.55359876  0.79035171  0.20538794  1  0.431653  0  0.004378  0.200518  0  3.799186  0
C  C128  1  0.83512865  0.65895119  0.74994708  1  0.044068  0  -0.015611  -0.049962  0  3.76948  0
C  C129  1  0.62800777  0.73116148  0.15679860  1  0.053146  0  -0.008487  -0.039883  0  3.757694  0
C  C130  1  0.15997107  0.17117071  0.28280200  1  0.037777  0  -0.016131  -0.059097  0  3.803072  0
C  C131  1  0.19655306  0.29227997  0.67868149  1  0.039089  0  -0.012781  -0.040211  0  3.773613  0
C  C132  1  0.25439806  0.24483973  0.17985006  1  0.068547  0  -0.010249  0.179791  0  3.821204  0
C  C133  1  0.27190996  0.40455890  0.75699539  1  0.07916  0  -0.009134  0.183932  0  3.822603  0
C  C134  1  0.90935055  0.75824894  0.65775906  1  0.072952  0  -0.006617  0.175125  0  3.808768  0
C  C135  1  0.70262486  0.82804017  0.25488886  1  0.07764  0  -0.007144  0.18329  0  3.80339  0
C  C136  1  0.31330071  0.16724346  0.20603119  1  0.008821  0  -0.164796  -0.201055  0  3.881297  0
C  C137  1  0.31160686  0.31798570  0.77949410  1  0.011763  0  -0.163959  -0.203388  0  3.853818  0
C  C138  1  0.98494731  0.70176277  0.69657647  1  -0.022821  0  -0.157391  -0.198887  0  3.836399  0
C  C139  1  0.74138469  0.73689125  0.26213402  1  -0.04346  0  -0.164703  -0.199951  0  3.885592  0
C  C140  1  0.52155710  0.62364349  0.12067527  1  0.374139  0  0.020803  -0.018708  0  3.900078  0
C  C141  1  0.68957572  0.60637737  0.79644851  1  0.407696  0  0.002637  -0.066409  0  4.02957  0
C  C142  1  0.06589197  0.20680064  0.64495889  1  0.382863  0  -0.012129  -0.08113  0  4.019179  0
C  C143  1  0.03833781  0.07996954  0.33054564  1  0.398824  0  0.000938  -0.065719  0  3.991209  0
C  C144  1  0.16682299  0.21892761  0.14660140  1  -0.06437  0  -0.1653  -0.289334  0  3.853165  0
C  C145  1  0.16639644  0.41572734  0.77284371  1  -0.058358  0  -0.165086  -0.283229  0  3.856974  0
C  C146  1  0.85145138  0.70274665  0.61351656  1  -0.053516  0  -0.161674  -0.284891  0  3.870152  0
C  C147  1  0.59765590  0.83662316  0.27069259  1  -0.059269  0  -0.164128  -0.281813  0  3.850134  0
C  C148  1  0.27370995  0.67820700  0.36764384  1  -0.02393  0  -0.110405  -0.149133  0  4.05627  0
C  C149  1  0.29823639  0.87767445  0.80555746  1  -0.030806  0  -0.108734  -0.138406  0  4.096139  0
C  C150  1  0.66365376  0.23056676  0.82734818  1  -0.00654  0  -0.101645  -0.130301  0  4.069741  0
C  C151  1  0.77731225  0.31599499  0.26156216  1  -0.079631  0  -0.114332  -0.160478  0  4.017399  0
C  C152  1  0.65737118  0.20709737  0.75214335  1  -0.080421  0  -0.102546  -0.133359  0  4.04885  0
C  C153  1  0.72141699  0.29307955  0.31822905  1  0.004276  0  -0.102655  -0.113608  0  4.083966  0
C  C154  1  0.24496028  0.65113507  0.29935540  1  -0.069975  0  -0.103343  -0.124  0  4.096632  0
C  C155  1  0.29084328  0.86509149  0.88181405  1  -0.006759  0  -0.107309  -0.13602  0  4.07611  0
C  C156  1  0.26831335  0.60159700  0.16205916  1  0.443362  0  0.003187  -0.066462  0  3.995294  0
C  C157  1  0.32792086  0.75742279  0.97915033  1  0.404468  0  -0.005274  -0.073702  0  4.00733  0
C  C158  1  0.71767285  0.10745823  0.63632336  1  0.383258  0  0.010747  -0.045347  0  3.949236  0
C  C159  1  0.66361197  0.19264989  0.40312539  1  0.443837  0  -0.006184  -0.06414  0  4.04043  0
C  C160  1  0.80864619  0.55598080  0.86117014  1  0.383258  0  0.001638  -0.064918  0  3.97663  0
C  C161  1  0.62528532  0.64170701  0.03004657  1  0.406484  0  0.014846  -0.017764  0  3.923508  0
C  C162  1  0.14493086  0.10208197  0.41182611  1  0.397296  0  0.001419  -0.050064  0  3.98286  0
C  C163  1  0.20567227  0.15571572  0.59801980  1  0.425198  0  0.00879  -0.036554  0  3.966322  0
C  C164  1  0.35125834  0.80154624  0.91620314  1  -0.003604  0  -0.045693  0.006468  0  4.140402  0
C  C165  1  0.29091066  0.59480301  0.23945993  1  -0.001808  0  -0.045053  0.002917  0  4.159285  0
C  C166  1  0.73628993  0.23176594  0.37417836  1  -0.017222  0  -0.051636  -0.008407  0  4.145229  0
C  C167  1  0.72440036  0.14647652  0.70929419  1  0.035161  0  -0.03978  0.012648  0  4.124108  0
C  C168  1  0.58962981  0.67181796  0.10351260  1  0.018751  0  -0.021808  0.003069  0  3.938375  0
C  C169  1  0.78501759  0.60658972  0.80014763  1  -0.042418  0  -0.04579  -0.062723  0  4.047567  0
C  C170  1  0.15586868  0.22457927  0.63920841  1  -0.022467  0  -0.040259  -0.026983  0  4.016576  0
C  C171  1  0.11170675  0.12437617  0.34000410  1  -0.084001  0  -0.044761  -0.059129  0  4.049231  0
C  C172  1  0.56511605  0.37459001  0.84124612  1  0.459508  0  0.024391  -0.013633  0  3.910493  0
C  C173  1  0.64154338  0.37911968  0.18901554  1  0.377772  0  0.007935  -0.054615  0  3.981432  0
C  C174  1  0.12846837  0.77952096  0.39380223  1  0.457587  0  0.001203  -0.069365  0  3.999266  0
C  C175  1  0.14680135  0.97116672  0.77089118  1  0.388464  0  0.001185  -0.063054  0  3.962047  0
C  C176  1  0.38336719  0.32808351  0.13817408  1  0.406046  0  -0.011615  -0.054647  0  4.06745  0
C  C177  1  0.37998499  0.51485007  0.78291875  1  0.371214  0  -0.004156  -0.047603  0  4.056585  0
C  C178  1  0.00661246  0.87222010  0.62491068  1  0.409381  0  0.015524  -0.003789  0  3.967621  0
C  C179  1  0.84963461  0.86389562  0.30996257  1  0.356464  0  -0.00247  -0.054091  0  4.082727  0
C  C180  1  0.30514330  0.47753701  0.88553004  1  1.049319  0  0.176804  0.370199  0  4.117876  0
C  C181  1  0.30086428  0.29604301  0.04266002  1  0.99135  0  0.166176  0.333166  0  4.110138  0
C  C182  1  0.72774613  0.94043683  0.36747661  1  1.071991  0  0.180198  0.373444  0  4.080146  0
C  C183  1  0.89745789  0.85849927  0.54555985  1  0.993869  0  0.184397  0.361687  0  4.064008  0
N  N184  1  0.45862077  0.69064032  0.92625262  1  -0.769139  0  -0.264423  -0.181988  0  3.485343  0
N  N185  1  0.39404572  0.51115766  0.16059336  1  -0.761568  0  -0.254464  -0.176339  0  3.487143  0
N  N186  1  0.78843159  0.13009646  0.44831937  1  -0.827838  0  -0.291934  -0.201245  0  3.650623  0
N  N187  1  0.86061556  0.07142388  0.66792497  1  -0.816453  0  -0.282203  -0.17657  0  3.594673  0
N  N188  1  0.51730707  0.56752351  0.06169553  1  -0.835548  0  -0.289592  -0.221716  0  3.583741  0
N  N189  1  0.65934195  0.56087308  0.85037331  1  -0.795624  0  -0.284646  -0.162519  0  3.629484  0
N  N190  1  0.06261447  0.13258414  0.60919900  1  -0.808338  0  -0.304656  -0.222797  0  3.598451  0
N  N191  1  0.03037473  0.03402920  0.39237279  1  -0.820634  0  -0.295857  -0.196136  0  3.629508  0
N  N192  1  0.33088067  0.55232319  0.11569719  1  -0.824032  0  -0.29288  -0.181171  0  3.622011  0
N  N193  1  0.39164989  0.69100935  0.98410726  1  -0.795667  0  -0.292568  -0.187426  0  3.587602  0
N  N194  1  0.79872447  0.06268568  0.61186731  1  -0.801282  0  -0.274165  -0.18537  0  3.529573  0
N  N195  1  0.69494600  0.13070332  0.44608912  1  -0.758783  0  -0.273368  -0.258789  0  3.36925  0
N  N196  1  0.73226128  0.52865490  0.89129340  1  -0.782269  0  -0.2685  -0.180556  0  3.521905  0
N  N197  1  0.58301846  0.57851669  0.00548108  1  -0.850522  0  -0.315416  -0.235833  0  3.655168  0
N  N198  1  0.09610129  0.04804031  0.44209348  1  -0.789882  0  -0.283163  -0.187127  0  3.605863  0
N  N199  1  0.14963346  0.10174812  0.58074071  1  -0.784962  0  -0.272758  -0.180017  0  3.568003  0
N  N200  1  0.54956886  0.43417612  0.89680514  1  -0.784432  0  -0.260945  -0.187629  0  3.466606  0
N  N201  1  0.62473455  0.41860153  0.12490559  1  -0.810159  0  -0.283861  -0.165564  0  3.624476  0
N  N202  1  0.10441521  0.85391847  0.42842457  1  -0.818289  0  -0.291416  -0.166584  0  3.65379  0
N  N203  1  0.11000170  0.98943197  0.70262144  1  -0.782598  0  -0.272483  -0.18783  0  3.544482  0
N  N204  1  0.41453293  0.35965517  0.07353007  1  -0.808284  0  -0.294424  -0.18895  0  3.661233  0
N  N205  1  0.40639122  0.55525342  0.84555204  1  -0.799735  0  -0.303119  -0.206317  0  3.583072  0
N  N206  1  0.00091714  0.93652255  0.57925778  1  -0.827279  0  -0.293458  -0.224602  0  3.525155  0
N  N207  1  0.87877933  0.91196265  0.36500353  1  -0.844132  0  -0.31678  -0.194911  0  3.745845  0
N  N208  1  0.35900807  0.53220308  0.90925653  1  -0.843974  0  -0.30872  -0.312203  0  3.60131  0
N  N209  1  0.36231342  0.34054719  0.01341731  1  -0.741128  0  -0.272445  -0.305298  0  3.28824  0
N  N210  1  0.80351540  0.95864928  0.40191167  1  -0.798531  0  -0.294892  -0.308998  0  3.521413  0
N  N211  1  0.93189470  0.92774462  0.52792678  1  -0.846098  0  -0.304668  -0.321131  0  3.511575  0
N  N212  1  0.70700264  0.43238043  0.09151378  1  -0.800571  0  -0.279654  -0.196057  0  3.573762  0
N  N213  1  0.58802952  0.40499161  0.96283923  1  -0.843266  0  -0.30486  -0.23587  0  3.598888  0
N  N214  1  0.17037822  0.95299491  0.64447803  1  -0.803851  0  -0.284485  -0.183725  0  3.632971  0
N  N215  1  0.17686060  0.87430940  0.46789096  1  -0.7688  0  -0.267874  -0.170918  0  3.536375  0
O  O216  1  0.69910127  0.76045696  0.74280928  1  -1.086074  0  -0.391493  -0.547602  0  2.215903  0
O  O217  1  0.65102845  0.81772804  0.04667232  1  -1.144953  0  -0.419527  -0.58196  0  2.1603  0
O  O218  1  0.09913799  0.30414538  0.35004108  1  -1.091135  0  -0.390676  -0.550089  0  2.182271  0
O  O219  1  0.21845524  0.35765107  0.55419967  1  -1.138244  0  -0.426989  -0.60574  0  2.16591  0
O  O220  1  0.01946532  0.24170657  0.22531229  1  -1.138862  0  -0.427438  -0.533987  0  2.186788  0
O  O221  1  0.07207508  0.40155154  0.65840937  1  -1.115242  0  -0.402038  -0.516322  0  2.222209  0
O  O222  1  0.74790496  0.60912588  0.63658579  1  -1.11782  0  -0.40761  -0.493177  0  2.207679  0
O  O223  1  0.50553234  0.84461527  0.15298065  1  -1.103591  0  -0.396078  -0.516992  0  2.224442  0
O  O224  1  0.25384593  0.44286819  0.93633621  1  -1.204239  0  -0.377365  -0.500966  0  2.345108  0
O  O225  1  0.24196880  0.26847793  0.99200374  1  -1.142555  0  -0.365873  -0.457723  0  2.276254  0
O  O226  1  0.64361972  0.98067307  0.39041954  1  -1.181865  0  -0.3695  -0.47059  0  2.286799  0
O  O227  1  0.82854017  0.83632675  0.50457746  1  -1.144056  0  -0.33448  -0.428393  0  2.361653  0
O  O228  1  0.79109882  0.77399316  0.84756482  1  -1.12995  0  -0.404954  -0.559662  0  2.183072  0
O  O229  1  0.77168083  0.72902995  0.08351745  1  -1.112943  0  -0.393978  -0.536143  0  2.182915  0
O  O230  1  0.24365820  0.23756943  0.37740870  1  -1.13948  0  -0.393519  -0.548333  0  2.201915  0
O  O231  1  0.33856010  0.27566566  0.60147959  1  -1.108608  0  -0.387557  -0.526368  0  2.196402  0
