# generated using pymatgen
data_CdH16(CN)14
_symmetry_space_group_name_H-M   'P 1'
_cell_length_a   7.14021230
_cell_length_b   9.49787602
_cell_length_c   9.30240218
_cell_angle_alpha   120.69898094
_cell_angle_beta   108.67803090
_cell_angle_gamma   90.00000893
_symmetry_Int_Tables_number   1
_chemical_formula_structural   CdH16(CN)14
_chemical_formula_sum   'Cd1 H16 C14 N14'
_cell_volume   503.42502147
_cell_formula_units_Z   1
loop_
 _symmetry_equiv_pos_site_id
 _symmetry_equiv_pos_as_xyz
  1  'x, y, z'
loop_
 _atom_site_type_symbol
 _atom_site_label
 _atom_site_symmetry_multiplicity
 _atom_site_fract_x
 _atom_site_fract_y
 _atom_site_fract_z
 _atom_site_occupancy
 _atom_site_pbe_bader_spin_density
 _atom_site_pbe_cm5_charge
 _atom_site_pbe_ddec_charge
 _atom_site_pbe_ddec_spin_density
 _atom_site_pbe_ddec_sum_bond_order
 _atom_site_pbe_magmom
Cd  Cd0  1  0.50000028  0.00000152  0.00000130  1  0  0.784776  0.754203  0  2.445657  0
H  H1  1  0.87963591  0.80541859  0.86108310  1  0  0.111423  0.104591  0  1.060479  0
H  H2  1  0.12038995  0.94432891  0.13894945  1  0  0.111521  0.104367  0  1.060979  0
H  H3  1  0.12036298  0.19458098  0.13891940  1  0  0.111406  0.104568  0  1.060511  0
H  H4  1  0.87961218  0.05567187  0.86105232  1  0  0.111529  0.104356  0  1.060966  0
H  H5  1  0.85080797  0.46103608  0.65432135  1  0  0.115417  0.120874  0  1.067239  0
H  H6  1  0.14918924  0.80671165  0.34568804  1  0  0.115263  0.120613  0  1.068128  0
H  H7  1  0.14919090  0.53896345  0.34567898  1  0  0.115419  0.120883  0  1.067294  0
H  H8  1  0.85081140  0.19328911  0.65431227  1  0  0.11527  0.12064  0  1.068131  0
H  H9  1  0.30268535  0.56133289  0.73657839  1  0  0.137441  0.109864  0  0.994279  0
H  H10  1  0.69730126  0.82475093  0.26341489  1  0  0.137426  0.109478  0  0.994328  0
H  H11  1  0.69731352  0.43866663  0.26342194  1  0  0.137448  0.109875  0  0.994263  0
H  H12  1  0.30269968  0.17525110  0.73658722  1  0  0.137438  0.109485  0  0.994322  0
H  H13  1  0.51241545  0.22286716  0.44572755  1  0  0.128603  0.099093  0  0.99829  0
H  H14  1  0.48758519  0.77713360  0.55427276  1  0  0.128598  0.099083  0  0.998314  0
H  H15  1  0.31022017  0.26385067  0.52770351  1  0  0.127295  0.093438  0  1.049391  0
H  H16  1  0.68978018  0.73614887  0.47229718  1  0  0.127282  0.09343  0  1.049419  0
C  C17  1  0.75539314  0.70475885  0.80666951  1  0  -0.00856  -0.032952  0  4.002781  0
C  C18  1  0.24464490  0.89814291  0.19343424  1  0  -0.008834  -0.032837  0  4.002309  0
C  C19  1  0.24460722  0.29524070  0.19333227  1  0  -0.008536  -0.032899  0  4.002811  0
C  C20  1  0.75535723  0.10185788  0.80656752  1  0  -0.008794  -0.032708  0  4.002205  0
C  C21  1  0.74528662  0.53566919  0.70572075  1  0  -0.005402  -0.107147  0  3.906409  0
C  C22  1  0.25474972  0.83000325  0.29436486  1  0  -0.004775  -0.10597  0  3.906314  0
C  C23  1  0.25471108  0.46433160  0.29428100  1  0  -0.005434  -0.107193  0  3.906415  0
C  C24  1  0.74525239  0.16999749  0.70563473  1  0  -0.004792  -0.106053  0  3.906335  0
C  C25  1  0.45656404  0.58562207  0.74700697  1  0  0.138653  0.087635  0  3.928512  0
C  C26  1  0.54340722  0.83857719  0.25295407  1  0  0.139603  0.088809  0  3.928838  0
C  C27  1  0.54343334  0.41437743  0.25299190  1  0  0.138652  0.087645  0  3.928558  0
C  C28  1  0.45659343  0.16142359  0.74704732  1  0  0.139606  0.088849  0  3.928776  0
C  C29  1  0.47475492  0.28323083  0.56645282  1  0  0.055934  0.001999  0  3.860048  0
C  C30  1  0.52524544  0.71676871  0.43354787  1  0  0.055923  0.001962  0  3.860072  0
N  N31  1  0.57443409  0.73419461  0.83053075  1  0  -0.356091  -0.296147  0  3.520459  0
N  N32  1  0.42555293  0.90367013  0.16949213  1  0  -0.356704  -0.296959  0  3.521438  0
N  N33  1  0.42556657  0.26580622  0.16947282  1  0  -0.356118  -0.296215  0  3.520601  0
N  N34  1  0.57445068  0.09633066  0.83051000  1  0  -0.356712  -0.296995  0  3.521401  0
N  N35  1  0.55490139  0.46168676  0.66911981  1  0  -0.245677  0.019498  0  3.779259  0
N  N36  1  0.44510404  0.79256637  0.33089409  1  0  -0.246264  0.018969  0  3.781082  0
N  N37  1  0.44509925  0.53831402  0.33088159  1  0  -0.245652  0.019552  0  3.779253  0
N  N38  1  0.55489690  0.20743566  0.66910802  1  0  -0.246255  0.018922  0  3.781174  0
N  N39  1  0.15336247  0.90622610  0.81244980  1  0  -0.288642  -0.500517  0  2.869804  0
N  N40  1  0.84663455  0.09376574  0.18753650  1  0  -0.288737  -0.500635  0  2.869146  0
N  N41  1  0.08068579  0.82604579  0.65210120  1  0  0.067023  0.415023  0  4.55278  0
N  N42  1  0.91931814  0.17395632  0.34790489  1  0  0.067133  0.415072  0  4.552861  0
N  N43  1  0.00183475  0.74655321  0.49311526  1  0  -0.257042  -0.49881  0  2.694937  0
N  N44  1  0.99815812  0.25343983  0.50686957  1  0  -0.257061  -0.498742  0  2.69574  0
