# generated using pymatgen
data_Ce2H18C14S(NO9)2
_symmetry_space_group_name_H-M   'P 1'
_cell_length_a   6.76269257
_cell_length_b   13.66238380
_cell_length_c   14.63586043
_cell_angle_alpha   117.75122008
_cell_angle_beta   91.48422474
_cell_angle_gamma   90.00168356
_symmetry_Int_Tables_number   1
_chemical_formula_structural   Ce2H18C14S(NO9)2
_chemical_formula_sum   'Ce4 H36 C28 S2 N4 O36'
_cell_volume   1196.21827466
_cell_formula_units_Z   2
loop_
 _symmetry_equiv_pos_site_id
 _symmetry_equiv_pos_as_xyz
  1  'x, y, z'
loop_
 _atom_site_type_symbol
 _atom_site_label
 _atom_site_symmetry_multiplicity
 _atom_site_fract_x
 _atom_site_fract_y
 _atom_site_fract_z
 _atom_site_occupancy
 _atom_site_pbe_bader_charge
 _atom_site_pbe_bader_spin_density
 _atom_site_pbe_cm5_charge
 _atom_site_pbe_ddec_charge
 _atom_site_pbe_ddec_spin_density
 _atom_site_pbe_ddec_sum_bond_order
 _atom_site_pbe_magmom
Ce  Ce0  1  0.47055485  0.70473064  0.79131861  1  2.270385  -0.883087  1.307595  2.012159  -0.989574  2.322521  -0.862
Ce  Ce1  1  0.01998872  0.91541716  0.20749644  1  2.269267  0.886655  1.305123  2.014749  0.991807  2.314046  0.865
Ce  Ce2  1  0.52185419  0.29333744  0.20815874  1  2.270968  -0.885792  1.307197  2.017383  -0.990435  2.312292  -0.864
Ce  Ce3  1  0.97212406  0.08620072  0.79163974  1  2.268544  0.882561  1.308959  2.012884  0.98828  2.325952  0.861
H  H4  1  0.47116180  0.96059796  0.98098815  1  0.636561  -5.8e-05  0.310577  0.388824  2e-05  0.941376  0.0
H  H5  1  0.32143103  0.95341937  0.89836354  1  0.657369  6e-06  0.322272  0.415591  -1.9e-05  0.90301  0.0
H  H6  1  0.83484551  0.55862124  0.66453180  1  0.630077  1.3e-05  0.286275  0.342468  3.4e-05  1.024933  0.0
H  H7  1  0.91423373  0.68070450  0.74527878  1  0.654424  1.9e-05  0.311133  0.411572  7.3e-05  0.904401  0.0
H  H8  1  0.22498215  0.58127433  0.86789105  1  0.630735  -5.3e-05  0.328284  0.415931  2.2e-05  0.876701  0.0
H  H9  1  0.08762371  0.68658545  0.92479505  1  0.65808  -0.000102  0.307837  0.416598  -2.1e-05  0.905131  0.0
H  H10  1  0.64682799  0.97091870  0.54918073  1  0.103595  -0.000135  0.125658  0.099183  -7.2e-05  1.020449  0.0
H  H11  1  0.57914936  0.68968868  0.26616038  1  0.141698  -9.8e-05  0.124334  0.099318  -5.4e-05  0.983579  0.0
H  H12  1  0.58452979  0.65261455  0.54282218  1  0.123892  9.3e-05  0.125172  0.126572  5.8e-05  1.0033  0.0
H  H13  1  0.20154286  0.94216934  0.02002965  1  0.646696  2.4e-05  0.30683  0.39641  3.8e-05  0.936888  0.0
H  H14  1  0.14889146  0.06152525  0.10398574  1  0.629783  1e-05  0.318546  0.41268  2.5e-05  0.907871  0.0
H  H15  1  0.66129655  0.89455506  0.33655728  1  0.62784  -1.9e-05  0.286544  0.34331  -3.6e-05  1.023738  0.0
H  H16  1  0.57802962  0.93191628  0.25336922  1  0.631781  -2.6e-05  0.31117  0.412237  -7.4e-05  0.90382  0.0
H  H17  1  0.26658290  0.71762646  0.13340159  1  0.632288  7.9e-05  0.325028  0.412872  -1.3e-05  0.883613  0.0
H  H18  1  0.40505744  0.76051164  0.07234217  1  0.652877  0.000105  0.306622  0.413666  1.8e-05  0.909592  0.0
H  H19  1  0.85042091  0.42327540  0.45180092  1  0.128232  0.000107  0.125753  0.100262  7.1e-05  1.018579  0.0
H  H20  1  0.92151629  0.42398116  0.73457646  1  0.135425  0.000117  0.12425  0.098636  6e-05  0.985092  0.0
H  H21  1  0.91235632  0.11112739  0.45771507  1  0.133718  -0.0001  0.125407  0.126864  -6.1e-05  1.002468  0.0
H  H22  1  0.70313549  0.07887256  0.01988244  1  0.634283  -2.1e-05  0.306756  0.397443  -3.2e-05  0.935  0.0
H  H23  1  0.65442020  0.04654991  0.10644905  1  0.644486  -6e-06  0.319456  0.412978  -2.5e-05  0.906623  0.0
H  H24  1  0.16252968  0.44219398  0.33720018  1  0.639685  1.8e-05  0.286493  0.343307  3.5e-05  1.023781  0.0
H  H25  1  0.08004665  0.32123132  0.25543195  1  0.638158  4.3e-05  0.310639  0.412109  8e-05  0.904669  0.0
H  H26  1  0.76815538  0.41690767  0.13244327  1  0.635928  -8e-05  0.325812  0.413411  1.4e-05  0.881727  0.0
H  H27  1  0.90541727  0.31228266  0.07242069  1  0.662348  -0.000104  0.306753  0.414065  -1.8e-05  0.908927  0.0
H  H28  1  0.34934445  0.02860319  0.45159849  1  0.103581  -0.000133  0.125727  0.100506  -7.1e-05  1.018973  0.0
H  H29  1  0.42124943  0.31019046  0.73413515  1  0.137718  -0.000121  0.124305  0.099203  -6.2e-05  0.984471  0.0
H  H30  1  0.41186815  0.34638582  0.45701460  1  0.119462  9.2e-05  0.125173  0.126712  5.9e-05  1.002381  0.0
H  H31  1  0.96678537  0.01415365  0.97818194  1  0.625077  6.2e-05  0.309222  0.388935  -2.2e-05  0.943621  0.0
H  H32  1  0.81462397  0.94381479  0.89418084  1  0.662908  -6e-06  0.323336  0.415728  2.2e-05  0.902123  0.0
H  H33  1  0.33615496  0.10649310  0.66551463  1  0.630703  -1e-05  0.286397  0.342326  -3.4e-05  1.025259  0.0
H  H34  1  0.41733953  0.06563827  0.74647139  1  0.6421  -1.7e-05  0.310905  0.411308  -7.4e-05  0.905158  0.0
H  H35  1  0.72550898  0.28547753  0.86719161  1  0.627846  5.3e-05  0.327603  0.414301  -2.1e-05  0.879544  0.0
H  H36  1  0.58788537  0.23752457  0.92452778  1  0.662743  9.9e-05  0.307939  0.416431  2e-05  0.905159  0.0
H  H37  1  0.14634298  0.57812149  0.54889976  1  0.137322  0.000109  0.125995  0.09985  7.1e-05  1.021727  0.0
H  H38  1  0.07918539  0.57610328  0.26546011  1  0.138044  0.000101  0.124401  0.099036  5.5e-05  0.983482  0.0
H  H39  1  0.08434823  0.88961131  0.54164681  1  0.12419  -9.8e-05  0.124913  0.125945  -6e-05  1.002618  0.0
C  C40  1  0.61743511  0.87702825  0.67677549  1  1.621801  -0.01848  0.240624  0.646931  -0.006475  4.140163  -0.013
C  C41  1  0.60958999  0.81994586  0.56177069  1  -0.044322  -0.00356  -0.010914  -0.107202  -0.001124  3.975671  -0.001
C  C42  1  0.62258382  0.88160776  0.50781109  1  0.522251  -0.009841  0.069269  0.09415  -0.003309  3.877557  -0.007
C  C43  1  0.58740916  0.72476017  0.35007984  1  0.526533  -0.014302  0.061874  0.077008  -0.004732  3.908037  -0.009
C  C44  1  0.57988848  0.65590100  0.39699481  1  0.020452  -0.000152  -0.012778  -0.082322  -2.1e-05  3.979291  0.0
C  C45  1  0.59006163  0.70454174  0.50457380  1  -0.058935  -0.002948  -0.045959  -0.056589  -0.000862  3.890336  -0.002
C  C46  1  0.56158923  0.53324359  0.33147816  1  1.55537  -0.000732  0.198583  0.570648  -0.000206  4.242333  -0.001
C  C47  1  0.87754474  0.20228225  0.32401315  1  1.584634  0.019726  0.240828  0.646339  0.006835  4.145748  0.014
C  C48  1  0.88753040  0.25971823  0.43901005  1  0.01185  0.003618  -0.010317  -0.106189  0.001217  3.97526  0.001
C  C49  1  0.87527032  0.37525344  0.49313109  1  0.540643  0.010578  0.069752  0.096613  0.003573  3.871264  0.007
C  C50  1  0.91223337  0.37554379  0.65066053  1  0.492716  0.015744  0.061879  0.077542  0.005191  3.908379  0.01
C  C51  1  0.91893959  0.25986489  0.60350387  1  -0.073567  0.000251  -0.012991  -0.082308  2.3e-05  3.982429  0.0
C  C52  1  0.90749474  0.20122412  0.49596333  1  0.004698  0.002972  -0.045537  -0.056907  0.000894  3.892155  0.002
C  C53  1  0.93695493  0.20240516  0.66870347  1  1.52535  0.000888  0.199005  0.571372  0.000263  4.238349  0.001
C  C54  1  0.37761546  0.12201904  0.32359392  1  1.565527  -0.019737  0.241232  0.647712  -0.006832  4.144221  -0.014
C  C55  1  0.38690281  0.17927194  0.43861158  1  0.012798  -0.003721  -0.010131  -0.107005  -0.001263  3.974585  -0.001
C  C56  1  0.37438194  0.11785000  0.49282821  1  0.53391  -0.010631  0.068736  0.0946  -0.003596  3.874706  -0.007
C  C57  1  0.41180345  0.27485133  0.65021571  1  0.522074  -0.015794  0.061597  0.076572  -0.005223  3.907321  -0.01
C  C58  1  0.41824245  0.34340865  0.60296100  1  0.017973  -0.000273  -0.013097  -0.08271  -5.3e-05  3.983109  0.0
C  C59  1  0.40700297  0.29460312  0.49542944  1  -0.045467  -0.003068  -0.045035  -0.056089  -0.0009  3.891691  -0.002
C  C60  1  0.43576235  0.46593456  0.66811991  1  1.555271  -0.000922  0.198092  0.56994  -0.000279  4.241031  -0.001
C  C61  1  0.11756948  0.79961435  0.67606588  1  1.573153  0.018908  0.240383  0.647307  0.006541  4.14061  0.013
C  C62  1  0.10954626  0.74149277  0.56105622  1  -0.050199  0.003358  -0.011066  -0.107687  0.001137  3.976338  0.001
C  C63  1  0.12230919  0.62600371  0.50736374  1  0.541968  0.0098  0.069228  0.09399  0.003298  3.876996  0.006
C  C64  1  0.08733335  0.62496225  0.34936077  1  0.518543  0.014506  0.062094  0.077758  0.004794  3.907292  0.009
C  C65  1  0.07966681  0.74063020  0.39601094  1  0.002776  0.000107  -0.012786  -0.081621  -2e-06  3.977092  0.0
C  C66  1  0.08997359  0.79953995  0.50358507  1  -0.017342  0.003028  -0.046055  -0.05624  0.000896  3.889592  0.002
C  C67  1  0.06119227  0.79775987  0.33034088  1  1.523639  0.000707  0.199091  0.569801  0.000196  4.241127  0.001
S  S68  1  0.74407629  0.80153351  0.99926583  1  3.801547  -2.4e-05  0.566476  1.396181  -1.4e-05  6.425761  0.0
S  S69  1  0.24452937  0.19706012  0.00014585  1  3.803548  3.2e-05  0.568229  1.400123  1.3e-05  6.422051  0.0
N  N70  1  0.60989647  0.83479903  0.40445153  1  -1.276023  0.000295  -0.302211  -0.223508  0.000521  3.431054  0.002
N  N71  1  0.88911450  0.43149450  0.59648072  1  -1.272245  -0.000351  -0.302032  -0.224969  -0.000572  3.429334  -0.003
N  N72  1  0.38864270  0.16483717  0.59619260  1  -1.29243  0.000283  -0.301602  -0.223795  0.000572  3.427484  0.003
N  N73  1  0.10971264  0.56947675  0.40401661  1  -1.283861  -0.000303  -0.302179  -0.223721  -0.00053  3.43181  -0.002
O  O74  1  0.57924166  0.47047839  0.37397698  1  -1.174009  0.00118  -0.35107  -0.590607  0.000439  2.180154  0.002
O  O75  1  0.52797664  0.49429706  0.23419594  1  -1.175055  0.001974  -0.357183  -0.626707  0.000704  2.147824  0.003
O  O76  1  0.56673187  0.82269677  0.72307288  1  -1.200213  0.000266  -0.383638  -0.633798  0.000506  2.337171  0.007
O  O77  1  0.67215369  0.97897754  0.72454801  1  -1.209386  -0.009917  -0.382678  -0.655858  -0.002803  2.293736  -0.009
O  O78  1  0.37216617  0.90821106  0.93055288  1  -1.270537  -0.000389  -0.57629  -0.796935  -0.000214  2.120929  0.001
O  O79  1  0.79262052  0.63757372  0.71490809  1  -1.292924  0.000818  -0.637342  -0.849506  0.000262  2.145546  0.003
O  O80  1  0.17910674  0.64839260  0.86683118  1  -1.269752  -5.8e-05  -0.602636  -0.815749  1.5e-05  2.009963  0.002
O  O81  1  0.57141276  0.72380605  0.97328455  1  -1.335624  -0.000219  -0.361185  -0.687571  -7.1e-05  2.216506  0.001
O  O82  1  0.77097292  0.81787231  0.90641347  1  -1.340879  -0.000644  -0.368028  -0.688894  -0.000254  2.284726  0.001
O  O83  1  0.91765529  0.09721510  0.62616656  1  -1.142085  -0.001002  -0.353462  -0.592676  -0.000387  2.17641  -0.002
O  O84  1  0.97147678  0.26021936  0.76589771  1  -1.172396  -0.002046  -0.358261  -0.622617  -0.000725  2.150172  -0.003
O  O85  1  0.92623012  0.10140683  0.27728754  1  -1.202832  0.000154  -0.38321  -0.626635  -0.000411  2.328965  -0.007
O  O86  1  0.82335284  0.25731256  0.27703110  1  -1.208426  0.009786  -0.382354  -0.661347  0.002735  2.315071  0.009
O  O87  1  0.09971477  0.98413296  0.07210189  1  -1.265287  0.000281  -0.594315  -0.821603  0.00013  2.104191  -0.001
O  O88  1  0.70068127  0.92299926  0.28557957  1  -1.268019  -0.001025  -0.637704  -0.850924  -0.000337  2.145076  -0.003
O  O89  1  0.31310583  0.78369234  0.13048981  1  -1.270082  0.000245  -0.602534  -0.815593  4.5e-05  2.01464  -0.002
O  O90  1  0.92711155  0.75569916  0.02350497  1  -1.333929  0.000221  -0.359953  -0.683995  7.2e-05  2.225958  -0.001
O  O91  1  0.70547231  0.90741405  0.09308997  1  -1.347584  0.00049  -0.359376  -0.678867  0.000198  2.26912  -0.001
O  O92  1  0.41537773  0.52871503  0.62567787  1  -1.177937  0.000967  -0.353215  -0.59182  0.000379  2.178276  0.002
O  O93  1  0.47097214  0.50510770  0.76526123  1  -1.16507  0.002046  -0.357807  -0.621909  0.000728  2.152468  0.003
O  O94  1  0.43041890  0.17587727  0.27714583  1  -1.197102  -0.000116  -0.383102  -0.625065  0.000427  2.327967  0.007
O  O95  1  0.32022034  0.02070225  0.27637859  1  -1.204397  -0.009973  -0.383488  -0.661316  -0.002788  2.315068  -0.009
O  O96  1  0.60417756  0.09093202  0.07374081  1  -1.268646  -0.00029  -0.596991  -0.823937  -0.000135  2.105189  0.001
O  O97  1  0.20269451  0.36271874  0.28703240  1  -1.286443  0.001063  -0.638211  -0.852331  0.000342  2.144855  0.003
O  O98  1  0.81330260  0.34812316  0.13035607  1  -1.281084  -0.00026  -0.601847  -0.814992  -5e-05  2.013331  0.002
O  O99  1  0.42693992  0.26730468  0.02335160  1  -1.336144  -0.000249  -0.359222  -0.684477  -7.4e-05  2.223929  0.001
O  O100  1  0.20712274  0.18629905  0.09485640  1  -1.338689  -0.000496  -0.357545  -0.67714  -0.0002  2.273775  0.001
O  O101  1  0.07802101  0.90298512  0.37283826  1  -1.136464  -0.001215  -0.351747  -0.590677  -0.00045  2.178846  -0.002
O  O102  1  0.02817832  0.73959547  0.23303916  1  -1.187226  -0.001969  -0.356135  -0.625755  -0.000704  2.147713  -0.003
O  O103  1  0.06761229  0.90026258  0.72186385  1  -1.206183  -0.000327  -0.384173  -0.633685  -0.000522  2.339896  -0.008
O  O104  1  0.17144262  0.74562703  0.72427356  1  -1.198826  0.009997  -0.383212  -0.656279  0.002831  2.291036  0.009
O  O105  1  0.86996625  0.02002085  0.92848256  1  -1.264702  0.000423  -0.578686  -0.799382  0.000223  2.125795  -0.001
O  O106  1  0.29513471  0.07904612  0.71693786  1  -1.282383  -0.00085  -0.637659  -0.849773  -0.000269  2.145349  -0.003
O  O107  1  0.67964879  0.21755043  0.86664833  1  -1.27155  2.5e-05  -0.602342  -0.814249  -2.4e-05  2.012665  -0.002
O  O108  1  0.07123879  0.24791667  0.97353584  1  -1.33483  0.000194  -0.361794  -0.688811  6.8e-05  2.220788  -0.001
O  O109  1  0.27123494  0.08738044  0.90801934  1  -1.348753  0.000649  -0.36628  -0.688008  0.000255  2.280158  -0.001
