# generated using pymatgen
data_AgH12C22SN4(OF)3
_symmetry_space_group_name_H-M   'P 1'
_cell_length_a   10.58742213
_cell_length_b   10.64920983
_cell_length_c   13.01266183
_cell_angle_alpha   79.11002802
_cell_angle_beta   81.22768230
_cell_angle_gamma   91.31933976
_symmetry_Int_Tables_number   1
_chemical_formula_structural   AgH12C22SN4(OF)3
_chemical_formula_sum   'Ag2 H24 C44 S2 N8 O6 F6'
_cell_volume   1421.84083365
_cell_formula_units_Z   2
loop_
 _symmetry_equiv_pos_site_id
 _symmetry_equiv_pos_as_xyz
  1  'x, y, z'
loop_
 _atom_site_type_symbol
 _atom_site_label
 _atom_site_symmetry_multiplicity
 _atom_site_fract_x
 _atom_site_fract_y
 _atom_site_fract_z
 _atom_site_occupancy
 _atom_site_pbe_bader_spin_density
 _atom_site_pbe_cm5_charge
 _atom_site_pbe_ddec_charge
 _atom_site_pbe_ddec_spin_density
 _atom_site_pbe_ddec_sum_bond_order
 _atom_site_pbe_magmom
Ag  Ag0  1  0.45041768  0.50195041  0.36590100  1  0  0.56609  0.573449  0  2.12579  0
Ag  Ag1  1  0.54959273  0.49805217  0.63410700  1  0  0.566139  0.5735  0  2.12605  0
H  H2  1  0.13709650  0.83950133  0.47894019  1  0  0.102152  0.098637  0  1.043906  0
H  H3  1  0.86289876  0.16049796  0.52105143  1  0  0.102136  0.0987  0  1.043941  0
H  H4  1  0.94569027  0.92832957  0.56772377  1  0  0.107197  0.1143  0  1.017782  0
H  H5  1  0.05430905  0.07166833  0.43227522  1  0  0.107193  0.114276  0  1.017637  0
H  H6  1  0.80333682  0.54714471  0.72634821  1  0  0.108393  0.118848  0  1.02052  0
H  H7  1  0.19666336  0.45284851  0.27365307  1  0  0.10838  0.11889  0  1.020503  0
H  H8  1  0.00269283  0.45924254  0.64582916  1  0  0.11393  0.129521  0  0.998886  0
H  H9  1  0.99730428  0.54075579  0.35416160  1  0  0.113916  0.129436  0  0.998868  0
H  H10  1  0.74776623  0.83965053  0.48290258  1  0  0.11243  0.138416  0  1.009945  0
H  H11  1  0.25222448  0.16034172  0.51710337  1  0  0.112396  0.13843  0  1.009896  0
H  H12  1  0.67221821  0.03195995  0.37733568  1  0  0.105173  0.118589  0  1.013716  0
H  H13  1  0.32777436  0.96803316  0.62266752  1  0  0.105204  0.118607  0  1.013527  0
H  H14  1  0.56167756  0.18514194  0.66055183  1  0  0.110825  0.128886  0  1.014025  0
H  H15  1  0.43832768  0.81485815  0.33944894  1  0  0.11081  0.128815  0  1.014053  0
H  H16  1  0.64361363  0.99470768  0.76693650  1  0  0.114074  0.130533  0  0.980766  0
H  H17  1  0.35638502  0.00529515  0.23306472  1  0  0.114098  0.130553  0  0.980651  0
H  H18  1  0.49556618  0.78202088  0.75558564  1  0  0.108468  0.12027  0  1.018234  0
H  H19  1  0.50442575  0.21797270  0.24442603  1  0  0.108429  0.120222  0  1.018102  0
H  H20  1  0.38100153  0.70253406  0.93735971  1  0  0.116657  0.122744  0  0.967134  0
H  H21  1  0.61899832  0.29746097  0.06265667  1  0  0.11664  0.122708  0  0.96729  0
H  H22  1  0.74102101  0.61389361  0.04497440  1  0  0.112682  0.131468  0  0.995762  0
H  H23  1  0.25898580  0.38609874  0.95502531  1  0  0.112649  0.131484  0  0.995699  0
H  H24  1  0.85595104  0.69573700  0.86211201  1  0  0.115598  0.128852  0  0.978793  0
H  H25  1  0.14405001  0.30425519  0.13788781  1  0  0.115629  0.12886  0  0.978784  0
C  C26  1  0.19095582  0.59620716  0.50361319  1  0  0.217925  0.301988  0  3.976644  0
C  C27  1  0.80904891  0.40379400  0.49637283  1  0  0.217863  0.301834  0  3.976718  0
C  C28  1  0.08070325  0.64358752  0.55629126  1  0  0.000668  0.029081  0  4.088198  0
C  C29  1  0.91929499  0.35641200  0.44370296  1  0  0.000582  0.029042  0  4.088488  0
C  C30  1  0.06444980  0.77629161  0.53394767  1  0  -0.07163  -0.075899  0  3.958988  0
C  C31  1  0.93554262  0.22370584  0.46604703  1  0  -0.071614  -0.07604  0  3.959169  0
C  C32  1  0.95692634  0.82552594  0.58283897  1  0  -0.089376  -0.163785  0  3.975292  0
C  C33  1  0.04306740  0.17447571  0.41716089  1  0  -0.089357  -0.163642  0  3.975234  0
C  C34  1  0.86067852  0.74355661  0.65093821  1  0  0.10947  0.200682  0  3.994931  0
C  C35  1  0.13931796  0.25644127  0.34906196  1  0  0.109405  0.200551  0  3.994872  0
C  C36  1  0.87777019  0.61128589  0.67406315  1  0  -0.08595  -0.166383  0  3.959244  0
C  C37  1  0.12222510  0.38871253  0.32593017  1  0  -0.085883  -0.166507  0  3.959238  0
C  C38  1  0.98773854  0.56147427  0.62828026  1  0  -0.062807  -0.062565  0  3.909702  0
C  C39  1  0.01226164  0.43852260  0.37171725  1  0  -0.062713  -0.062246  0  3.909501  0
C  C40  1  0.70162050  0.90472518  0.63236637  1  0  0.106379  0.192669  0  4.005024  0
C  C41  1  0.29837404  0.09526988  0.36763616  1  0  0.106346  0.192567  0  4.00491  0
C  C42  1  0.70934944  0.91583791  0.52198172  1  0  -0.086052  -0.165382  0  3.949572  0
C  C43  1  0.29065085  0.08415092  0.47802731  1  0  -0.086026  -0.165373  0  3.949561  0
C  C44  1  0.66664967  0.02383202  0.46246319  1  0  -0.074214  -0.094495  0  3.971466  0
C  C45  1  0.33334574  0.97616475  0.53753505  1  0  -0.074257  -0.094574  0  3.971838  0
C  C46  1  0.61356749  0.12137255  0.51215466  1  0  -0.008334  0.012052  0  4.12452  0
C  C47  1  0.38643102  0.87862098  0.48785298  1  0  -0.008388  0.011948  0  4.124679  0
C  C48  1  0.56993880  0.23109150  0.45095890  1  0  0.213788  0.301664  0  3.976924  0
C  C49  1  0.43006064  0.76890748  0.54904217  1  0  0.213722  0.301526  0  3.97694  0
C  C50  1  0.60409756  0.10992025  0.62272052  1  0  -0.070702  -0.078427  0  3.935195  0
C  C51  1  0.39590306  0.89008544  0.37727910  1  0  -0.070594  -0.078186  0  3.935156  0
C  C52  1  0.64903402  0.00276791  0.68170002  1  0  -0.089313  -0.175638  0  3.974541  0
C  C53  1  0.35096572  0.99723060  0.31830956  1  0  -0.089356  -0.175673  0  3.974811  0
C  C54  1  0.68343578  0.74602381  0.79694848  1  0  0.107081  0.193972  0  4.009572  0
C  C55  1  0.31656945  0.25396807  0.20306078  1  0  0.107075  0.193841  0  4.009543  0
C  C56  1  0.54925034  0.74734654  0.81916322  1  0  -0.088438  -0.167156  0  3.992909  0
C  C57  1  0.45075302  0.25264991  0.18084238  1  0  -0.088312  -0.166937  0  3.992872  0
C  C58  1  0.48501986  0.70229361  0.92081975  1  0  -0.069711  -0.084718  0  3.962654  0
C  C59  1  0.51498639  0.29769929  0.07918994  1  0  -0.069744  -0.084709  0  3.963077  0
C  C60  1  0.55406573  0.65350099  0.00260057  1  0  -0.007464  0.018203  0  4.124212  0
C  C61  1  0.44594795  0.34648536  0.99740927  1  0  -0.007322  0.018263  0  4.12394  0
C  C62  1  0.48774303  0.60951142  0.10674878  1  0  0.207338  0.289551  0  4.00195  0
C  C63  1  0.51225939  0.39047593  0.89326715  1  0  0.207202  0.289549  0  4.001088  0
C  C64  1  0.68825790  0.64985404  0.98069833  1  0  -0.069887  -0.08019  0  3.937975  0
C  C65  1  0.31174820  0.35013955  0.01930663  1  0  -0.06983  -0.080232  0  3.937664  0
C  C66  1  0.75199060  0.69627498  0.87867296  1  0  -0.08542  -0.162758  0  3.962587  0
C  C67  1  0.24801247  0.30371560  0.12133148  1  0  -0.085553  -0.162826  0  3.962563  0
C  C68  1  0.75537867  0.83488672  0.19508036  1  0  0.279115  0.504526  0  4.045118  0
C  C69  1  0.24463082  0.16511723  0.80490135  1  0  0.279353  0.504727  0  4.044905  0
S  S70  1  0.74243547  0.68376341  0.29820919  1  0  0.475121  0.997614  0  6.400493  0
S  S71  1  0.25755327  0.31624783  0.70177495  1  0  0.475211  0.997758  0  6.400721  0
N  N72  1  0.28314242  0.56391918  0.45663546  1  0  -0.343522  -0.3875  0  3.278331  0
N  N73  1  0.71684940  0.43609151  0.54335450  1  0  -0.343456  -0.387406  0  3.278018  0
N  N74  1  0.74746375  0.79602272  0.69334535  1  0  -0.239492  -0.142481  0  3.657031  0
N  N75  1  0.25253381  0.20397171  0.30666149  1  0  -0.239446  -0.142281  0  3.656932  0
N  N76  1  0.53506505  0.32219081  0.40038048  1  0  -0.348473  -0.382005  0  3.290753  0
N  N77  1  0.46494117  0.67780935  0.59962090  1  0  -0.348375  -0.381842  0  3.290472  0
N  N78  1  0.43141541  0.57390202  0.19221346  1  0  -0.341212  -0.397963  0  3.13169  0
N  N79  1  0.56858967  0.42609329  0.80778824  1  0  -0.341207  -0.398057  0  3.130849  0
O  O80  1  0.61104071  0.68487643  0.35480577  1  0  -0.350461  -0.594301  0  2.369556  0
O  O81  1  0.38895274  0.31516166  0.64517257  1  0  -0.350512  -0.594388  0  2.369824  0
O  O82  1  0.76275522  0.58418761  0.23565574  1  0  -0.354265  -0.569855  0  2.177124  0
O  O83  1  0.23722349  0.41582687  0.76433928  1  0  -0.354357  -0.570023  0  2.176939  0
O  O84  1  0.84184816  0.70525086  0.36004765  1  0  -0.3459  -0.557914  0  2.188742  0
O  O85  1  0.15814630  0.29474772  0.63994884  1  0  -0.345889  -0.557879  0  2.189047  0
F  F86  1  0.75588756  0.94140869  0.23950071  1  0  -0.107411  -0.197151  0  1.345792  0
F  F87  1  0.24409842  0.05861497  0.76049918  1  0  -0.10739  -0.1971  0  1.346324  0
F  F88  1  0.86477947  0.84237011  0.12407989  1  0  -0.11132  -0.193008  0  1.315416  0
F  F89  1  0.13524182  0.15766644  0.87592543  1  0  -0.111484  -0.193078  0  1.315047  0
F  F90  1  0.65496597  0.84207911  0.14024060  1  0  -0.109216  -0.196959  0  1.35258  0
F  F91  1  0.34506337  0.15792851  0.85972825  1  0  -0.109294  -0.197072  0  1.35234  0
