# generated using pymatgen
data_ZnH13C18N5O3
_symmetry_space_group_name_H-M   'P 1'
_cell_length_a   8.64255745
_cell_length_b   13.22469380
_cell_length_c   16.61055234
_cell_angle_alpha   90.00001823
_cell_angle_beta   89.99978929
_cell_angle_gamma   90.00000449
_symmetry_Int_Tables_number   1
_chemical_formula_structural   ZnH13C18N5O3
_chemical_formula_sum   'Zn4 H52 C72 N20 O12'
_cell_volume   1898.50600164
_cell_formula_units_Z   4
loop_
 _symmetry_equiv_pos_site_id
 _symmetry_equiv_pos_as_xyz
  1  'x, y, z'
loop_
 _atom_site_type_symbol
 _atom_site_label
 _atom_site_symmetry_multiplicity
 _atom_site_fract_x
 _atom_site_fract_y
 _atom_site_fract_z
 _atom_site_occupancy
 _atom_site_pbe_bader_charge
 _atom_site_pbe_bader_spin_density
 _atom_site_pbe_cm5_charge
 _atom_site_pbe_ddec_charge
 _atom_site_pbe_ddec_spin_density
 _atom_site_pbe_ddec_sum_bond_order
 _atom_site_pbe_magmom
Zn  Zn0  1  0.86152941  0.88254234  0.75208325  1  1.225431  0  0.667604  0.634503  0  2.445324  0
Zn  Zn1  1  0.63846869  0.11745836  0.25208374  1  1.225426  0  0.667614  0.634558  0  2.445321  0
Zn  Zn2  1  0.36153103  0.61745859  0.24791683  1  1.225428  0  0.667606  0.63451  0  2.445356  0
Zn  Zn3  1  0.13846912  0.38254209  0.74791604  1  1.225423  0  0.667601  0.634549  0  2.445352  0
H  H4  1  0.20461105  0.16450532  0.89517295  1  0.12964  0  0.108692  0.125899  0  1.015763  0
H  H5  1  0.29538923  0.83549391  0.39517332  1  0.129654  0  0.108688  0.125876  0  1.015764  0
H  H6  1  0.70461169  0.33549439  0.10482671  1  0.129642  0  0.108696  0.12589  0  1.015725  0
H  H7  1  0.79538978  0.66450626  0.60482689  1  0.129635  0  0.108687  0.12588  0  1.015759  0
H  H8  1  0.42802196  0.40320271  0.84400830  1  0.105707  0  0.122767  0.10101  0  0.984455  0
H  H9  1  0.07197751  0.59679801  0.34400844  1  0.105696  0  0.122759  0.100988  0  0.984479  0
H  H10  1  0.92802221  0.09679625  0.15599153  1  0.105837  0  0.122768  0.101009  0  0.984476  0
H  H11  1  0.57197658  0.90320291  0.65599220  1  0.105704  0  0.122774  0.101007  0  0.984478  0
H  H12  1  0.65435308  0.52185424  0.85603058  1  0.10562  0  0.112823  0.118669  0  1.031049  0
H  H13  1  0.84564545  0.47814500  0.35603136  1  0.105598  0  0.112819  0.118674  0  1.031087  0
H  H14  1  0.15435317  0.97814518  0.14396930  1  0.105255  0  0.11281  0.118683  0  1.031073  0
H  H15  1  0.34564657  0.02185546  0.64396923  1  0.10525  0  0.112806  0.118659  0  1.031082  0
H  H16  1  0.78071900  0.87790996  0.05437143  1  0.048119  0  0.099863  0.099069  0  1.010437  0
H  H17  1  0.71928166  0.12209067  0.55437162  1  0.048125  0  0.099853  0.099066  0  1.010462  0
H  H18  1  0.28072031  0.62208870  0.94562881  1  0.048121  0  0.099847  0.099062  0  1.010406  0
H  H19  1  0.21927960  0.37791055  0.44562740  1  0.048118  0  0.099851  0.099077  0  1.010393  0
H  H20  1  0.46100708  0.69326081  0.65991629  1  0.10673  0  0.117375  0.129655  0  0.982766  0
H  H21  1  0.03899254  0.30673984  0.15991642  1  0.106741  0  0.117383  0.129671  0  0.982755  0
H  H22  1  0.96100605  0.80673938  0.34008420  1  0.107195  0  0.117368  0.12964  0  0.982772  0
H  H23  1  0.53899490  0.19326137  0.84008295  1  0.106726  0  0.117368  0.129658  0  0.982764  0
H  H24  1  0.09579797  0.89593455  0.03362684  1  0.148727  0  0.105328  0.108969  0  1.057391  0
H  H25  1  0.40420023  0.10406453  0.53362667  1  0.148705  0  0.105312  0.108953  0  1.057398  0
H  H26  1  0.59579943  0.60406486  0.96637315  1  0.148714  0  0.105313  0.108928  0  1.057405  0
H  H27  1  0.90419832  0.39593443  0.46637380  1  0.148716  0  0.105322  0.108957  0  1.057394  0
H  H28  1  0.00504727  0.61913664  0.94836769  1  0.101021  0  0.101832  0.105891  0  1.013097  0
H  H29  1  0.49495031  0.38086336  0.44836937  1  0.10105  0  0.101837  0.105909  0  1.013068  0
H  H30  1  0.50504829  0.88086276  0.05163127  1  0.101041  0  0.101836  0.105918  0  1.013088  0
H  H31  1  0.99495239  0.11913711  0.55163153  1  0.101042  0  0.101849  0.105915  0  1.013069  0
H  H32  1  0.05719559  0.08834549  0.78126898  1  0.083909  0  0.117993  0.09077  0  0.987323  0
H  H33  1  0.44280549  0.91165596  0.28126849  1  0.083918  0  0.118005  0.090756  0  0.987348  0
H  H34  1  0.55719427  0.41165496  0.21873156  1  0.083911  0  0.118012  0.090813  0  0.987249  0
H  H35  1  0.94280523  0.58834574  0.71873084  1  0.083909  0  0.117986  0.090736  0  0.987344  0
H  H36  1  0.24458041  0.56808966  0.65466982  1  0.088343  0  0.118924  0.087752  0  1.008804  0
H  H37  1  0.25541809  0.43191174  0.15466956  1  0.088345  0  0.118939  0.087771  0  1.008822  0
H  H38  1  0.74458052  0.93191051  0.34533049  1  0.088329  0  0.118929  0.087767  0  1.008819  0
H  H39  1  0.75541924  0.06808948  0.84532939  1  0.088352  0  0.118928  0.087774  0  1.008784  0
H  H40  1  0.22698134  0.06529982  0.02499113  1  0.093398  0  0.103519  0.090588  0  1.037277  0
H  H41  1  0.27301924  0.93469926  0.52499203  1  0.093334  0  0.10353  0.090584  0  1.037302  0
H  H42  1  0.72698046  0.43469988  0.97500848  1  0.093397  0  0.103522  0.090577  0  1.037314  0
H  H43  1  0.77301838  0.56529940  0.47500943  1  0.093411  0  0.103515  0.090577  0  1.037307  0
H  H44  1  0.74962357  0.78294219  0.18296801  1  0.098429  0  0.098302  0.103972  0  1.013214  0
H  H45  1  0.75037618  0.21705698  0.68296757  1  0.098427  0  0.09829  0.10397  0  1.013235  0
H  H46  1  0.24962465  0.71705571  0.81703229  1  0.098437  0  0.098271  0.103947  0  1.013254  0
H  H47  1  0.25037617  0.28294348  0.31703140  1  0.098415  0  0.098268  0.103942  0  1.013234  0
H  H48  1  0.99067410  0.52975219  0.07926259  1  0.044676  0  0.094364  0.088256  0  1.024401  0
H  H49  1  0.50932291  0.47024845  0.57926508  1  0.044671  0  0.094359  0.088235  0  1.024387  0
H  H50  1  0.49067448  0.97024875  0.92073604  1  0.044681  0  0.094352  0.088234  0  1.024379  0
H  H51  1  0.00932677  0.02975125  0.42073676  1  0.044677  0  0.094355  0.08825  0  1.024405  0
H  H52  1  0.86068323  0.61150609  0.19670132  1  0.074609  0  0.093083  0.089162  0  1.035795  0
H  H53  1  0.63931758  0.38849308  0.69670234  1  0.074577  0  0.0931  0.089227  0  1.03585  0
H  H54  1  0.36068211  0.88849257  0.80329876  1  0.074593  0  0.093118  0.089226  0  1.035872  0
H  H55  1  0.13931881  0.11150586  0.30329804  1  0.074587  0  0.093112  0.089243  0  1.035832  0
C  C56  1  0.57183387  0.61893624  0.76051428  1  -0.042143  0  0.017569  0.048223  0  3.961824  0
C  C57  1  0.92816302  0.38106372  0.26051488  1  -0.042202  0  0.017576  0.048175  0  3.961887  0
C  C58  1  0.07183558  0.88106317  0.23948576  1  -0.042135  0  0.017534  0.048151  0  3.961902  0
C  C59  1  0.42816579  0.11893826  0.73948495  1  -0.042191  0  0.017548  0.048186  0  3.961904  0
C  C60  1  0.68982669  0.69967006  0.77033564  1  1.274132  0  0.215341  0.397125  0  4.157945  0
C  C61  1  0.81017360  0.30032990  0.27033585  1  1.274117  0  0.215327  0.397175  0  4.158035  0
C  C62  1  0.18982615  0.80033011  0.22966477  1  1.274062  0  0.215343  0.397196  0  4.157978  0
C  C63  1  0.31017414  0.19967056  0.72966360  1  1.274111  0  0.215336  0.397116  0  4.158005  0
C  C64  1  0.14837072  0.09149266  0.90322029  1  -0.031843  0  -0.084566  -0.129359  0  3.939024  0
C  C65  1  0.35163066  0.90850732  0.40322117  1  -0.031821  0  -0.084576  -0.129282  0  3.938939  0
C  C66  1  0.64837026  0.40850779  0.09677948  1  -0.031816  0  -0.084592  -0.129336  0  3.938963  0
C  C67  1  0.85163010  0.59149285  0.59677893  1  -0.031847  0  -0.084557  -0.129317  0  3.938967  0
C  C68  1  0.89713144  0.75531601  0.99349480  1  -0.002233  0  -0.008112  0.047734  0  4.000965  0
C  C69  1  0.60286727  0.24468404  0.49349599  1  -0.002258  0  -0.008092  0.047716  0  4.001077  0
C  C70  1  0.39713363  0.74468417  0.00650462  1  -0.002256  0  -0.008076  0.047791  0  4.001111  0
C  C71  1  0.10286708  0.25531566  0.50650386  1  -0.00228  0  -0.008088  0.047738  0  4.001087  0
C  C72  1  0.43948746  0.46924355  0.80525462  1  0.502443  0  0.051087  0.093397  0  3.916199  0
C  C73  1  0.06051229  0.53075715  0.30525476  1  0.502441  0  0.051122  0.093481  0  3.916202  0
C  C74  1  0.93948627  0.03075616  0.19474519  1  0.502322  0  0.051103  0.09343  0  3.916196  0
C  C75  1  0.56051340  0.96924301  0.69474470  1  0.502429  0  0.051066  0.093395  0  3.916188  0
C  C76  1  0.56399804  0.53493052  0.81172509  1  0.005507  0  -0.07255  -0.150687  0  3.942767  0
C  C77  1  0.93600080  0.46506946  0.31172510  1  0.005518  0  -0.072538  -0.150695  0  3.942816  0
C  C78  1  0.06399665  0.96506889  0.18827496  1  0.005897  0  -0.072549  -0.150744  0  3.942804  0
C  C79  1  0.43600277  0.03493101  0.68827471  1  0.005907  0  -0.072517  -0.150656  0  3.942733  0
C  C80  1  0.82578897  0.80121556  0.05998347  1  -0.082149  0  -0.088697  -0.124973  0  3.978908  0
C  C81  1  0.67420934  0.19878432  0.55998317  1  -0.082114  0  -0.088709  -0.124986  0  3.979009  0
C  C82  1  0.32579264  0.69878386  0.94001668  1  -0.082086  0  -0.088696  -0.124996  0  3.978906  0
C  C83  1  0.17420847  0.30121614  0.44001594  1  -0.082108  0  -0.088675  -0.12496  0  3.978851  0
C  C84  1  0.45787938  0.62955650  0.70132792  1  0.021806  0  -0.071249  -0.14302  0  3.934307  0
C  C85  1  0.04212110  0.37044491  0.20132745  1  0.021781  0  -0.071284  -0.143026  0  3.934226  0
C  C86  1  0.95787750  0.87044443  0.29867319  1  0.020931  0  -0.07126  -0.142973  0  3.934273  0
C  C87  1  0.54212259  0.12955629  0.79867192  1  0.021799  0  -0.071261  -0.14303  0  3.934254  0
C  C88  1  0.08427025  0.94314415  0.98024920  1  -0.024947  0  -0.076345  -0.147335  0  3.929673  0
C  C89  1  0.41572826  0.05685511  0.48025155  1  -0.025276  0  -0.076254  -0.147246  0  3.929669  0
C  C90  1  0.58427146  0.55685526  0.01974961  1  -0.02495  0  -0.076242  -0.147157  0  3.929704  0
C  C91  1  0.91572713  0.44314460  0.51975011  1  -0.025249  0  -0.07622  -0.147199  0  3.929646  0
C  C92  1  0.95409725  0.65641598  0.00052173  1  -0.061055  0  -0.08402  -0.110596  0  3.952977  0
C  C93  1  0.54590148  0.34358387  0.50052352  1  -0.061054  0  -0.084017  -0.110575  0  3.952983  0
C  C94  1  0.45409821  0.84358345  0.99947757  1  -0.061074  0  -0.084041  -0.11066  0  3.953103  0
C  C95  1  0.04590248  0.15641658  0.49947765  1  -0.061068  0  -0.084046  -0.110628  0  3.953078  0
C  C96  1  0.06617536  0.04944706  0.83906837  1  0.517551  0  0.051617  0.102555  0  3.952516  0
C  C97  1  0.43382299  0.95055290  0.33906850  1  0.517558  0  0.051579  0.102491  0  3.952407  0
C  C98  1  0.56617562  0.45055339  0.16093155  1  0.517553  0  0.051581  0.102472  0  3.952465  0
C  C99  1  0.93382429  0.54944728  0.66093144  1  0.517561  0  0.051602  0.102557  0  3.952477  0
C  C100  1  0.33716165  0.56053033  0.69869476  1  0.47847  0  0.050916  0.087972  0  3.950545  0
C  C101  1  0.16283770  0.43947109  0.19869408  1  0.478517  0  0.050878  0.08791  0  3.950579  0
C  C102  1  0.83716091  0.93946985  0.30130598  1  0.478863  0  0.050907  0.087889  0  3.950638  0
C  C103  1  0.66283916  0.06053012  0.80130506  1  0.478475  0  0.050912  0.087946  0  3.950508  0
C  C104  1  0.91171189  0.81187761  0.91723122  1  0.615429  0  0.140702  0.113773  0  3.922561  0
C  C105  1  0.58828621  0.18812317  0.41723243  1  0.615395  0  0.140739  0.113857  0  3.922456  0
C  C106  1  0.41171237  0.68812333  0.08276816  1  0.615415  0  0.140724  0.11387  0  3.922503  0
C  C107  1  0.08828780  0.31187728  0.58276745  1  0.615439  0  0.140774  0.113931  0  3.922329  0
C  C108  1  0.15850982  0.03647666  0.97466642  1  -0.061657  0  -0.064976  -0.014596  0  3.948974  0
C  C109  1  0.34149105  0.96352487  0.47466733  1  -0.061331  0  -0.065018  -0.014655  0  3.949074  0
C  C110  1  0.65850988  0.46352455  0.02533272  1  -0.061689  0  -0.064981  -0.014624  0  3.949102  0
C  C111  1  0.84148867  0.53647606  0.52533399  1  -0.061403  0  -0.065028  -0.014648  0  3.949116  0
C  C112  1  0.80998320  0.74866313  0.13228270  1  -0.025057  0  -0.095661  -0.081977  0  4.00625  0
C  C113  1  0.69001575  0.25133678  0.63228298  1  -0.025094  0  -0.095655  -0.081965  0  4.006269  0
C  C114  1  0.30998624  0.75133705  0.86771748  1  -0.025102  0  -0.095634  -0.08193  0  4.006242  0
C  C115  1  0.19001539  0.24866368  0.36771670  1  -0.025094  0  -0.095626  -0.081905  0  4.006257  0
C  C116  1  0.99865839  0.90775582  0.91450096  1  0.458921  0  0.117343  0.162816  0  3.998477  0
C  C117  1  0.50134088  0.09224495  0.41450110  1  0.458993  0  0.117286  0.162722  0  3.998474  0
C  C118  1  0.49865884  0.59224437  0.08549946  1  0.458981  0  0.117271  0.162621  0  3.998545  0
C  C119  1  0.00134015  0.40775625  0.58549894  1  0.458952  0  0.117263  0.162683  0  3.998519  0
C  C120  1  0.94460790  0.60612144  0.07404006  1  -0.001845  0  -0.095489  -0.077877  0  4.014189  0
C  C121  1  0.55539147  0.39387768  0.57404124  1  -0.001907  0  -0.09549  -0.077845  0  4.014156  0
C  C122  1  0.44460823  0.89387722  0.92595926  1  -0.001891  0  -0.095483  -0.077849  0  4.014149  0
C  C123  1  0.05539298  0.10612201  0.42595931  1  -0.001879  0  -0.095496  -0.077872  0  4.014224  0
C  C124  1  0.87200532  0.65174368  0.13985673  1  -0.090627  0  -0.094918  -0.072102  0  3.981454  0
C  C125  1  0.62799474  0.34825547  0.63985836  1  -0.090565  0  -0.094937  -0.072215  0  3.981588  0
C  C126  1  0.37200611  0.84825574  0.86014153  1  -0.090588  0  -0.094937  -0.072189  0  3.981568  0
C  C127  1  0.12799557  0.15174423  0.36014205  1  -0.09058  0  -0.094949  -0.072236  0  3.981565  0
N  N128  1  0.32577941  0.48252702  0.75047269  1  -1.255414  0  -0.325684  -0.210819  0  3.537594  0
N  N129  1  0.17421841  0.51747366  0.25047261  1  -1.25541  0  -0.325666  -0.210807  0  3.537606  0
N  N130  1  0.82578015  0.01747269  0.24952734  1  -1.255406  0  -0.325639  -0.210736  0  3.537621  0
N  N131  1  0.67421913  0.98252726  0.74952724  1  -1.255416  0  -0.325618  -0.210745  0  3.537621  0
N  N132  1  0.75551763  0.70287771  0.84398575  1  -0.689693  0  -0.242873  -0.317759  0  3.220259  0
N  N133  1  0.74448329  0.29712304  0.34398668  1  -0.689642  0  -0.242876  -0.317766  0  3.220225  0
N  N134  1  0.25551646  0.79712246  0.15601393  1  -0.68962  0  -0.242888  -0.317788  0  3.220243  0
N  N135  1  0.24448551  0.20287818  0.65601350  1  -0.689649  0  -0.24293  -0.31774  0  3.220215  0
N  N136  1  0.99259215  0.96070524  0.84451775  1  -1.249807  0  -0.323611  -0.278208  0  3.541306  0
N  N137  1  0.50740877  0.03929702  0.34451847  1  -1.249827  0  -0.323589  -0.278144  0  3.541199  0
N  N138  1  0.49259210  0.53929571  0.15548269  1  -1.249848  0  -0.323614  -0.278141  0  3.541297  0
N  N139  1  0.00740871  0.46070494  0.65548217  1  -1.249805  0  -0.323594  -0.278172  0  3.541319  0
N  N140  1  0.84754362  0.78509209  0.84931301  1  -0.811197  0  -0.221727  -0.122735  0  3.68265  0
N  N141  1  0.65245495  0.21490790  0.34931350  1  -0.811172  0  -0.221763  -0.122833  0  3.682633  0
N  N142  1  0.34754478  0.71490808  0.15068710  1  -0.811205  0  -0.221749  -0.122813  0  3.682714  0
N  N143  1  0.15245606  0.28509256  0.65068686  1  -0.811178  0  -0.221771  -0.122923  0  3.682554  0
N  N144  1  0.09452536  0.87068948  0.63965244  1  0.465567  0  -0.062223  0.187809  0  3.518782  0
N  N145  1  0.40547440  0.12931040  0.13965242  1  0.4656  0  -0.062238  0.187773  0  3.518823  0
N  N146  1  0.59452533  0.62931069  0.36034755  1  0.465608  0  -0.062221  0.187803  0  3.518735  0
N  N147  1  0.90547433  0.37068855  0.86034685  1  0.46561  0  -0.062173  0.187894  0  3.518825  0
O  O148  1  0.71241512  0.76108848  0.71202149  1  -1.154419  0  -0.307515  -0.505043  0  2.290384  0
O  O149  1  0.78758443  0.23891221  0.21202233  1  -1.154393  0  -0.307492  -0.505065  0  2.290443  0
O  O150  1  0.21241532  0.73891245  0.28797888  1  -1.154427  0  -0.307493  -0.505037  0  2.29042  0
O  O151  1  0.28758340  0.26108825  0.78797777  1  -1.15439  0  -0.307499  -0.505053  0  2.290459  0
O  O152  1  0.97234767  0.92666736  0.64890657  1  -0.641392  0  -0.217836  -0.377737  0  2.23749  0
O  O153  1  0.52765348  0.07333104  0.14890726  1  -0.641421  0  -0.217789  -0.377687  0  2.237489  0
O  O154  1  0.47234625  0.57333056  0.35109330  1  -0.641432  0  -0.217828  -0.377733  0  2.237431  0
O  O155  1  0.02765202  0.42666789  0.85109274  1  -0.641381  0  -0.217823  -0.377759  0  2.237531  0
O  O156  1  0.11150973  0.80381837  0.69182166  1  -0.568693  0  -0.168994  -0.350739  0  2.172533  0
O  O157  1  0.38849198  0.19618228  0.19182169  1  -0.568696  0  -0.169013  -0.350757  0  2.172582  0
O  O158  1  0.61150776  0.69618255  0.30817830  1  -0.5687  0  -0.169  -0.350743  0  2.172557  0
O  O159  1  0.88849111  0.30381743  0.80817761  1  -0.56874  0  -0.169041  -0.350799  0  2.172559  0
