# generated using pymatgen
data_Zn4H12C27N12O13
_symmetry_space_group_name_H-M   'P 1'
_cell_length_a   15.65600213
_cell_length_b   16.51283447
_cell_length_c   16.34006349
_cell_angle_alpha   64.94860867
_cell_angle_beta   62.13937687
_cell_angle_gamma   63.89704865
_symmetry_Int_Tables_number   1
_chemical_formula_structural   Zn4H12C27N12O13
_chemical_formula_sum   'Zn8 H24 C54 N24 O26'
_cell_volume   3225.05422587
_cell_formula_units_Z   2
loop_
 _symmetry_equiv_pos_site_id
 _symmetry_equiv_pos_as_xyz
  1  'x, y, z'
loop_
 _atom_site_type_symbol
 _atom_site_label
 _atom_site_symmetry_multiplicity
 _atom_site_fract_x
 _atom_site_fract_y
 _atom_site_fract_z
 _atom_site_occupancy
 _atom_site_pbe_bader_charge
 _atom_site_pbe_bader_spin_density
 _atom_site_pbe_cm5_charge
 _atom_site_pbe_ddec_charge
 _atom_site_pbe_ddec_spin_density
 _atom_site_pbe_ddec_sum_bond_order
 _atom_site_pbe_magmom
Zn  Zn0  1  0.88445408  0.01191584  0.02876783  1  1.317498  0  0.676853  0.980801  0  2.269793  0
Zn  Zn1  1  0.08444233  0.98544826  0.07603252  1  1.326464  0  0.686029  0.989916  0  2.290337  0
Zn  Zn2  1  0.09182142  0.01606830  0.86433040  1  1.315297  0  0.676793  0.958869  0  2.400163  0
Zn  Zn3  1  0.07756595  0.82704185  0.02406267  1  1.31264  0  0.680182  0.961179  0  2.430381  0
Zn  Zn4  1  0.68122167  0.40256735  0.46214326  1  1.32901  0  0.686443  0.996449  0  2.27415  0
Zn  Zn5  1  0.46455064  0.38491491  0.50507255  1  1.319017  0  0.676661  0.961522  0  2.406045  0
Zn  Zn6  1  0.48722432  0.58432853  0.43834769  1  1.32231  0  0.681923  0.97733  0  2.354223  0
Zn  Zn7  1  0.48645051  0.44578328  0.65057723  1  1.30642  0  0.674091  0.961961  0  2.336716  0
H  H8  1  0.80911417  0.20778350  0.25927942  1  0.112904  0  0.115152  0.123008  0  0.979732  0
H  H9  1  0.62400461  0.09128361  0.54497793  1  0.092486  0  0.109019  0.116184  0  1.004577  0
H  H10  1  0.81179743  0.92026550  0.34790993  1  0.132481  0  0.119407  0.131316  0  0.991427  0
H  H11  1  0.66497358  0.95032659  0.65935929  1  0.138613  0  0.138767  0.106122  0  1.0033  0
H  H12  1  0.74776079  0.23204431  0.78705036  1  0.089393  0  0.110482  0.116746  0  0.986224  0
H  H13  1  0.79137880  0.50230713  0.61058363  1  0.094997  0  0.118281  0.127553  0  0.997125  0
H  H14  1  0.97398279  0.31362795  0.78776076  1  0.122269  0  0.117819  0.131558  0  0.996381  0
H  H15  1  0.83749763  0.62113123  0.62571563  1  0.222233  0  0.147667  0.124814  0  1.008095  0
H  H16  1  0.75971931  0.72695096  0.26109727  1  0.106801  0  0.117993  0.127655  0  0.97283  0
H  H17  1  0.75420877  0.54042988  0.14353515  1  0.084182  0  0.113151  0.123586  0  0.98976  0
H  H18  1  0.88619781  0.76405823  0.95343856  1  0.144093  0  0.115345  0.126489  0  1.014074  0
H  H19  1  0.71533014  0.58044833  0.99283258  1  0.186164  0  0.153639  0.128711  0  0.952578  0
H  H20  1  0.28326916  0.20046169  0.76312454  1  0.125542  0  0.121118  0.133901  0  0.970664  0
H  H21  1  0.57904790  0.14438774  0.76195909  1  0.081695  0  0.114279  0.124907  0  1.000581  0
H  H22  1  0.42822245  0.93039667  0.92451314  1  0.130169  0  0.123048  0.137917  0  0.987684  0
H  H23  1  0.72537986  0.02600995  0.76862476  1  0.153966  0  0.15485  0.13058  0  0.962486  0
H  H24  1  0.30362251  0.71586671  0.25616438  1  0.112312  0  0.11754  0.129312  0  0.980805  0
H  H25  1  0.21060110  0.47148670  0.44917494  1  0.127299  0  0.116215  0.127509  0  1.016271  0
H  H26  1  0.04746296  0.67564230  0.25792057  1  0.139431  0  0.118788  0.131604  0  1.002648  0
H  H27  1  0.12705143  0.37502130  0.46042286  1  0.144564  0  0.158076  0.137007  0  0.946664  0
H  H28  1  0.26536654  0.68938381  0.77847123  1  0.121552  0  0.118257  0.127994  0  0.977177  0
H  H29  1  0.18102410  0.71126053  0.55201099  1  0.103311  0  0.119428  0.131558  0  0.983481  0
H  H30  1  0.99686207  0.90468880  0.72625649  1  0.139445  0  0.117686  0.127506  0  1.003945  0
H  H31  1  0.01150660  0.73657661  0.55018029  1  0.242048  0  0.138866  0.112609  0  1.062351  0
C  C32  1  0.87651560  0.05531641  0.19200004  1  1.585697  0  0.237113  0.626886  0  4.131546  0
C  C33  1  0.81321162  0.06478107  0.29212174  1  0.007246  0  -0.003552  0.004851  0  3.963066  0
C  C34  1  0.78236046  0.14899243  0.31366139  1  -0.008836  0  -0.071818  -0.119953  0  3.911267  0
C  C35  1  0.71205732  0.15827362  0.40436388  1  0.03145  0  -0.006724  0.004379  0  3.983641  0
C  C36  1  0.67984045  0.08225008  0.47513437  1  0.014105  0  -0.079306  -0.185632  0  3.954061  0
C  C37  1  0.72080579  0.99583141  0.45551243  1  0.26303  0  0.108457  0.165748  0  4.027406  0
C  C38  1  0.78394937  0.98733830  0.36298687  1  0.046063  0  -0.068581  -0.161498  0  3.907693  0
C  C39  1  0.67896003  0.89860241  0.62684956  1  0.987618  0  0.159832  0.066372  0  3.954261  0
C  C40  1  0.66451715  0.25018114  0.42801912  1  1.536633  0  0.232044  0.614994  0  4.16024  0
C  C41  1  0.90354310  0.16902692  0.85640746  1  1.567575  0  0.233447  0.615878  0  4.139754  0
C  C42  1  0.86226719  0.26421680  0.79612556  1  -0.042097  0  -0.008669  -0.006193  0  3.968851  0
C  C43  1  0.78511546  0.28441779  0.76316400  1  0.006036  0  -0.072273  -0.120568  0  3.908737  0
C  C44  1  0.76105328  0.37001914  0.69547791  1  -0.006931  0  6e-05  0.013585  0  3.946141  0
C  C45  1  0.80860927  0.43716030  0.66534515  1  0.053114  0  -0.071332  -0.167391  0  3.917562  0
C  C46  1  0.88334648  0.41680726  0.70098027  1  0.301114  0  0.105593  0.159628  0  4.026085  0
C  C47  1  0.91189949  0.33037818  0.76467455  1  0.071559  0  -0.073628  -0.166728  0  3.922322  0
C  C48  1  0.91281007  0.57527852  0.62655105  1  0.952043  0  0.175471  0.085457  0  3.879044  0
C  C49  1  0.68922559  0.39104703  0.64700577  1  1.596328  0  0.239918  0.627052  0  4.12961  0
C  C50  1  0.87436565  0.82333500  0.08944286  1  1.587642  0  0.237542  0.626629  0  4.125112  0
C  C51  1  0.82956485  0.75150135  0.10621137  1  -0.008573  0  -0.003571  0.004991  0  3.963808  0
C  C52  1  0.77676147  0.70592920  0.19892483  1  -0.007539  0  -0.071653  -0.11986  0  3.903489  0
C  C53  1  0.74819521  0.63119973  0.21137819  1  0.011868  0  -0.005066  0.007797  0  3.971625  0
C  C54  1  0.77282422  0.60143116  0.13246262  1  -0.020476  0  -0.080094  -0.187803  0  3.937843  0
C  C55  1  0.82100573  0.65090122  0.04030678  1  0.346753  0  0.104429  0.163888  0  4.054491  0
C  C56  1  0.84957794  0.72611120  0.02623110  1  0.005963  0  -0.072385  -0.167828  0  3.925413  0
C  C57  1  0.78690289  0.59276932  0.94214811  1  0.940412  0  0.164757  0.069213  0  3.957231  0
C  C58  1  0.68980140  0.58127365  0.30900568  1  1.583354  0  0.237876  0.622353  0  4.139232  0
C  C59  1  0.24913886  0.03824756  0.89253993  1  1.596509  0  0.238644  0.623503  0  4.14504  0
C  C60  1  0.34494834  0.06369139  0.85032899  1  0.06463  0  -0.001084  0.006633  0  3.972562  0
C  C61  1  0.34720330  0.15259217  0.78704326  1  -0.071336  0  -0.066765  -0.114298  0  3.894231  0
C  C62  1  0.43081421  0.18149465  0.75841766  1  0.029808  0  -0.007212  0.002885  0  3.99004  0
C  C63  1  0.51529653  0.11955631  0.78492989  1  -0.01634  0  -0.081892  -0.190799  0  3.952939  0
C  C64  1  0.51556609  0.02787363  0.83998624  1  0.340085  0  0.102317  0.15517  0  4.044059  0
C  C65  1  0.42891465  0.00041420  0.87688182  1  -0.022154  0  -0.06995  -0.166253  0  3.899293  0
C  C66  1  0.70107239  0.96579050  0.82089518  1  0.975356  0  0.167068  0.060436  0  3.93823  0
C  C67  1  0.43112510  0.27944291  0.69923147  1  1.559386  0  0.225916  0.598865  0  4.171274  0
C  C68  1  0.15928491  0.78941402  0.16631283  1  1.572794  0  0.233723  0.618473  0  4.147706  0
C  C69  1  0.17346747  0.70547919  0.24974569  1  -0.028012  0  -0.00424  0.000406  0  3.970819  0
C  C70  1  0.25180744  0.67526615  0.28448260  1  0.014481  0  -0.068079  -0.108726  0  3.902489  0
C  C71  1  0.26643549  0.58863174  0.35377816  1  -0.028551  0  -0.011626  -0.015746  0  3.97054  0
C  C72  1  0.19950793  0.53632481  0.39252459  1  0.079535  0  -0.074189  -0.168159  0  3.936284  0
C  C73  1  0.11937117  0.56984888  0.35960864  1  0.210955  0  0.104282  0.162459  0  4.028992  0
C  C74  1  0.10739155  0.65280266  0.28637311  1  0.065361  0  -0.065755  -0.154584  0  3.891852  0
C  C75  1  0.06005025  0.42612060  0.44422754  1  0.998853  0  0.166098  0.064385  0  3.932495  0
C  C76  1  0.35402143  0.54859691  0.38787088  1  1.566773  0  0.229837  0.606204  0  4.154021  0
C  C77  1  0.11797614  0.84484691  0.82872178  1  1.548205  0  0.233272  0.613159  0  4.148649  0
C  C78  1  0.13056002  0.80186380  0.75852687  1  0.028849  0  -0.006371  -0.007582  0  3.988943  0
C  C79  1  0.21314947  0.72298466  0.73885988  1  -0.015587  0  -0.065522  -0.106391  0  3.899324  0
C  C80  1  0.23218448  0.69281325  0.66238240  1  0.017218  0  -0.004038  -0.002754  0  3.974062  0
C  C81  1  0.16434162  0.73457084  0.61249732  1  0.031243  0  -0.065498  -0.155801  0  3.899781  0
C  C82  1  0.07738022  0.80730652  0.63973284  1  0.323479  0  0.110744  0.160944  0  4.018993  0
C  C83  1  0.06185689  0.84419181  0.70985693  1  -0.018889  0  -0.065984  -0.155325  0  3.914928  0
C  C84  1  0.98263874  0.81028530  0.54917290  1  0.916202  0  0.166149  0.075347  0  3.886503  0
C  C85  1  0.33132672  0.62385215  0.62462176  1  1.579296  0  0.237464  0.619495  0  4.149577  0
N  N86  1  0.70137524  0.91521441  0.53150766  1  -0.846171  0  -0.107733  0.109693  0  3.757393  0
N  N87  1  0.68157750  0.81002501  0.67086007  1  -0.669486  0  -0.232796  -0.233658  0  3.173891  0
N  N88  1  0.70736312  0.77164180  0.59975056  1  -0.094935  0  -0.081583  -0.064696  0  3.249489  0
N  N89  1  0.71992668  0.83341068  0.51606285  1  -0.061601  0  -0.076821  -0.11942  0  3.118494  0
N  N90  1  0.93861558  0.48103131  0.66427440  1  -0.849961  0  -0.108378  0.105791  0  3.734322  0
N  N91  1  0.99419048  0.60193408  0.59309288  1  -0.685535  0  -0.207339  -0.220557  0  3.260941  0
N  N92  1  0.07034395  0.52250182  0.61166946  1  -0.076844  0  -0.083496  -0.069219  0  3.279308  0
N  N93  1  0.03894003  0.44921863  0.65403939  1  -0.090712  0  -0.081351  -0.134379  0  3.128525  0
N  N94  1  0.84119403  0.62544606  0.95886329  1  -0.849323  0  -0.110475  0.074444  0  3.801969  0
N  N95  1  0.83350966  0.58211878  0.85422267  1  -0.678794  0  -0.229528  -0.239285  0  3.192757  0
N  N96  1  0.91809692  0.60976421  0.81652740  1  -0.067395  0  -0.081662  -0.051549  0  3.22761  0
N  N97  1  0.92376159  0.63625537  0.87769507  1  -0.065464  0  -0.076588  -0.107881  0  3.109075  0
N  N98  1  0.60476635  0.96142647  0.85889085  1  -0.860236  0  -0.108092  0.085428  0  3.774179  0
N  N99  1  0.75991470  0.88456728  0.85681066  1  -0.66685  0  -0.213105  -0.215025  0  3.179061  0
N  N100  1  0.69772798  0.82953589  0.91796790  1  -0.065224  0  -0.063231  -0.036167  0  3.250994  0
N  N101  1  0.60520997  0.87395247  0.92006695  1  -0.06469  0  -0.070439  -0.109824  0  3.106864  0
N  N102  1  0.05005966  0.51838001  0.39839535  1  -0.850648  0  -0.109828  0.084701  0  3.772513  0
N  N103  1  0.97586050  0.40964610  0.46494050  1  -0.676632  0  -0.220335  -0.218869  0  3.184333  0
N  N104  1  0.91299328  0.49429465  0.43098646  1  -0.075002  0  -0.079402  -0.060713  0  3.236805  0
N  N105  1  0.95595652  0.56000376  0.39088717  1  -0.075621  0  -0.075829  -0.11505  0  3.115965  0
N  N106  1  0.00599844  0.84800750  0.59242643  1  -0.857776  0  -0.107891  0.112415  0  3.733018  0
N  N107  1  0.91158146  0.87575432  0.51406102  1  -0.67396  0  -0.221003  -0.224584  0  3.223406  0
N  N108  1  0.89138972  0.95452180  0.53694789  1  -0.07654  0  -0.088245  -0.077866  0  3.271963  0
N  N109  1  0.94694362  0.93936257  0.58406398  1  -0.100769  0  -0.085065  -0.134778  0  3.126993  0
O  O110  1  0.03204047  0.96251710  0.00240050  1  -1.229334  0  -0.578374  -1.046373  0  2.557934  0
O  O111  1  0.96504097  0.06433069  0.15533245  1  -1.168562  0  -0.317472  -0.548258  0  2.268078  0
O  O112  1  0.83414127  0.03835351  0.15329473  1  -1.163447  0  -0.309692  -0.541834  0  2.299011  0
O  O113  1  0.56776073  0.27735275  0.45767707  1  -1.139517  0  -0.31776  -0.553061  0  2.339139  0
O  O114  1  0.72204908  0.29159005  0.41814305  1  -1.158533  0  -0.305873  -0.53026  0  2.283234  0
O  O115  1  0.99993083  0.14175940  0.83161199  1  -1.167834  0  -0.313643  -0.542136  0  2.340769  0
O  O116  1  0.84370878  0.12294879  0.92501262  1  -1.169129  0  -0.312759  -0.547137  0  2.257944  0
O  O117  1  0.59616672  0.43037462  0.68820750  1  -1.156826  0  -0.308749  -0.529822  0  2.286267  0
O  O118  1  0.72924971  0.36909123  0.56820746  1  -1.158348  0  -0.303951  -0.540643  0  2.303129  0
O  O119  1  0.95308056  0.78997985  0.11294509  1  -1.173814  0  -0.320115  -0.55753  0  2.285785  0
O  O120  1  0.83511639  0.90908427  0.05061957  1  -1.157767  0  -0.304786  -0.529459  0  2.252448  0
O  O121  1  0.60347953  0.63152498  0.35281954  1  -1.165274  0  -0.315557  -0.54524  0  2.282861  0
O  O122  1  0.72958862  0.49343225  0.33818629  1  -1.153708  0  -0.303953  -0.540759  0  2.315073  0
O  O123  1  0.21868692  0.03703371  0.83329591  1  -1.155413  0  -0.30763  -0.529462  0  2.295134  0
O  O124  1  0.20730930  0.02236438  0.98356452  1  -1.172015  0  -0.307187  -0.541699  0  2.305495  0
O  O125  1  0.47429236  0.31664741  0.71733821  1  -1.160597  0  -0.311396  -0.540463  0  2.300561  0
O  O126  1  0.38986913  0.31736554  0.63524291  1  -1.160037  0  -0.314362  -0.538078  0  2.283709  0
O  O127  1  0.17124938  0.76921170  0.09346784  1  -1.166677  0  -0.323536  -0.554603  0  2.322652  0
O  O128  1  0.13399483  0.87115623  0.17350852  1  -1.143627  0  -0.300331  -0.523134  0  2.253562  0
O  O129  1  0.40821138  0.60007173  0.36286643  1  -1.162693  0  -0.313488  -0.548128  0  2.297735  0
O  O130  1  0.36758479  0.46351148  0.43985851  1  -1.173517  0  -0.311485  -0.535113  0  2.360135  0
O  O131  1  0.09436620  0.93418743  0.80352473  1  -1.147235  0  -0.309827  -0.539335  0  2.311744  0
O  O132  1  0.13282783  0.78907501  0.90706934  1  -1.166007  0  -0.310743  -0.534576  0  2.305516  0
O  O133  1  0.36629712  0.55117082  0.68465649  1  -1.166074  0  -0.308094  -0.53251  0  2.29286  0
O  O134  1  0.37278184  0.64731719  0.53336691  1  -1.167397  0  -0.31299  -0.547704  0  2.345524  0
O  O135  1  0.53253718  0.45480977  0.51311700  1  -1.232355  0  -0.575077  -1.043999  0  2.541474  0
