# generated using pymatgen
data_KH6C8N5O
_symmetry_space_group_name_H-M   'P 1'
_cell_length_a   3.94391433
_cell_length_b   12.38228138
_cell_length_c   20.06297205
_cell_angle_alpha   104.48036329
_cell_angle_beta   95.63397920
_cell_angle_gamma   89.97646045
_symmetry_Int_Tables_number   1
_chemical_formula_structural   KH6C8N5O
_chemical_formula_sum   'K4 H24 C32 N20 O4'
_cell_volume   943.76562765
_cell_formula_units_Z   4
loop_
 _symmetry_equiv_pos_site_id
 _symmetry_equiv_pos_as_xyz
  1  'x, y, z'
loop_
 _atom_site_type_symbol
 _atom_site_label
 _atom_site_symmetry_multiplicity
 _atom_site_fract_x
 _atom_site_fract_y
 _atom_site_fract_z
 _atom_site_occupancy
 _atom_site_hle17_bader_spin_density
 _atom_site_hle17_ddec_charge
 _atom_site_hle17_ddec_spin_density
 _atom_site_hle17_ddec_sum_bond_order
 _atom_site_hle17_magmom
 _atom_site_hse06_10hf_bader_spin_density
 _atom_site_hse06_10hf_ddec_charge
 _atom_site_hse06_10hf_ddec_spin_density
 _atom_site_hse06_10hf_ddec_sum_bond_order
 _atom_site_hse06_10hf_magmom
 _atom_site_hse06_bader_spin_density
 _atom_site_hse06_ddec_charge
 _atom_site_hse06_ddec_spin_density
 _atom_site_hse06_ddec_sum_bond_order
 _atom_site_hse06_magmom
 _atom_site_pbe_bader_spin_density
 _atom_site_pbe_cm5_charge
 _atom_site_pbe_ddec_charge
 _atom_site_pbe_ddec_spin_density
 _atom_site_pbe_ddec_sum_bond_order
 _atom_site_pbe_magmom
K  K0  1  0.97825415  0.89583217  0.07487740  1  0  0.874676  0  0.513501  0  0  0.785765  0  0.7357  0  0  0.802767  0  0.713611  0  0  0.922944  0.773256  0  0.751396  0
K  K1  1  0.90272602  0.60402542  0.92497559  1  0  0.874543  0  0.514264  0  0  0.7858  0  0.736333  0  0  0.80281  0  0.714236  0  0  0.924145  0.773288  0  0.752033  0
K  K2  1  0.02174815  0.10416960  0.92512498  1  0  0.874675  0  0.51349  0  0  0.785757  0  0.735694  0  0  0.802761  0  0.713603  0  0  0.922954  0.773248  0  0.751391  0
K  K3  1  0.09724861  0.39598049  0.07502239  1  0  0.87454  0  0.514254  0  0  0.785795  0  0.736331  0  0  0.802802  0  0.714232  0  0  0.924138  0.773282  0  0.752032  0
H  H4  1  0.58011855  0.52440411  0.40012502  1  0  0.108285  0  0.958187  0  0  0.121946  0  1.016792  0  0  0.124685  0  1.016366  0  0  0.104146  0.119978  0  1.017235  0
H  H5  1  0.18053815  0.97548131  0.60011768  1  0  0.108875  0  0.957647  0  0  0.122368  0  1.016336  0  0  0.125125  0  1.015914  0  0  0.104372  0.120392  0  1.0168  0
H  H6  1  0.41987090  0.47559598  0.59987535  1  0  0.108228  0  0.958237  0  0  0.121898  0  1.016834  0  0  0.124655  0  1.016377  0  0  0.10414  0.119931  0  1.017274  0
H  H7  1  0.81946150  0.02451878  0.39988240  1  0  0.10888  0  0.957668  0  0  0.122371  0  1.016353  0  0  0.125129  0  1.015929  0  0  0.104368  0.120395  0  1.016818  0
H  H8  1  0.81887548  0.41915015  0.48418025  1  0  0.079004  0  0.955823  0  0  0.093469  0  1.013296  0  0  0.095545  0  1.012493  0  0  0.098555  0.091962  0  1.01388  0
H  H9  1  0.33497407  0.08030511  0.51579699  1  0  0.079333  0  0.956607  0  0  0.093951  0  1.013814  0  0  0.095857  0  1.013208  0  0  0.098518  0.09254  0  1.014275  0
H  H10  1  0.18113175  0.58084910  0.51581935  1  0  0.079034  0  0.955816  0  0  0.093503  0  1.01328  0  0  0.095578  0  1.012481  0  0  0.098581  0.091993  0  1.013864  0
H  H11  1  0.66502812  0.91969497  0.48420314  1  0  0.079318  0  0.956618  0  0  0.093936  0  1.013829  0  0  0.095842  0  1.013216  0  0  0.09851  0.092525  0  1.014291  0
H  H12  1  0.70787465  0.21527423  0.46178047  1  0  0.082784  0  0.980849  0  0  0.093145  0  1.046133  0  0  0.09546  0  1.04658  0  0  0.093378  0.091483  0  1.045969  0
H  H13  1  0.24628475  0.28426189  0.53801942  1  0  0.081951  0  0.980909  0  0  0.092048  0  1.04667  0  0  0.094331  0  1.047132  0  0  0.093027  0.090417  0  1.046482  0
H  H14  1  0.29214774  0.78472334  0.53821868  1  0  0.082724  0  0.98088  0  0  0.093094  0  1.046147  0  0  0.09541  0  1.046596  0  0  0.093337  0.091433  0  1.045983  0
H  H15  1  0.75371496  0.71573902  0.46198079  1  0  0.081946  0  0.980908  0  0  0.092045  0  1.046665  0  0  0.094328  0  1.047128  0  0  0.093035  0.090415  0  1.046477  0
H  H16  1  0.34678325  0.11542743  0.35359004  1  0  0.098359  0  0.967403  0  0  0.106099  0  1.033696  0  0  0.109385  0  1.031393  0  0  0.102185  0.103712  0  1.035371  0
H  H17  1  0.99313956  0.38443278  0.64612776  1  0  0.098048  0  0.96701  0  0  0.106142  0  1.033018  0  0  0.1094  0  1.030749  0  0  0.102333  0.103753  0  1.034701  0
H  H18  1  0.65322633  0.88456932  0.64641023  1  0  0.098362  0  0.967429  0  0  0.106137  0  1.033691  0  0  0.109426  0  1.03138  0  0  0.102182  0.103749  0  1.035366  0
H  H19  1  0.00685747  0.61556647  0.35387214  1  0  0.098052  0  0.967025  0  0  0.106144  0  1.033034  0  0  0.109403  0  1.030762  0  0  0.102328  0.103755  0  1.034718  0
H  H20  1  0.00095014  0.11467919  0.24994755  1  0  0.083717  0  0.932995  0  0  0.092186  0  1.001734  0  0  0.096169  0  0.995605  0  0  0.12324  0.089225  0  1.00617  0
H  H21  1  0.75015252  0.38548859  0.74990203  1  0  0.08387  0  0.932509  0  0  0.09244  0  1.001067  0  0  0.096448  0  0.99496  0  0  0.123215  0.089404  0  1.005585  0
H  H22  1  0.99904195  0.88532172  0.75005001  1  0  0.083724  0  0.932971  0  0  0.092187  0  1.001755  0  0  0.09617  0  0.995625  0  0  0.123241  0.089227  0  1.006191  0
H  H23  1  0.24984445  0.61450982  0.25009774  1  0  0.083871  0  0.932564  0  0  0.092434  0  1.001115  0  0  0.096442  0  0.995009  0  0  0.12323  0.089397  0  1.005633  0
H  H24  1  0.06707866  0.38138346  0.24575344  1  0  0.350993  0  0.936201  0  0  0.314409  0  1.028261  0  0  0.327058  0  1.014942  0  0  0.300872  0.305622  0  1.037302  0
H  H25  1  0.82211023  0.11902137  0.75440364  1  0  0.350933  0  0.936194  0  0  0.314899  0  1.027449  0  0  0.327539  0  1.014142  0  0  0.301144  0.306116  0  1.036487  0
H  H26  1  0.93291843  0.61861663  0.75424758  1  0  0.350961  0  0.936323  0  0  0.314393  0  1.028355  0  0  0.327042  0  1.015036  0  0  0.300887  0.305606  0  1.037395  0
H  H27  1  0.17788935  0.88097788  0.24559631  1  0  0.351038  0  0.93605  0  0  0.31495  0  1.027413  0  0  0.32759  0  1.014105  0  0  0.301148  0.306168  0  1.036449  0
C  C28  1  0.33284335  0.37975530  0.32990557  1  0  0.329989  0  3.773672  0  0  0.316409  0  4.031776  0  0  0.331398  0  4.047161  0  0  0.098711  0.306253  0  4.021164  0
C  C29  1  0.00320059  0.12031045  0.67014342  1  0  0.331757  0  3.769582  0  0  0.318932  0  4.026996  0  0  0.333981  0  4.042303  0  0  0.099824  0.308729  0  4.016448  0
C  C30  1  0.66715611  0.62024228  0.67009412  1  0  0.330021  0  3.773622  0  0  0.316437  0  4.031754  0  0  0.331425  0  4.047142  0  0  0.098755  0.30628  0  4.021142  0
C  C31  1  0.99680161  0.87968963  0.32985621  1  0  0.331832  0  3.769476  0  0  0.318995  0  4.026927  0  0  0.334043  0  4.042234  0  0  0.099839  0.308792  0  4.016381  0
C  C32  1  0.53207023  0.43495576  0.39070639  1  0  -0.207131  0  3.736031  0  0  -0.227643  0  3.990321  0  0  -0.236114  0  4.010792  0  0  -0.10819  -0.222109  0  3.976596  0
C  C33  1  0.14157861  0.06490042  0.60936106  1  0  -0.208271  0  3.734121  0  0  -0.228871  0  3.988399  0  0  -0.237366  0  4.008749  0  0  -0.109496  -0.223336  0  3.974744  0
C  C34  1  0.46793452  0.56504433  0.60929329  1  0  -0.207124  0  3.736178  0  0  -0.227648  0  3.990497  0  0  -0.236125  0  4.010952  0  0  -0.108212  -0.222114  0  3.976771  0
C  C35  1  0.85842620  0.93510050  0.39063875  1  0  -0.208355  0  3.734097  0  0  -0.228943  0  3.988377  0  0  -0.237438  0  4.008725  0  0  -0.109535  -0.223408  0  3.974723  0
C  C36  1  0.66289051  0.37536122  0.43729344  1  0  -0.025504  0  3.783401  0  0  -0.041413  0  4.036233  0  0  -0.038302  0  4.056937  0  0  -0.084168  -0.043119  0  4.021909  0
C  C37  1  0.22581600  0.12425476  0.56265703  1  0  -0.02657  0  3.783941  0  0  -0.042527  0  4.036885  0  0  -0.039273  0  4.057602  0  0  -0.083845  -0.044301  0  4.022523  0
C  C38  1  0.33711664  0.62463719  0.56270703  1  0  -0.025514  0  3.783473  0  0  -0.041422  0  4.036304  0  0  -0.038312  0  4.057012  0  0  -0.084184  -0.043124  0  4.021978  0
C  C39  1  0.77418868  0.87574449  0.43734302  1  0  -0.026522  0  3.783887  0  0  -0.04248  0  4.036826  0  0  -0.039222  0  4.057541  0  0  -0.083807  -0.044254  0  4.022464  0
C  C40  1  0.59884657  0.26013905  0.42480058  1  0  -0.120792  0  3.817987  0  0  -0.136392  0  4.075024  0  0  -0.143168  0  4.098593  0  0  -0.111471  -0.131984  0  4.058945  0
C  C41  1  0.17426408  0.23951022  0.57506192  1  0  -0.119885  0  3.819029  0  0  -0.135436  0  4.076497  0  0  -0.142172  0  4.100011  0  0  -0.111537  -0.131058  0  4.060444  0
C  C42  1  0.40116315  0.73985936  0.57519894  1  0  -0.120749  0  3.818088  0  0  -0.136354  0  4.075109  0  0  -0.143132  0  4.098682  0  0  -0.111448  -0.131945  0  4.05903  0
C  C43  1  0.82574066  0.76048987  0.42493826  1  0  -0.119823  0  3.819131  0  0  -0.135376  0  4.07659  0  0  -0.14211  0  4.100103  0  0  -0.111524  -0.130997  0  4.060534  0
C  C44  1  0.40032784  0.20498480  0.36511283  1  0  -0.068855  0  3.743665  0  0  -0.090645  0  3.993394  0  0  -0.087941  0  4.013576  0  0  -0.083072  -0.092039  0  3.979462  0
C  C45  1  0.03519199  0.29485385  0.63469552  1  0  -0.067878  0  3.745535  0  0  -0.089878  0  3.995414  0  0  -0.087152  0  4.015617  0  0  -0.082959  -0.09128  0  3.981486  0
C  C46  1  0.59967156  0.79501194  0.63488574  1  0  -0.068792  0  3.743845  0  0  -0.090602  0  3.993547  0  0  -0.087899  0  4.013733  0  0  -0.082993  -0.091996  0  3.979614  0
C  C47  1  0.96481529  0.70514624  0.36530571  1  0  -0.067889  0  3.745586  0  0  -0.089868  0  3.995466  0  0  -0.08714  0  4.015666  0  0  -0.082925  -0.091268  0  3.981536  0
C  C48  1  0.26361555  0.26287639  0.31679919  1  0  -0.107052  0  3.811385  0  0  -0.088116  0  4.047071  0  0  -0.100625  0  4.074879  0  0  -0.028875  -0.07992  0  4.028255  0
C  C49  1  0.94666919  0.23717624  0.68310620  1  0  -0.108254  0  3.811405  0  0  -0.090192  0  4.048004  0  0  -0.102744  0  4.075817  0  0  -0.029024  -0.081961  0  4.02916  0
C  C50  1  0.73638143  0.73712202  0.68319909  1  0  -0.107083  0  3.811497  0  0  -0.08815  0  4.047226  0  0  -0.100661  0  4.075037  0  0  -0.028911  -0.079954  0  4.02841  0
C  C51  1  0.05333554  0.76282385  0.31689448  1  0  -0.108386  0  3.811428  0  0  -0.090373  0  4.048089  0  0  -0.102927  0  4.075904  0  0  -0.029116  -0.08214  0  4.029245  0
C  C52  1  0.05356994  0.20384076  0.25600966  1  0  0.190862  0  3.643052  0  0  0.14556  0  3.904448  0  0  0.162181  0  3.911979  0  0  0.087501  0.134609  0  3.899233  0
C  C53  1  0.79728020  0.29635309  0.74388648  1  0  0.191427  0  3.642174  0  0  0.146593  0  3.902862  0  0  0.163188  0  3.910372  0  0  0.087485  0.135682  0  3.897639  0
C  C54  1  0.94642718  0.79615931  0.74398787  1  0  0.190947  0  3.642977  0  0  0.145588  0  3.904446  0  0  0.162209  0  3.911978  0  0  0.087515  0.134636  0  3.89923  0
C  C55  1  0.20271938  0.70364616  0.25611396  1  0  0.1915  0  3.642211  0  0  0.146716  0  3.902856  0  0  0.163311  0  3.910367  0  0  0.08753  0.135802  0  3.897638  0
C  C56  1  0.71928934  0.19737852  0.15285552  1  0  0.454266  0  3.858322  0  0  0.421013  0  4.141324  0  0  0.434526  0  4.157526  0  0  0.305658  0.41209  0  4.130222  0
C  C57  1  0.56667442  0.30274883  0.84712726  1  0  0.45655  0  3.857344  0  0  0.420768  0  4.143748  0  0  0.43429  0  4.159959  0  0  0.305269  0.411837  0  4.132614  0
C  C58  1  0.28070272  0.80262240  0.84714504  1  0  0.454082  0  3.858528  0  0  0.420854  0  4.141501  0  0  0.434364  0  4.157702  0  0  0.305591  0.411931  0  4.130399  0
C  C59  1  0.43332529  0.69725209  0.15287345  1  0  0.456612  0  3.857329  0  0  0.420835  0  4.143731  0  0  0.43436  0  4.15994  0  0  0.305314  0.411903  0  4.132599  0
N  N60  1  0.92724616  0.25522708  0.21004342  1  0  -0.413379  0  3.145736  0  0  -0.358258  0  3.40594  0  0  -0.374488  0  3.415506  0  0  -0.315413  -0.347516  0  3.39938  0
N  N61  1  0.71757311  0.24500821  0.78991489  1  0  -0.414308  0  3.148051  0  0  -0.358546  0  3.408393  0  0  -0.374823  0  3.418023  0  0  -0.315469  -0.347748  0  3.401755  0
N  N62  1  0.07274095  0.74477550  0.78995530  1  0  -0.413398  0  3.145685  0  0  -0.358239  0  3.40584  0  0  -0.374468  0  3.415411  0  0  -0.315413  -0.347496  0  3.399273  0
N  N63  1  0.28243163  0.75499187  0.21008579  1  0  -0.414393  0  3.148102  0  0  -0.35861  0  3.408435  0  0  -0.374888  0  3.418064  0  0  -0.315494  -0.347812  0  3.401802  0
N  N64  1  0.60597490  0.09038707  0.13909032  1  0  -0.403429  0  2.976085  0  0  -0.372468  0  3.252884  0  0  -0.385354  0  3.266744  0  0  -0.311259  -0.363822  0  3.243447  0
N  N65  1  0.46699120  0.40975662  0.86095803  1  0  -0.405888  0  2.974657  0  0  -0.374169  0  3.25234  0  0  -0.387059  0  3.266187  0  0  -0.312553  -0.365516  0  3.242905  0
N  N66  1  0.39401971  0.90961385  0.86091028  1  0  -0.403348  0  2.976021  0  0  -0.372386  0  3.2528  0  0  -0.385271  0  3.266663  0  0  -0.311222  -0.363741  0  3.243363  0
N  N67  1  0.53301105  0.59024430  0.13904272  1  0  -0.405941  0  2.974651  0  0  -0.374233  0  3.25235  0  0  -0.387124  0  3.266197  0  0  -0.312593  -0.365578  0  3.242915  0
N  N68  1  0.41318745  0.07418162  0.07823908  1  0  -0.18443  0  3.147721  0  0  -0.161896  0  3.453722  0  0  -0.164038  0  3.467885  0  0  -0.24549  -0.160059  0  3.443911  0
N  N69  1  0.33508297  0.42590318  0.92182019  1  0  -0.183169  0  3.145907  0  0  -0.160574  0  3.451663  0  0  -0.162715  0  3.465814  0  0  -0.245372  -0.15874  0  3.441863  0
N  N70  1  0.58680723  0.92582013  0.92176115  1  0  -0.184429  0  3.147633  0  0  -0.161899  0  3.453639  0  0  -0.16404  0  3.467799  0  0  -0.245512  -0.160062  0  3.443829  0
N  N71  1  0.66491929  0.57409774  0.07818007  1  0  -0.183174  0  3.145917  0  0  -0.16057  0  3.451668  0  0  -0.162711  0  3.46582  0  0  -0.245386  -0.158735  0  3.441866  0
N  N72  1  0.41137624  0.16665378  0.05611750  1  0  -0.179172  0  3.139742  0  0  -0.158326  0  3.445862  0  0  -0.160644  0  3.459649  0  0  -0.23544  -0.156383  0  3.436268  0
N  N73  1  0.35547320  0.33337513  0.94388048  1  0  -0.17934  0  3.13818  0  0  -0.158542  0  3.444113  0  0  -0.160842  0  3.457874  0  0  -0.234961  -0.156615  0  3.434539  0
N  N74  1  0.58861838  0.83334714  0.94388261  1  0  -0.179162  0  3.139603  0  0  -0.158324  0  3.445747  0  0  -0.160642  0  3.459531  0  0  -0.235413  -0.156381  0  3.436153  0
N  N75  1  0.64452644  0.66662495  0.05611960  1  0  -0.179314  0  3.138133  0  0  -0.158518  0  3.444068  0  0  -0.160817  0  3.457828  0  0  -0.234957  -0.15659  0  3.434494  0
N  N76  1  0.60227123  0.24628870  0.10237030  1  0  -0.444851  0  3.056067  0  0  -0.409189  0  3.346402  0  0  -0.421862  0  3.358863  0  0  -0.381926  -0.400569  0  3.337812  0
N  N77  1  0.50017098  0.25376476  0.89758091  1  0  -0.444919  0  3.054513  0  0  -0.408438  0  3.34544  0  0  -0.421099  0  3.357869  0  0  -0.381122  -0.399833  0  3.336888  0
N  N78  1  0.39772083  0.75371221  0.89762975  1  0  -0.444837  0  3.056173  0  0  -0.40918  0  3.346487  0  0  -0.42186  0  3.358969  0  0  -0.381968  -0.400562  0  3.337898  0
N  N79  1  0.49982612  0.74623533  0.10241912  1  0  -0.444949  0  3.05452  0  0  -0.408475  0  3.34546  0  0  -0.421136  0  3.357888  0  0  -0.381144  -0.399869  0  3.336911  0
O  O80  1  0.20757657  0.43797768  0.28498901  1  0  -0.498204  0  2.115507  0  0  -0.445541  0  2.335758  0  0  -0.466527  0  2.325613  0  0  -0.332079  -0.430534  0  2.342082  0
O  O81  1  0.92340889  0.06228731  0.71518382  1  0  -0.498935  0  2.115012  0  0  -0.44687  0  2.334657  0  0  -0.467826  0  2.324428  0  0  -0.332786  -0.431895  0  2.341048  0
O  O82  1  0.79242051  0.56202241  0.71501202  1  0  -0.498185  0  2.115588  0  0  -0.445538  0  2.335837  0  0  -0.466524  0  2.325695  0  0  -0.332111  -0.430532  0  2.342159  0
O  O83  1  0.07659331  0.93771277  0.28481631  1  0  -0.49898  0  2.114908  0  0  -0.446891  0  2.334598  0  0  -0.467846  0  2.324367  0  0  -0.332771  -0.431916  0  2.34099  0
