# generated using pymatgen
data_CoH14C20S(NO)4
_symmetry_space_group_name_H-M   'P 1'
_cell_length_a   9.21972667
_cell_length_b   14.93987532
_cell_length_c   16.70734423
_cell_angle_alpha   90.00031658
_cell_angle_beta   90.00078190
_cell_angle_gamma   107.66339855
_symmetry_Int_Tables_number   1
_chemical_formula_structural   CoH14C20S(NO)4
_chemical_formula_sum   'Co4 H56 C80 S4 N16 O16'
_cell_volume   2192.80235236
_cell_formula_units_Z   4
loop_
 _symmetry_equiv_pos_site_id
 _symmetry_equiv_pos_as_xyz
  1  'x, y, z'
loop_
 _atom_site_type_symbol
 _atom_site_label
 _atom_site_symmetry_multiplicity
 _atom_site_fract_x
 _atom_site_fract_y
 _atom_site_fract_z
 _atom_site_occupancy
 _atom_site_pbe_bader_charge
 _atom_site_pbe_bader_spin_density
 _atom_site_pbe_cm5_charge
 _atom_site_pbe_ddec_charge
 _atom_site_pbe_ddec_spin_density
 _atom_site_pbe_ddec_sum_bond_order
 _atom_site_pbe_magmom
Co  Co0  1  0.49664131  0.72837034  0.98830680  1  1.109113  0.903367  0.732485  0.577306  1.050853  3.172277  0.878
Co  Co1  1  0.00337304  0.77163035  0.48829742  1  1.108767  -0.9033  0.732474  0.57727  -1.050775  3.172426  -0.878
Co  Co2  1  0.50335995  0.27162382  0.01169563  1  1.109357  -0.903381  0.732566  0.577455  -1.050858  3.172173  -0.878
Co  Co3  1  0.99662906  0.22837288  0.51170202  1  1.108805  0.903361  0.732433  0.577272  1.050814  3.172296  0.878
H  H4  1  0.34841424  0.86950441  0.05199143  1  0.161895  -0.000106  0.122217  0.09951  -0.000101  1.050906  0.0
H  H5  1  0.15159908  0.63049694  0.55198517  1  0.162129  0.000106  0.122231  0.09959  0.000101  1.050783  0.0
H  H6  1  0.65159611  0.13049548  0.94800622  1  0.161882  0.000106  0.122227  0.099484  0.000101  1.050841  0.0
H  H7  1  0.84841709  0.36950862  0.44801008  1  0.161869  -0.000106  0.122204  0.099481  -0.000101  1.050861  0.0
H  H8  1  0.13517085  0.92670431  0.00115565  1  0.076812  -1.6e-05  0.112686  0.11763  7e-06  0.986396  0.0
H  H9  1  0.36482237  0.57327941  0.50114171  1  0.077096  1.6e-05  0.112701  0.117562  -8e-06  0.986382  0.0
H  H10  1  0.86483983  0.07329628  0.99884259  1  0.076389  1.7e-05  0.112671  0.117611  -7e-06  0.986335  0.0
H  H11  1  0.63519333  0.42672754  0.49884695  1  0.076599  -1.7e-05  0.112669  0.117619  7e-06  0.986427  0.0
H  H12  1  0.98179743  0.84411892  0.88269068  1  0.101494  -9e-05  0.108758  0.106656  -5.5e-05  1.004064  0.0
H  H13  1  0.51819067  0.65586519  0.38267783  1  0.094845  9.1e-05  0.108739  0.106611  5.5e-05  1.004116  0.0
H  H14  1  0.01820369  0.15587733  0.11731175  1  0.101307  9e-05  0.108748  0.106589  5.5e-05  1.004164  0.0
H  H15  1  0.48181291  0.34414852  0.61730725  1  0.094166  -9.1e-05  0.10876  0.106605  -5.5e-05  1.004154  0.0
H  H16  1  0.04528938  0.70927763  0.82083441  1  0.162895  -3.2e-05  0.114054  0.134696  1e-06  1.028983  0.0
H  H17  1  0.45471243  0.79071191  0.32082789  1  0.162814  3.2e-05  0.114044  0.134604  -1e-06  1.029157  0.0
H  H18  1  0.95470546  0.29071433  0.17917222  1  0.162861  3.3e-05  0.114044  0.134617  -1e-06  1.029129  0.0
H  H19  1  0.54528430  0.20930587  0.67917035  1  0.161852  -3.3e-05  0.114072  0.134694  1e-06  1.029099  0.0
H  H20  1  0.13044551  0.58947501  0.77661734  1  0.170051  -6.6e-05  0.119588  0.148789  1.4e-05  1.013019  0.0
H  H21  1  0.36957048  0.91052682  0.27661858  1  0.169875  6.6e-05  0.119599  0.148833  -1.4e-05  1.013113  0.0
H  H22  1  0.86955734  0.41052266  0.22338210  1  0.169963  6.6e-05  0.119583  0.148835  -1.4e-05  1.013043  0.0
H  H23  1  0.63042745  0.08948402  0.72338505  1  0.169893  -6.6e-05  0.119623  0.148908  1.4e-05  1.013077  0.0
H  H24  1  0.47850155  0.45409997  0.82219106  1  0.153333  -0.000186  0.118946  0.147462  1.8e-05  1.004488  0.0
H  H25  1  0.02151163  0.04589955  0.32218845  1  0.153587  0.000186  0.118974  0.147452  -1.8e-05  1.004514  0.0
H  H26  1  0.52150175  0.54589632  0.17780778  1  0.153324  0.000186  0.118923  0.147403  -1.8e-05  1.004575  0.0
H  H27  1  0.97847295  0.95409852  0.67780800  1  0.153582  -0.000185  0.118934  0.147402  1.8e-05  1.004367  0.0
H  H28  1  0.68263384  0.46646116  0.90077347  1  0.15689  -6e-06  0.119576  0.153645  6e-06  1.006433  0.0
H  H29  1  0.81735626  0.03352808  0.40075683  1  0.156602  5e-06  0.119637  0.153713  -6e-06  1.006416  0.0
H  H30  1  0.31737161  0.53353028  0.09923675  1  0.156694  6e-06  0.119615  0.153625  -6e-06  1.006512  0.0
H  H31  1  0.18262500  0.96646505  0.59924380  1  0.15683  -5e-06  0.119638  0.153679  6e-06  1.006421  0.0
H  H32  1  0.90904294  0.50344000  0.98905235  1  0.065072  -2.8e-05  0.104995  0.095982  -2.5e-05  1.033314  0.0
H  H33  1  0.59094388  0.99654250  0.48902980  1  0.065514  2.8e-05  0.104982  0.095913  2.5e-05  1.033303  0.0
H  H34  1  0.09096399  0.49656192  0.01095487  1  0.065109  2.8e-05  0.10501  0.095926  2.5e-05  1.033358  0.0
H  H35  1  0.40904757  0.00345638  0.51097562  1  0.065524  -2.8e-05  0.104976  0.095856  -2.5e-05  1.03338  0.0
H  H36  1  0.96548066  0.64427922  0.08133894  1  0.105225  1.8e-05  0.117988  0.128833  1.7e-05  0.969007  0.0
H  H37  1  0.53453372  0.85571520  0.58132577  1  0.105589  -1.8e-05  0.117961  0.128696  -1.7e-05  0.96897  0.0
H  H38  1  0.03452285  0.35572474  0.91866469  1  0.105355  -1.8e-05  0.117964  0.128728  -1.7e-05  0.969057  0.0
H  H39  1  0.46547057  0.14428808  0.41868804  1  0.106036  1.8e-05  0.118008  0.12877  1.7e-05  0.968986  0.0
H  H40  1  0.78326120  0.74074305  0.08167727  1  0.147721  -9.8e-05  0.1308  0.111242  -0.000155  0.984653  0.0
H  H41  1  0.71676888  0.75926209  0.58166976  1  0.147999  9.8e-05  0.130789  0.111171  0.000155  0.98477  0.0
H  H42  1  0.21672839  0.25925649  0.91832755  1  0.148023  9.9e-05  0.130846  0.111284  0.000155  0.984588  0.0
H  H43  1  0.28324260  0.24074270  0.41833686  1  0.148264  -9.8e-05  0.130794  0.111216  -0.000155  0.984642  0.0
H  H44  1  0.06157368  0.43193797  0.54314031  1  0.112189  0.002089  0.118899  0.088678  0.000772  1.013608  0.001
H  H45  1  0.43840831  0.06806347  0.04313733  1  0.111877  -0.002089  0.118841  0.088621  -0.000772  1.013435  -0.001
H  H46  1  0.93841858  0.56806511  0.45685853  1  0.112129  -0.002089  0.118891  0.088676  -0.000772  1.013504  -0.001
H  H47  1  0.56158297  0.93193262  0.95685912  1  0.112246  0.002088  0.118888  0.088689  0.000772  1.013537  0.001
H  H48  1  0.15452583  0.54593849  0.65535867  1  0.133129  0.000828  0.111387  0.13781  0.000358  1.042788  0.001
H  H49  1  0.34547300  0.95406099  0.15535636  1  0.133147  -0.000828  0.111398  0.137873  -0.000358  1.042717  -0.001
H  H50  1  0.84546844  0.45406183  0.34464017  1  0.133147  -0.000828  0.111413  0.137922  -0.000358  1.042673  -0.001
H  H51  1  0.65449825  0.04592918  0.84463530  1  0.133253  0.000828  0.111396  0.137879  0.000358  1.042759  0.001
H  H52  1  0.30071801  0.32805042  0.77322239  1  0.145573  0.000809  0.110374  0.129343  0.000387  1.051887  0.0
H  H53  1  0.19930293  0.17195704  0.27322713  1  0.145386  -0.000809  0.110354  0.129313  -0.000387  1.052037  0.0
H  H54  1  0.69929146  0.67195712  0.22677345  1  0.145472  -0.000809  0.110383  0.129288  -0.000387  1.05192  0.0
H  H55  1  0.80069289  0.82804191  0.72677231  1  0.145395  0.000809  0.110333  0.129291  0.000387  1.052088  0.0
H  H56  1  0.19025399  0.22429529  0.66278944  1  0.113649  0.002403  0.118746  0.094413  0.000912  1.006239  0.001
H  H57  1  0.30974258  0.27570285  0.16279015  1  0.113607  -0.002403  0.118753  0.094386  -0.000912  1.006255  -0.001
H  H58  1  0.80975202  0.77570940  0.33720760  1  0.113683  -0.002404  0.118756  0.094386  -0.000913  1.006208  -0.001
H  H59  1  0.69025808  0.72429479  0.83720750  1  0.113838  0.002403  0.118772  0.094402  0.000912  1.006275  0.001
C  C60  1  0.27943684  0.83784792  0.00052630  1  0.452262  -0.000586  0.049252  0.079758  -0.000385  3.924041  0.0
C  C61  1  0.22057251  0.66214512  0.50051832  1  0.451557  0.000583  0.049132  0.079514  0.000383  3.923918  0.0
C  C62  1  0.72056819  0.16214979  0.99947374  1  0.451624  0.000583  0.049249  0.079847  0.000383  3.923978  0.0
C  C63  1  0.77944116  0.33785970  0.49947812  1  0.45269  -0.000583  0.049212  0.079915  -0.000383  3.92406  0.0
C  C64  1  0.15957389  0.86753330  0.97217646  1  -0.008893  -0.001089  -0.076503  -0.118757  -0.00068  3.964541  -0.001
C  C65  1  0.34042865  0.63245656  0.47216769  1  -0.010268  0.001087  -0.076324  -0.118378  0.00068  3.964421  0.001
C  C66  1  0.84043347  0.13246236  0.02782357  1  -0.008967  0.001089  -0.07634  -0.118607  0.000681  3.96417  0.001
C  C67  1  0.65958427  0.36755383  0.52782397  1  -0.010411  -0.001089  -0.076311  -0.118755  -0.000681  3.96448  -0.001
C  C68  1  0.07461026  0.82149433  0.90694603  1  0.007658  -0.000901  -0.064504  -0.02162  -0.000526  3.949023  0.0
C  C69  1  0.42539169  0.67849548  0.40693873  1  0.015294  0.000895  -0.064538  -0.021767  0.000524  3.949101  0.0
C  C70  1  0.92539164  0.17850124  0.09305819  1  0.008925  0.000897  -0.064535  -0.021634  0.000524  3.949003  0.0
C  C71  1  0.57461639  0.32151621  0.59305353  1  0.01588  -0.000897  -0.064504  -0.021491  -0.000524  3.949168  0.0
C  C72  1  0.10954895  0.74564386  0.87234442  1  -0.041847  -0.000783  -0.068689  -0.132639  -0.000506  3.895377  0.0
C  C73  1  0.39045462  0.75434908  0.37233963  1  -0.041949  0.000782  -0.068701  -0.132454  0.000506  3.895576  0.0
C  C74  1  0.89044589  0.25434810  0.12765921  1  -0.042055  0.000783  -0.068682  -0.132528  0.000507  3.895672  0.0
C  C75  1  0.60954818  0.24566532  0.62765861  1  -0.04086  -0.000783  -0.068703  -0.132672  -0.000506  3.895705  0.0
C  C76  1  0.23067962  0.71905457  0.90353348  1  0.394901  -0.00073  0.115651  0.153994  -0.000538  3.957175  0.0
C  C77  1  0.26933241  0.78094095  0.40352853  1  0.394892  0.000727  0.115642  0.154038  0.000536  3.956911  0.0
C  C78  1  0.76931991  0.28093817  0.09647074  1  0.395152  0.000728  0.115555  0.153993  0.000537  3.957039  0.0
C  C79  1  0.73067145  0.21906859  0.59647151  1  0.395062  -0.000727  0.11557  0.154123  -0.000536  3.95668  0.0
C  C80  1  0.28443210  0.64295115  0.87376754  1  0.429188  -0.007614  0.115983  0.165531  -0.004313  4.00034  -0.005
C  C81  1  0.21558438  0.85705108  0.37376436  1  0.419033  0.007625  0.11605  0.165401  0.004308  4.000579  0.005
C  C82  1  0.71557184  0.35704654  0.12623369  1  0.418888  0.007627  0.115972  0.165368  0.00431  4.00016  0.005
C  C83  1  0.78441024  0.14295481  0.62623687  1  0.418797  -0.007626  0.116059  0.165398  -0.004309  4.0003  -0.005
C  C84  1  0.22604956  0.58147481  0.81113423  1  -0.001266  -0.000896  -0.065421  -0.172186  -0.000734  3.847045  0.0
C  C85  1  0.27396968  0.91852746  0.31113360  1  0.008702  0.000878  -0.065409  -0.172262  0.000733  3.847261  0.0
C  C86  1  0.77396266  0.41852442  0.18886641  1  0.00889  0.000879  -0.06537  -0.172169  0.000734  3.846892  0.0
C  C87  1  0.72602399  0.08147633  0.68886644  1  0.008806  -0.000879  -0.065503  -0.17241  -0.000734  3.847269  0.0
C  C88  1  0.29519606  0.51239928  0.79146392  1  -0.010339  -0.009778  0.007255  0.096835  -0.005457  3.983196  -0.006
C  C89  1  0.20481992  0.98760411  0.29146672  1  -0.010468  0.009768  0.007257  0.097073  0.005452  3.983162  0.006
C  C90  1  0.70481150  0.48760405  0.20853193  1  -0.010522  0.009773  0.007235  0.096802  0.005454  3.983152  0.006
C  C91  1  0.79516451  0.01239604  0.70853212  1  -0.010914  -0.00977  0.007396  0.097217  -0.005452  3.983398  -0.006
C  C92  1  0.42255263  0.50720219  0.83532533  1  0.044212  -0.001318  -0.065238  -0.175938  -0.000948  3.851763  0.0
C  C93  1  0.07746721  0.99280245  0.33532361  1  0.044066  0.001318  -0.065271  -0.175978  0.000948  3.851967  0.0
C  C94  1  0.57745412  0.49279694  0.16467291  1  0.044376  0.001319  -0.065263  -0.175877  0.000948  3.852051  0.0
C  C95  1  0.92251677  0.00719909  0.66467523  1  0.044236  -0.001318  -0.065263  -0.175932  -0.000948  3.852011  0.0
C  C96  1  0.47904259  0.57228450  0.89589608  1  0.401469  -0.007353  0.113387  0.155024  -0.004105  4.023566  -0.005
C  C97  1  0.02097597  0.92771871  0.39589181  1  0.401312  0.007347  0.113303  0.154853  0.004102  4.023016  0.005
C  C98  1  0.52096117  0.42771040  0.10410575  1  0.401464  0.00735  0.113365  0.154945  0.004103  4.023676  0.005
C  C99  1  0.97901442  0.07228503  0.60410883  1  0.400742  -0.007348  0.113266  0.15482  -0.004103  4.023293  -0.005
C  C100  1  0.61527130  0.58431760  0.94414366  1  0.38884  -0.002319  0.11534  0.148072  -0.001257  3.97882  -0.001
C  C101  1  0.88474033  0.91568155  0.44413487  1  0.389063  0.002314  0.115234  0.147929  0.001254  3.978202  0.001
C  C102  1  0.38472855  0.41567585  0.05586236  1  0.388939  0.002316  0.115183  0.147827  0.001255  3.978736  0.001
C  C103  1  0.11525535  0.08431949  0.55586816  1  0.388844  -0.002317  0.115206  0.147774  -0.001255  3.978492  -0.001
C  C104  1  0.71015302  0.52749711  0.94034016  1  0.017505  0.000476  -0.070163  -0.136006  9.2e-05  3.893203  0.001
C  C105  1  0.78984661  0.97249970  0.44032555  1  0.017552  -0.000476  -0.070135  -0.135991  -9.2e-05  3.892849  -0.001
C  C106  1  0.28984746  0.47249774  0.05966766  1  0.017561  -0.000476  -0.070107  -0.135897  -9.2e-05  3.893201  -0.001
C  C107  1  0.21013874  0.02749768  0.55967688  1  0.017213  0.000477  -0.070099  -0.135911  9.3e-05  3.892956  0.001
C  C108  1  0.83654499  0.54870043  0.99029416  1  -0.066441  -0.002893  -0.072432  -0.037395  -0.00163  3.987955  -0.002
C  C109  1  0.66345361  0.95128646  0.49027671  1  -0.065992  0.002886  -0.072443  -0.037383  0.001626  3.988086  0.002
C  C110  1  0.16345553  0.45129929  0.00971366  1  -0.066043  0.002888  -0.072468  -0.037345  0.001627  3.987975  0.002
C  C111  1  0.33653830  0.04871103  0.50972931  1  -0.066119  -0.002889  -0.072442  -0.037264  -0.001628  3.987985  -0.002
C  C112  1  0.86679890  0.62587028  0.04176491  1  0.008186  0.000695  -0.079537  -0.130978  0.000365  3.983538  0.001
C  C113  1  0.63321084  0.87412571  0.54175197  1  0.006553  -0.000696  -0.079382  -0.130675  -0.000366  3.983675  -0.001
C  C114  1  0.13320193  0.37413015  0.95824232  1  0.007778  -0.000694  -0.079474  -0.130843  -0.000365  3.983541  -0.001
C  C115  1  0.36679017  0.12587751  0.45825764  1  0.006699  0.000695  -0.079439  -0.130813  0.000365  3.983829  0.001
C  C116  1  0.76756294  0.67997838  0.04271455  1  0.453735  -0.002913  0.056673  0.093612  -0.00174  3.900657  -0.002
C  C117  1  0.73245607  0.82002126  0.54270328  1  0.454304  0.002909  0.056753  0.093715  0.001737  3.900729  0.002
C  C118  1  0.23243507  0.32002061  0.95729147  1  0.453591  0.002909  0.05663  0.093603  0.001737  3.900547  0.002
C  C119  1  0.26754822  0.17998201  0.45730454  1  0.453524  -0.00291  0.056728  0.093647  -0.001738  3.900845  -0.002
C  C120  1  0.11225717  0.41229413  0.59667080  1  0.446683  -0.001217  0.045667  0.091256  -6.2e-05  3.940485  -0.001
C  C121  1  0.38773550  0.08770390  0.09667113  1  0.446938  0.001217  0.045692  0.09142  6.2e-05  3.940204  0.001
C  C122  1  0.88774133  0.58770835  0.40332684  1  0.446771  0.001218  0.045644  0.091363  6.3e-05  3.94037  0.001
C  C123  1  0.61224968  0.91229069  0.90332711  1  0.446321  -0.001216  0.045586  0.091193  -6.2e-05  3.940333  -0.001
C  C124  1  0.16646334  0.47549405  0.65851104  1  -0.020207  0.003048  -0.080363  -0.174296  0.001834  3.905912  0.003
C  C125  1  0.33353796  0.02450761  0.15850944  1  -0.01985  -0.003051  -0.080416  -0.174486  -0.001836  3.906078  -0.003
C  C126  1  0.83353298  0.52450839  0.34148720  1  -0.020072  -0.003051  -0.080324  -0.17445  -0.001836  3.905998  -0.003
C  C127  1  0.66643565  0.97548539  0.84148341  1  -0.02009  0.003049  -0.080328  -0.17426  0.001835  3.905954  0.003
C  C128  1  0.23579002  0.44738777  0.72485869  1  -0.048255  -0.003724  0.010447  0.102658  -0.002096  3.992539  -0.002
C  C129  1  0.26422379  0.05261624  0.22485972  1  -0.048522  0.003724  0.010513  0.102691  0.002096  3.992527  0.002
C  C130  1  0.76421521  0.55261761  0.27513955  1  -0.0481  0.003723  0.01049  0.102788  0.002096  3.992465  0.002
C  C131  1  0.73575906  0.94738040  0.77513613  1  -0.047633  -0.003722  0.010485  0.102473  -0.002095  3.992524  -0.002
C  C132  1  0.24689597  0.35588441  0.72518171  1  -0.001692  0.002233  -0.080465  -0.16964  0.001372  3.920169  0.002
C  C133  1  0.25311658  0.14411679  0.22518731  1  -0.001467  -0.002237  -0.08048  -0.169717  -0.001374  3.920306  -0.002
C  C134  1  0.75311018  0.64411820  0.27481533  1  -0.001567  -0.002235  -0.080499  -0.169611  -0.001373  3.920011  -0.002
C  C135  1  0.74687766  0.85587864  0.77481153  1  -0.001632  0.002235  -0.08045  -0.169619  0.001373  3.920263  0.002
C  C136  1  0.18511409  0.29624019  0.66195225  1  0.458433  -0.002332  0.047421  0.089001  -0.000932  3.935758  -0.002
C  C137  1  0.31489169  0.20376158  0.16195263  1  0.458382  0.002333  0.047477  0.089168  0.000933  3.9357  0.002
C  C138  1  0.81489129  0.70376310  0.33804539  1  0.458345  0.002335  0.047436  0.089111  0.000933  3.935819  0.002
C  C139  1  0.68511115  0.79623609  0.83804561  1  0.458154  -0.002331  0.04742  0.089089  -0.000931  3.935831  -0.002
S  S140  1  0.50719970  0.77840414  0.15364708  1  3.727452  0.000406  0.523758  1.369898  0.001435  6.424872  0.001
S  S141  1  0.99281759  0.72160229  0.65364144  1  3.728137  -0.000405  0.523869  1.370266  -0.001434  6.424904  -0.001
S  S142  1  0.49280173  0.22159281  0.84634876  1  3.727332  -0.000407  0.523794  1.37007  -0.001436  6.424796  -0.001
S  S143  1  0.00718494  0.27839468  0.34635680  1  3.72812  0.000406  0.523786  1.37018  0.001436  6.425066  0.001
N  N144  1  0.31587534  0.76572812  0.96680250  1  -1.170797  -0.003722  -0.328195  -0.219947  -0.00184  3.599839  -0.005
N  N145  1  0.18413599  0.73426949  0.46679428  1  -1.169964  0.003722  -0.328209  -0.219971  0.001838  3.599582  0.005
N  N146  1  0.68412733  0.23426676  0.03319933  1  -1.170743  0.00372  -0.328266  -0.220105  0.00184  3.599972  0.005
N  N147  1  0.81586769  0.26573726  0.53320516  1  -1.170591  -0.003728  -0.328244  -0.220165  -0.001841  3.599873  -0.005
N  N148  1  0.40925981  0.63773312  0.91473201  1  -1.160248  -0.00449  -0.359555  -0.270144  -0.001874  3.742612  -0.006
N  N149  1  0.09075666  0.86226678  0.41472853  1  -1.16011  0.004478  -0.359528  -0.26997  0.001869  3.742678  0.006
N  N150  1  0.59074036  0.36226102  0.08527042  1  -1.160643  0.004491  -0.359499  -0.27001  0.001874  3.742591  0.006
N  N151  1  0.90923793  0.13773424  0.58527270  1  -1.159365  -0.004487  -0.359519  -0.269939  -0.001874  3.742607  -0.006
N  N152  1  0.64368167  0.65960761  0.99533582  1  -1.154151  -0.000841  -0.326528  -0.212988  -0.000237  3.602708  -0.001
N  N153  1  0.85633403  0.84039288  0.49532703  1  -1.15402  0.000839  -0.326696  -0.213013  0.000235  3.602431  0.001
N  N154  1  0.35631521  0.34038648  0.00466661  1  -1.154193  0.000843  -0.326497  -0.212955  0.000239  3.602528  0.002
N  N155  1  0.14366634  0.15960894  0.50467900  1  -1.15358  -0.000845  -0.326709  -0.212944  -0.000239  3.602677  -0.002
N  N156  1  0.11841900  0.32334958  0.59863800  1  -1.211931  0.069963  -0.314783  -0.200299  0.040081  3.562096  0.06
N  N157  1  0.38157562  0.17665269  0.09863933  1  -1.21184  -0.06997  -0.314771  -0.200416  -0.040087  3.562038  -0.06
N  N158  1  0.88158154  0.67665503  0.40135785  1  -1.211923  -0.06997  -0.314783  -0.200499  -0.040087  3.562366  -0.06
N  N159  1  0.61842722  0.82334498  0.90136070  1  -1.211765  0.069967  -0.314702  -0.200285  0.040085  3.562022  0.06
O  O160  1  0.58078615  0.82049469  0.07233293  1  -1.224016  -0.003004  -0.379121  -0.634727  -0.001723  2.242573  -0.003
O  O161  1  0.91922396  0.67951001  0.57232772  1  -1.223937  0.003006  -0.379104  -0.634778  0.001723  2.242627  0.003
O  O162  1  0.41922314  0.17951006  0.92766651  1  -1.223971  0.003016  -0.379113  -0.634748  0.001729  2.242596  0.003
O  O163  1  0.08079278  0.32048720  0.42766873  1  -1.223947  -0.003006  -0.379045  -0.634789  -0.001723  2.242693  -0.003
O  O164  1  0.44105871  0.67551825  0.13696948  1  -1.338582  0.058784  -0.377679  -0.692367  0.033033  2.140043  0.049
O  O165  1  0.05894601  0.82448809  0.63696711  1  -1.338379  -0.058778  -0.377692  -0.692497  -0.03303  2.140092  -0.049
O  O166  1  0.55892495  0.32448258  0.86301260  1  -1.338251  -0.058746  -0.377623  -0.69234  -0.033015  2.140079  -0.049
O  O167  1  0.94105948  0.17550823  0.36302934  1  -1.338074  0.058761  -0.377743  -0.692504  0.03302  2.140142  0.049
O  O168  1  0.38767577  0.82165917  0.17410003  1  -1.352381  0.00415  -0.375583  -0.66896  0.002113  2.173108  0.004
O  O169  1  0.11235321  0.67835078  0.67408893  1  -1.351699  -0.00415  -0.375611  -0.669093  -0.002113  2.173198  -0.004
O  O170  1  0.61233553  0.17834282  0.82590300  1  -1.352518  -0.004148  -0.375582  -0.669025  -0.002112  2.173207  -0.004
O  O171  1  0.88765072  0.32164691  0.32591470  1  -1.352096  0.004146  -0.37555  -0.669027  0.002111  2.173291  0.004
O  O172  1  0.62820626  0.79848068  0.21433886  1  -1.33464  0.008351  -0.377612  -0.648746  0.004493  2.110448  0.007
O  O173  1  0.87181989  0.70152031  0.71433521  1  -1.336109  -0.008352  -0.377672  -0.648798  -0.004494  2.110289  -0.007
O  O174  1  0.37179304  0.20149951  0.78565759  1  -1.334717  -0.008347  -0.377734  -0.64894  -0.00449  2.110301  -0.007
O  O175  1  0.12818108  0.29847803  0.28565885  1  -1.336134  0.008351  -0.377671  -0.648822  0.004493  2.110224  0.007
