# generated using pymatgen
data_CuH26C27SN6(ClO)2
_symmetry_space_group_name_H-M   'P 1'
_cell_length_a   8.59127223
_cell_length_b   13.10098798
_cell_length_c   14.31306965
_cell_angle_alpha   73.70890298
_cell_angle_beta   73.43460854
_cell_angle_gamma   83.51424919
_symmetry_Int_Tables_number   1
_chemical_formula_structural   CuH26C27SN6(ClO)2
_chemical_formula_sum   'Cu2 H52 C54 S2 N12 Cl4 O4'
_cell_volume   1481.17997235
_cell_formula_units_Z   2
loop_
 _symmetry_equiv_pos_site_id
 _symmetry_equiv_pos_as_xyz
  1  'x, y, z'
loop_
 _atom_site_type_symbol
 _atom_site_label
 _atom_site_symmetry_multiplicity
 _atom_site_fract_x
 _atom_site_fract_y
 _atom_site_fract_z
 _atom_site_occupancy
 _atom_site_hle17_ddec_charge
 _atom_site_hle17_ddec_spin_density
 _atom_site_hle17_ddec_sum_bond_order
 _atom_site_hle17_magmom
 _atom_site_hse06_10hf_bader_charge
 _atom_site_hse06_10hf_bader_spin_density
 _atom_site_hse06_10hf_ddec_charge
 _atom_site_hse06_10hf_ddec_spin_density
 _atom_site_hse06_10hf_ddec_sum_bond_order
 _atom_site_hse06_10hf_magmom
 _atom_site_hse06_ddec_charge
 _atom_site_hse06_ddec_spin_density
 _atom_site_hse06_ddec_sum_bond_order
 _atom_site_hse06_magmom
 _atom_site_pbe_cm5_charge
 _atom_site_pbe_ddec_charge
 _atom_site_pbe_ddec_spin_density
 _atom_site_pbe_ddec_sum_bond_order
 _atom_site_pbe_magmom
Cu  Cu0  1  0.73167855  0.44880035  0.17018482  1  0.746371  -0.640436  1.933876  -0.44  0.995234  -0.558464  0.721566  -0.743125  2.356819  -0.559  0.810536  -0.825153  2.279809  -0.642  0.605978  0.673472  -0.69148  2.404184  -0.51
Cu  Cu1  1  0.26832538  0.55119521  0.82980648  1  0.746362  0.640434  1.933988  0.44  0.995265  0.558463  0.721567  0.743121  2.356921  0.559  0.810475  0.825133  2.279919  0.642  0.605969  0.673448  0.691468  2.404304  0.51
H  H2  1  0.00824605  0.01636576  0.11152485  1  0.108504  -1.8e-05  0.948615  0.0  0.078597  -1.2e-05  0.120573  -8e-06  1.007252  0.0  0.123139  -9e-06  1.006548  0.0  0.105834  0.118692  -8e-06  1.007889  0.0
H  H3  1  0.99175999  0.98363617  0.88847214  1  0.108499  1.6e-05  0.948637  0.0  0.07865  1.2e-05  0.120567  8e-06  1.007266  0.0  0.123131  9e-06  1.00657  0.0  0.105819  0.118687  8e-06  1.007903  0.0
H  H4  1  0.96220972  0.84963144  0.25174056  1  0.085898  1.5e-05  0.969006  0.0  0.060652  1e-06  0.098164  8e-06  1.031462  0.0  0.10067  7e-06  1.030525  0.0  0.098779  0.096266  1e-05  1.032321  0.0
H  H5  1  0.03779624  0.15037208  0.74825743  1  0.085892  -1.3e-05  0.96901  0.0  0.060615  -1e-06  0.098157  -8e-06  1.031464  0.0  0.100663  -7e-06  1.03053  0.0  0.098782  0.09626  -1e-05  1.032325  0.0
H  H6  1  0.40443808  0.70420104  0.10414019  1  0.113277  0.000192  0.956336  0.0  0.114367  0.000135  0.124886  0.000128  1.018377  0.0  0.128124  9.6e-05  1.016526  0.0  0.101518  0.122616  0.000154  1.019679  0.0
H  H7  1  0.59557033  0.29580247  0.89585250  1  0.113308  -0.000193  0.956314  0.0  0.114271  -0.000135  0.124917  -0.000128  1.018355  0.0  0.128154  -9.6e-05  1.016513  0.0  0.101544  0.122646  -0.000154  1.019655  0.0
H  H8  1  0.70277294  0.99987622  0.75329302  1  0.085396  -5.8e-05  0.976047  0.0  0.079098  1.5e-05  0.097439  -3e-06  1.038944  0.0  0.099936  -5e-06  1.037844  0.0  0.097007  0.095607  -0.0  1.039875  0.0
H  H9  1  0.29721582  0.00013135  0.24671105  1  0.0853  6e-05  0.976139  0.0  0.079103  -1.4e-05  0.097346  3e-06  1.039044  0.0  0.099842  5e-06  1.037945  0.0  0.096925  0.095514  0.0  1.039976  0.0
H  H10  1  0.81907011  0.11889676  0.58561411  1  0.101981  1.3e-05  0.945505  0.0  0.069047  -2e-06  0.112234  -8e-06  1.006379  0.0  0.11529  -5e-06  1.00494  0.0  0.105381  0.109956  -9e-06  1.007603  0.0
H  H11  1  0.18092101  0.88111239  0.41438845  1  0.10188  -1.1e-05  0.945431  0.0  0.069175  2e-06  0.112121  8e-06  1.006341  0.0  0.115199  5e-06  1.004875  0.0  0.105351  0.109842  9e-06  1.007564  0.0
H  H12  1  0.38673985  0.32217863  0.62032982  1  0.109779  5.4e-05  0.941204  0.0  0.096997  0.000115  0.121215  7.8e-05  0.998074  0.0  0.124508  4.8e-05  0.996099  0.0  0.106907  0.118856  0.000105  0.999568  0.0
H  H13  1  0.61324426  0.67782497  0.37966908  1  0.109823  -5.4e-05  0.941155  0.0  0.09718  -0.000114  0.121238  -7.8e-05  0.998033  0.0  0.124531  -4.8e-05  0.996056  0.0  0.106861  0.118873  -0.000105  0.999535  0.0
H  H14  1  0.27158710  0.20444860  0.78884524  1  0.099482  -7.5e-05  0.95859  0.0  0.088316  -2e-05  0.10583  -3.1e-05  1.02868  0.0  0.108777  -2.4e-05  1.026623  0.0  0.103808  0.103772  -3.5e-05  1.030095  0.0
H  H15  1  0.72840095  0.79554862  0.21115463  1  0.099468  7.6e-05  0.958424  0.0  0.088301  2e-05  0.105744  3.1e-05  1.028583  0.0  0.108692  2.4e-05  1.026526  0.0  0.103768  0.103682  3.5e-05  1.030003  0.0
H  H16  1  0.25605563  0.62948768  0.28934723  1  0.106382  -0.001737  0.951162  0.0  0.155533  -0.001761  0.12241  -0.001722  1.012339  0.0  0.124866  -0.001355  1.010724  0.0  0.109108  0.120641  -0.001981  1.01358  -0.001
H  H17  1  0.74394806  0.37051267  0.71064987  1  0.106441  0.001737  0.951052  0.0  0.155553  0.001761  0.122454  0.001722  1.01224  0.0  0.124909  0.001355  1.010623  0.0  0.109129  0.120684  0.001981  1.013484  0.001
H  H18  1  0.05033557  0.67595915  0.33381580  1  0.098448  0.000116  0.900519  0.0  0.090863  -2.7e-05  0.113907  1.9e-05  0.957094  0.0  0.115622  2.9e-05  0.955399  0.0  0.122943  0.112522  9e-06  0.958469  0.0
H  H19  1  0.94966926  0.32404278  0.66617860  1  0.098506  -0.000114  0.900468  0.0  0.09081  2.7e-05  0.113937  -1.9e-05  0.957071  0.0  0.115651  -2.9e-05  0.955378  0.0  0.122958  0.112554  -9e-06  0.95844  0.0
H  H20  1  0.31059788  0.51058172  0.16274638  1  0.144644  0.000369  0.977955  0.0  0.224436  -0.000138  0.151835  9.7e-05  1.043668  0.0  0.156979  7.1e-05  1.038484  0.0  0.118123  0.148204  0.000112  1.047212  0.0
H  H21  1  0.68940841  0.48941464  0.83725340  1  0.144639  -0.00037  0.978015  0.0  0.224519  0.000137  0.151846  -9.7e-05  1.043696  0.0  0.15698  -7.1e-05  1.038523  0.0  0.118136  0.148217  -0.000112  1.047242  0.0
H  H22  1  0.33460607  0.38002014  0.03850964  1  0.124124  -0.002328  0.976668  -0.001  0.12884  -0.002754  0.136639  -0.002212  1.035594  -0.001  0.140694  -0.00172  1.034275  -0.001  0.096356  0.133842  -0.00256  1.036817  -0.001
H  H23  1  0.66539766  0.61997941  0.96148836  1  0.124113  0.002329  0.976657  0.001  0.128891  0.002753  0.136605  0.002212  1.035614  0.001  0.14066  0.00172  1.034297  0.001  0.096365  0.133808  0.00256  1.036839  0.001
H  H24  1  0.31400438  0.24516284  0.94632765  1  0.09409  -0.000282  0.956945  0.0  0.114227  -0.000162  0.103561  -6.8e-05  1.021433  0.0  0.106154  -1.9e-05  1.019203  0.0  0.103585  0.10172  -0.000122  1.023007  0.0
H  H25  1  0.68599809  0.75483752  0.05367175  1  0.094191  0.00028  0.956866  0.0  0.11429  0.000163  0.103659  6.8e-05  1.021374  0.0  0.106251  1.9e-05  1.019144  0.0  0.103626  0.101823  0.000122  1.022931  0.0
H  H26  1  0.04060012  0.19135785  0.95522049  1  0.101335  -0.000395  0.98714  0.0  0.114918  -0.000862  0.105711  -0.000448  1.060158  -0.001  0.10857  -0.000337  1.060271  0.0  0.100803  0.103666  -0.000537  1.060258  -0.001
H  H27  1  0.95940986  0.80863770  0.04477747  1  0.101315  0.000396  0.987202  0.0  0.114956  0.000861  0.105678  0.000448  1.060251  0.001  0.108535  0.000337  1.060366  0.0  0.1008  0.103634  0.000537  1.060351  0.001
H  H28  1  0.79251911  0.28224848  0.04743824  1  0.077411  -0.000557  0.996758  -0.002  0.152047  -0.001645  0.08316  -0.000662  1.068317  -0.002  0.085805  -0.000444  1.066224  -0.001  0.100244  0.081287  -0.000869  1.069693  -0.002
H  H29  1  0.20748841  0.71774787  0.95255854  1  0.077415  0.000556  0.996793  0.002  0.151967  0.001645  0.083185  0.000662  1.068311  0.002  0.085832  0.000445  1.066212  0.001  0.100259  0.081286  0.000869  1.069718  0.002
H  H30  1  0.63900955  0.45329737  0.41320478  1  0.104829  0.000237  0.978943  0.0  0.092722  0.000138  0.118771  0.000151  1.052364  0.0  0.120349  0.000127  1.051688  0.0  0.092892  0.117526  0.000165  1.053031  0.0
H  H31  1  0.36098833  0.54669743  0.58679265  1  0.10487  -0.000236  0.978916  0.0  0.092758  -0.000138  0.118801  -0.000151  1.05234  0.0  0.120377  -0.000127  1.051668  0.0  0.092901  0.117556  -0.000165  1.053008  0.0
H  H32  1  0.61485434  0.42846219  0.54663542  1  0.099658  0.000661  0.963371  0.0  0.101223  0.000647  0.120356  0.000667  1.027228  0.0  0.121863  0.000511  1.02655  0.0  0.098917  0.119335  0.00078  1.027643  0.0
H  H33  1  0.38514464  0.57153498  0.45336050  1  0.099757  -0.000662  0.96337  0.0  0.101306  -0.000648  0.120506  -0.000668  1.027155  0.0  0.122013  -0.000511  1.02647  0.0  0.098935  0.119485  -0.00078  1.027569  0.0
H  H34  1  0.81275316  0.42755537  0.46175166  1  0.089695  -2.6e-05  0.920967  0.0  0.053285  1.4e-05  0.107247  -1.1e-05  0.984036  0.0  0.108082  -1.1e-05  0.983448  0.0  0.094958  0.106666  -8e-06  0.98444  0.0
H  H35  1  0.18724372  0.57243466  0.53824926  1  0.089714  2.4e-05  0.921062  0.0  0.05315  -1.5e-05  0.107283  1.1e-05  0.984094  0.0  0.108119  1.1e-05  0.983506  0.0  0.094972  0.106701  8e-06  0.984499  0.0
H  H36  1  0.76458565  0.06200140  0.22050383  1  0.106115  2e-06  0.962431  0.0  0.019421  0.0  0.129251  3e-06  1.021622  0.0  0.129723  2e-06  1.023264  0.0  0.084776  0.12892  4e-06  1.020459  0.0
H  H37  1  0.23542537  0.93799734  0.77950152  1  0.106104  -2e-06  0.962436  0.0  0.019399  -0.0  0.129245  -3e-06  1.021621  0.0  0.129718  -2e-06  1.023263  0.0  0.084821  0.128914  -4e-06  1.02046  0.0
H  H38  1  0.57794112  0.09386972  0.30148897  1  0.11396  6e-06  0.945618  0.0  0.058002  6e-06  0.134717  5e-06  1.004833  0.0  0.136345  5e-06  1.004732  0.0  0.087134  0.133534  4e-06  1.004927  0.0
H  H39  1  0.42206499  0.90613062  0.69851122  1  0.113896  -4e-06  0.945603  0.0  0.057911  -6e-06  0.134677  -5e-06  1.004811  0.0  0.13631  -5e-06  1.004703  0.0  0.087132  0.133494  -4e-06  1.004904  0.0
H  H40  1  0.71946321  0.19500020  0.23156923  1  0.121007  0.000233  0.987942  0.0  0.063717  0.000122  0.133872  0.00015  1.061735  0.0  0.135432  0.000136  1.061812  0.0  0.08409  0.132531  0.000154  1.06204  0.0
H  H41  1  0.28054781  0.80499854  0.76843612  1  0.120905  -0.000234  0.988045  0.0  0.063623  -0.000122  0.133762  -0.000151  1.061888  0.0  0.13532  -0.000136  1.061969  0.0  0.084037  0.132422  -0.000154  1.062192  0.0
H  H42  1  0.02912081  0.04297847  0.28074804  1  0.106031  1e-06  0.972014  0.0  -0.00533  -1e-06  0.128313  1e-06  1.034203  0.0  0.129048  1e-06  1.035519  0.0  0.087581  0.127814  1e-06  1.033242  0.0
H  H43  1  0.97088262  0.95702666  0.71925695  1  0.105949  -2e-06  0.972131  0.0  -0.005081  1e-06  0.128223  -1e-06  1.034329  0.0  0.128958  -1e-06  1.035649  0.0  0.087539  0.127723  -1e-06  1.033367  0.0
H  H44  1  0.02225332  0.08942327  0.38737390  1  0.105252  1e-06  0.948335  0.0  0.015972  -0.0  0.124632  -1e-06  1.011434  0.0  0.126244  -0.0  1.010834  0.0  0.086645  0.123418  -1e-06  1.011928  0.0
H  H45  1  0.97775259  0.91058106  0.61262949  1  0.1052  1e-06  0.948203  0.0  0.015937  0.0  0.124649  1e-06  1.011234  0.0  0.126258  0.0  1.010637  0.0  0.086652  0.123437  1e-06  1.011726  0.0
H  H46  1  0.99798542  0.18143312  0.27358278  1  0.132887  3e-06  0.952345  0.0  0.094274  6e-06  0.152608  -0.0  1.007269  0.0  0.154733  -2e-06  1.007029  0.0  0.092413  0.151152  2e-06  1.007335  0.0
H  H47  1  0.00200955  0.81857125  0.72642455  1  0.132902  -3e-06  0.952191  0.0  0.094372  -7e-06  0.152622  -0.0  1.007124  0.0  0.154745  2e-06  1.006887  0.0  0.092447  0.15117  -2e-06  1.007179  0.0
H  H48  1  0.80470359  0.95308825  0.48958726  1  0.10604  1e-06  0.950854  0.0  0.015486  0.0  0.124904  -0.0  1.014327  0.0  0.126459  -0.0  1.013823  0.0  0.08762  0.123732  0.0  1.014768  0.0
H  H49  1  0.19530387  0.04690890  0.51041561  1  0.105961  1e-06  0.950829  0.0  0.015605  -1e-06  0.124833  -0.0  1.014319  0.0  0.126387  -0.0  1.013812  0.0  0.087604  0.123664  -0.0  1.014756  0.0
H  H50  1  0.80747400  0.91375524  0.37947877  1  0.104186  1e-06  0.962078  0.0  0.024807  -7e-06  0.12562  2e-06  1.023429  0.0  0.12638  3e-06  1.024315  0.0  0.087282  0.125067  3e-06  1.022829  0.0
H  H51  1  0.19253501  0.08623475  0.62052568  1  0.104205  -0.0  0.962089  0.0  0.024978  6e-06  0.125597  -3e-06  1.023505  0.0  0.126356  -2e-06  1.024391  0.0  0.087279  0.125046  -3e-06  1.022904  0.0
H  H52  1  0.62197818  0.95782260  0.45262106  1  0.124414  1e-06  0.940085  0.0  0.063386  -5e-06  0.144118  -0.0  0.999465  0.0  0.146303  0.0  0.998623  0.0  0.094845  0.142495  -1e-06  1.000152  0.0
H  H53  1  0.37802693  0.04217297  0.54738192  1  0.124443  1e-06  0.940124  0.0  0.063282  5e-06  0.14415  0.0  0.999501  0.0  0.146324  -0.0  0.998672  0.0  0.094846  0.142528  1e-06  1.000187  0.0
C  C54  1  0.40496042  0.01934938  0.87913488  1  0.151524  0.000126  3.778234  0.0  0.525863  0.000176  0.140383  8e-05  4.065681  0.0  0.15362  6.7e-05  4.079823  0.0  0.130954  0.1315  9.8e-05  4.055901  0.0
C  C55  1  0.59503825  0.98065418  0.12086853  1  0.151438  -0.00014  3.778303  0.0  0.525835  -0.000176  0.140305  -8e-05  4.065765  0.0  0.153541  -7.1e-05  4.07991  0.0  0.131043  0.131437  -9.7e-05  4.055961  0.0
C  C56  1  0.09420494  0.94869461  0.11022982  1  -0.1255  6e-06  3.722554  0.0  -0.012221  4.6e-05  -0.146359  3.3e-05  3.980484  0.0  -0.147997  3.5e-05  3.998624  0.0  -0.089749  -0.145281  2.7e-05  3.968337  0.0
C  C57  1  0.90580113  0.05130652  0.88976946  1  -0.125569  1.8e-05  3.722476  0.0  -0.011926  -4.7e-05  -0.146454  -3.3e-05  3.980413  0.0  -0.148097  -3.3e-05  3.998558  0.0  -0.089764  -0.145373  -2.9e-05  3.968267  0.0
C  C58  1  0.06994877  0.85559258  0.18801897  1  -0.121387  -0.000201  3.770461  0.0  -0.022838  -0.00021  -0.147728  -0.000138  4.031662  0.0  -0.149915  -0.000102  4.052687  0.0  -0.095444  -0.146123  -0.000174  4.017462  0.0
C  C59  1  0.93005362  0.14440937  0.81198003  1  -0.121286  0.000177  3.770484  0.0  -0.022869  0.000212  -0.147627  0.000139  4.031658  0.0  -0.149815  9.8e-05  4.052684  0.0  -0.09542  -0.146019  0.000178  4.017458  0.0
C  C60  1  0.18008774  0.76764198  0.18572215  1  0.071694  0.000117  3.752248  0.0  -0.014565  0.000159  0.08937  9.4e-05  4.00047  0.0  0.087693  0.000125  4.02675  0.0  -0.016109  0.090408  6.1e-05  3.982658  0.0
C  C61  1  0.81991119  0.23235600  0.81428057  1  0.071495  -9.4e-05  3.75226  0.0  -0.014474  -0.000163  0.089211  -9.6e-05  4.000431  0.0  0.087536  -0.000116  4.026718  0.0  -0.016198  0.090247  -6.1e-05  3.98262  0.0
C  C62  1  0.31866298  0.77220104  0.10486875  1  -0.140406  -6.1e-05  3.717495  0.0  -0.014394  -0.000163  -0.169519  -8.4e-05  3.967922  0.0  -0.171427  -6.5e-05  3.988165  0.0  -0.092193  -0.16807  -0.000112  3.954127  0.0
C  C63  1  0.68133572  0.22780172  0.89513207  1  -0.140352  3.9e-05  3.71741  0.0  -0.014244  0.000166  -0.169501  8.5e-05  3.96788  0.0  -0.171396  5.8e-05  3.988078  0.0  -0.09216  -0.168058  0.000115  3.954098  0.0
C  C64  1  0.34248576  0.86486864  0.02603069  1  -0.035687  -3.9e-05  3.784351  0.0  -0.212229  2.6e-05  -0.017021  3.6e-05  4.035917  0.0  -0.01816  2.8e-05  4.059002  0.0  -0.008773  -0.016376  4.3e-05  4.020399  0.0
C  C65  1  0.65752026  0.13513330  0.97397259  1  -0.03573  5.7e-05  3.784492  0.0  -0.212679  -2.6e-05  -0.017066  -3.6e-05  4.035999  0.0  -0.018201  -2.5e-05  4.059086  0.0  -0.008778  -0.016421  -4.4e-05  4.020484  0.0
C  C66  1  0.23058485  0.95398254  0.02716810  1  0.171254  -0.000104  3.862105  0.0  0.435002  -9.7e-05  0.16868  -5.9e-05  4.116151  0.0  0.172371  -4e-05  4.139604  0.0  0.087996  0.166179  -7.8e-05  4.100265  0.0
C  C67  1  0.76941982  0.04602258  0.97283180  1  0.17128  8.8e-05  3.861994  0.0  0.43489  9.7e-05  0.168758  5.8e-05  4.11595  0.0  0.172449  3.8e-05  4.139399  0.0  0.087971  0.16625  7.8e-05  4.10008  0.0
C  C68  1  0.47652308  0.09194001  0.78195490  1  0.005436  -0.00089  3.833455  -0.001  -0.031647  -0.00034  0.021355  -0.000248  4.070289  0.0  0.016624  -0.000267  4.095452  0.0  -0.017621  0.024369  -0.000235  4.053259  0.0
C  C69  1  0.52346201  0.90806836  0.21804819  1  0.005524  0.000894  3.832957  0.001  -0.030914  0.000341  0.02144  0.000249  4.069812  0.0  0.016709  0.000265  4.094975  0.0  -0.017607  0.024454  0.000235  4.052773  0.0
C  C70  1  0.63177970  0.06953309  0.72365870  1  -0.088874  0.002025  3.767829  0.002  -0.073862  0.001217  -0.111723  0.000784  4.018169  0.001  -0.112641  0.000577  4.040305  0.001  -0.089968  -0.110891  0.001029  4.003125  0.001
C  C71  1  0.36820534  0.93047609  0.27634629  1  -0.088858  -0.002032  3.767632  -0.002  -0.074736  -0.001218  -0.111712  -0.000785  4.01799  -0.001  -0.11263  -0.000573  4.040134  -0.001  -0.089908  -0.110886  -0.00103  4.002951  -0.001
C  C72  1  0.69809269  0.13643169  0.62968755  1  -0.138379  -0.000996  3.754978  -0.001  0.03764  -0.000363  -0.162585  -0.00025  4.016508  0.0  -0.166327  -0.000289  4.0361  0.0  -0.092701  -0.160092  -0.00023  4.003364  0.0
C  C73  1  0.30189603  0.86357668  0.37031702  1  -0.138235  0.000994  3.754852  0.001  0.037389  0.000365  -0.162428  0.000251  4.01637  0.0  -0.166189  0.000286  4.035959  0.0  -0.092708  -0.159933  0.000231  4.003233  0.0
C  C74  1  0.60900283  0.22660960  0.59010830  1  0.210684  0.00173  3.774251  0.002  0.325014  0.001332  0.200023  0.000908  4.02693  0.001  0.208043  0.000695  4.047861  0.001  0.096807  0.194491  0.001144  4.01275  0.001
C  C75  1  0.39097874  0.77339561  0.40989899  1  0.210825  -0.001733  3.774214  -0.002  0.324522  -0.001334  0.200154  -0.000909  4.026908  -0.001  0.20818  -0.000693  4.047838  -0.001  0.096935  0.194618  -0.001143  4.012726  -0.001
C  C76  1  0.45593275  0.25113452  0.64882354  1  -0.136937  0.001261  3.731242  0.0  0.011098  0.000731  -0.155853  0.000734  3.982035  0.0  -0.159109  0.000377  4.000248  0.0  -0.088354  -0.153617  0.00106  3.969677  0.0
C  C77  1  0.54405128  0.74887067  0.35117704  1  -0.137063  -0.001256  3.731196  0.0  0.011062  -0.000727  -0.155944  -0.000732  3.981964  0.0  -0.159199  -0.000379  4.000171  0.0  -0.088371  -0.153703  -0.001058  3.969597  0.0
C  C78  1  0.39077459  0.18488760  0.74388996  1  -0.060954  0.001339  3.704865  0.001  0.009725  0.000856  -0.083306  0.000627  3.955821  0.001  -0.082814  0.000515  3.975188  0.0  -0.08033  -0.083403  0.000724  3.942524  0.001
C  C79  1  0.60921054  0.81511998  0.25611262  1  -0.060847  -0.001342  3.704475  -0.001  0.009943  -0.000857  -0.08314  -0.000628  3.955477  -0.001  -0.082649  -0.000513  3.974845  0.0  -0.080221  -0.083238  -0.000724  3.942178  -0.001
C  C80  1  0.14537861  0.66483796  0.26735734  1  -0.067365  -0.002513  3.637939  -0.003  0.239686  -0.003566  -0.145215  -0.002467  3.884149  -0.003  -0.141924  -0.001922  3.89236  -0.002  -0.042833  -0.147228  -0.002868  3.878567  -0.003
C  C81  1  0.85462858  0.33516555  0.73263834  1  -0.067338  0.00251  3.637734  0.003  0.239734  0.003565  -0.145177  0.002467  3.883906  0.003  -0.141888  0.001919  3.892122  0.002  -0.042772  -0.147189  0.002868  3.878327  0.003
C  C82  1  0.06720909  0.47494790  0.14848822  1  0.082313  -0.000363  3.780663  -0.001  0.431751  -0.001597  0.077046  -0.00131  4.038974  -0.002  0.076665  -0.000424  4.061488  -0.001  0.096833  0.077194  -0.001997  4.024337  -0.003
C  C83  1  0.93279114  0.52504848  0.85150909  1  0.082436  0.000349  3.7807  0.001  0.431762  0.001597  0.077169  0.00131  4.038959  0.002  0.076789  0.000424  4.061472  0.001  0.096837  0.077317  0.001998  4.024321  0.003
C  C84  1  0.17942668  0.52110016  0.17536818  1  -0.047205  -0.000836  3.553857  -0.001  0.408095  -0.000984  -0.105153  -0.000732  3.794601  0.0  -0.100598  -0.000727  3.806024  0.0  0.044361  -0.107779  -0.000736  3.786575  0.0
C  C85  1  0.82057713  0.47889779  0.82462742  1  -0.047362  0.000852  3.554359  0.001  0.408065  0.000984  -0.105328  0.000732  3.795037  0.0  -0.100771  0.000729  3.806479  0.0  0.044297  -0.107955  0.000736  3.787008  0.0
C  C86  1  0.07441620  0.39795142  0.09154746  1  0.209051  0.002799  3.769296  0.003  0.459903  5.8e-05  0.206994  -0.000638  4.010031  0.0  0.217132  0.000453  4.031237  0.001  0.122698  0.200374  -0.001438  3.99652  -0.001
C  C87  1  0.92559125  0.60204652  0.90844752  1  0.208956  -0.002758  3.769255  -0.003  0.459871  -6.1e-05  0.20693  0.000636  4.009945  0.0  0.217062  -0.000453  4.031159  -0.001  0.122672  0.200312  0.001437  3.99643  0.001
C  C88  1  0.21765131  0.35500645  0.03876980  1  -0.162132  -0.009182  3.69694  -0.009  0.034291  -0.007685  -0.185257  -0.005741  3.948768  -0.006  -0.194448  -0.004972  3.966616  -0.005  -0.085363  -0.180174  -0.006296  3.938134  -0.006
C  C89  1  0.78235592  0.64499626  0.96122469  1  -0.162  0.009131  3.696852  0.009  0.033762  0.007688  -0.185099  0.005744  3.94867  0.006  -0.19429  0.00497  3.966529  0.005  -0.085275  -0.18002  0.006296  3.938043  0.006
C  C90  1  0.20574685  0.28014041  0.98889494  1  0.009993  0.006407  3.730526  0.006  -0.057485  0.003374  -0.012194  0.002221  3.9894  0.002  -0.006089  0.002486  4.005118  0.003  -0.064831  -0.016224  0.002024  3.979288  0.002
C  C91  1  0.79426167  0.71986071  0.01109904  1  0.009798  -0.006351  3.730771  -0.006  -0.056824  -0.003376  -0.012433  -0.002223  3.989673  -0.002  -0.006329  -0.002483  4.005392  -0.003  -0.064946  -0.016463  -0.002023  3.979571  -0.002
C  C92  1  0.05292182  0.25068926  0.99244600  1  -0.112748  -0.007729  3.707157  -0.008  -0.020612  -0.005637  -0.127394  -0.003869  3.958721  -0.005  -0.135013  -0.00349  3.978846  -0.004  -0.0869  -0.122582  -0.004187  3.945197  -0.005
C  C93  1  0.94708176  0.74931347  0.00754841  1  -0.112722  0.007673  3.707424  0.008  -0.020606  0.005638  -0.127356  0.00387  3.958963  0.005  -0.134972  0.003488  3.979085  0.004  -0.086876  -0.122546  0.004189  3.945434  0.005
C  C94  1  0.91566209  0.29937882  0.04377181  1  0.129823  0.005462  3.698893  0.006  0.453379  0.001816  0.103552  0.000652  3.946329  0.002  0.112833  0.001651  3.96553  0.003  0.042572  0.097845  -0.000169  3.933641  0.001
C  C95  1  0.08434402  0.70062151  0.95622628  1  0.129877  -0.005414  3.69895  -0.006  0.453314  -0.001815  0.103627  -0.000651  3.946346  -0.002  0.112907  -0.001648  3.965542  -0.003  0.042593  0.09794  0.000169  3.933658  -0.001
C  C96  1  0.68517619  0.40745869  0.47727017  1  -0.148191  0.000416  3.659216  0.001  0.229258  0.000733  -0.24678  0.000489  3.908797  0.001  -0.242851  0.000371  3.9169  0.0  -0.140004  -0.249157  0.000571  3.902925  0.001
C  C97  1  0.31481809  0.59253532  0.52272807  1  -0.148294  -0.000415  3.65918  -0.001  0.22919  -0.000733  -0.246902  -0.000489  3.908605  -0.001  -0.242999  -0.000371  3.916772  0.0  -0.140039  -0.249279  -0.000571  3.902728  -0.001
C  C98  1  0.73335902  0.25356842  0.40849024  1  0.723481  0.000278  3.84757  0.0  2.018962  0.000338  0.655961  0.000266  4.149552  0.0  0.695977  0.000219  4.136841  0.0  0.323346  0.629017  0.000297  4.157348  0.0
C  C99  1  0.26662338  0.74641928  0.59151793  1  0.723457  -0.000279  3.84728  0.0  2.019286  -0.000339  0.655866  -0.000268  4.149331  0.0  0.695889  -0.000219  4.136617  0.0  0.323277  0.628919  -0.000297  4.157127  0.0
C  C100  1  0.78762978  0.08409001  0.35952315  1  0.440832  -1.1e-05  3.512662  0.0  0.440411  1.3e-05  0.456479  -1e-06  3.752445  0.0  0.46564  -7e-06  3.764612  0.0  0.07825  0.450086  -2e-06  3.744118  0.0
C  C101  1  0.21237277  0.91590796  0.64048453  1  0.440697  5e-06  3.512703  0.0  0.440447  -1.1e-05  0.456559  3e-06  3.752115  0.0  0.465722  4e-06  3.764278  0.0  0.078242  0.450157  3e-06  3.743809  0.0
C  C102  1  0.70764222  0.11104576  0.27296317  1  -0.393981  0.000108  3.656717  0.0  -0.076574  8.7e-05  -0.477218  8.3e-05  3.890447  0.0  -0.481175  8.1e-05  3.899841  0.0  -0.255909  -0.474149  8.1e-05  3.883932  0.0
C  C103  1  0.29236398  0.88895219  0.72704040  1  -0.393756  -0.000107  3.656792  0.0  -0.076586  -8.7e-05  -0.477092  -8.3e-05  3.890486  0.0  -0.481056  -7.9e-05  3.899874  0.0  -0.255896  -0.474023  -8e-05  3.883972  0.0
C  C104  1  0.97037742  0.10148620  0.32296613  1  -0.392715  -1e-06  3.651489  0.0  -0.055129  1e-05  -0.471159  -1e-06  3.879271  0.0  -0.475155  -2e-06  3.887729  0.0  -0.250569  -0.468126  -1e-06  3.873261  0.0
C  C105  1  0.02962484  0.89851814  0.67703927  1  -0.39263  0.0  3.651233  0.0  -0.055506  -1e-05  -0.47118  2e-06  3.878989  0.0  -0.475173  3e-06  3.88745  0.0  -0.250569  -0.468148  1e-06  3.872983  0.0
C  C106  1  0.75313268  0.97043875  0.42457769  1  -0.373602  2e-06  3.653264  0.0  -0.06908  1e-06  -0.455543  3e-06  3.890617  0.0  -0.458814  2e-06  3.898627  0.0  -0.244506  -0.453045  1e-06  3.885082  0.0
C  C107  1  0.24687615  0.02955522  0.57542437  1  -0.373533  -3e-06  3.653278  0.0  -0.069167  1e-06  -0.455517  -2e-06  3.8906  0.0  -0.458775  -2e-06  3.898605  0.0  -0.2445  -0.453021  -1e-06  3.885067  0.0
S  S108  1  0.49691838  0.89250629  0.91563003  1  0.086217  0.00103  2.480568  0.0  0.208064  0.000862  0.093638  0.000835  2.79403  0.0  0.091363  0.000575  2.797589  0.0  0.100605  0.095034  0.001063  2.791717  0.0
S  S109  1  0.50308850  0.10750359  0.08436686  1  0.08626  -0.001029  2.480543  0.0  0.208028  -0.000861  0.093685  -0.000835  2.793987  0.0  0.091408  -0.000575  2.797545  0.0  0.100569  0.095076  -0.001061  2.791669  0.0
N  N110  1  0.26910218  0.03886167  0.94326049  1  -0.380033  -0.000181  3.073763  0.0  -1.26492  8.2e-05  -0.352547  5e-05  3.353086  0.0  -0.367259  2e-06  3.369489  0.0  -0.31883  -0.342267  9.1e-05  3.341603  0.0
N  N111  1  0.73089649  0.96114189  0.05674153  1  -0.380014  0.000191  3.07374  0.0  -1.264719  -8.1e-05  -0.352532  -5e-05  3.35301  0.0  -0.367245  -1e-06  3.369419  0.0  -0.318885  -0.342257  -8.9e-05  3.341524  0.0
N  N112  1  0.08760889  0.58625834  0.23043139  1  0.071123  -0.002013  3.549491  -0.003  -0.799476  -0.003822  0.184608  -0.002424  3.743193  -0.004  0.177457  -0.001624  3.763215  -0.003  -0.115635  0.189141  -0.003041  3.729575  -0.004
N  N113  1  0.91239229  0.41374360  0.76956502  1  0.071133  0.002008  3.549904  0.003  -0.799718  0.003825  0.184667  0.002426  3.743532  0.004  0.177518  0.001623  3.763553  0.003  -0.115623  0.189199  0.003043  3.729917  0.004
N  N114  1  0.92781198  0.58352120  0.23819635  1  -0.071564  0.002987  2.823264  0.004  -0.043661  0.000155  -0.083062  -0.000219  3.093652  0.001  -0.078461  0.000869  3.107314  0.002  -0.075318  -0.085525  -0.001154  3.084934  0.0
N  N115  1  0.07218680  0.41647996  0.76180417  1  -0.071494  -0.002987  2.823332  -0.004  -0.04359  -0.000154  -0.083039  0.00022  3.093721  -0.001  -0.078439  -0.000869  3.107379  -0.002  -0.075304  -0.085506  0.001153  3.085005  0.0
N  N116  1  0.91698116  0.51537039  0.18887323  1  -0.21694  -0.054651  3.321242  -0.065  -0.641192  -0.067381  -0.184805  -0.04816  3.645232  -0.061  -0.20687  -0.042557  3.665126  -0.057  -0.228301  -0.172784  -0.051088  3.63431  -0.063
N  N117  1  0.08301898  0.48462759  0.81112858  1  -0.217017  0.054657  3.32131  0.065  -0.641303  0.067373  -0.184837  0.048155  3.645255  0.061  -0.206888  0.04256  3.665129  0.057  -0.228333  -0.172813  0.051083  3.634327  0.063
N  N118  1  0.92588480  0.37142059  0.09208999  1  -0.329198  -0.068712  3.29399  -0.083  -1.238962  -0.081863  -0.277107  -0.056814  3.574751  -0.073  -0.30805  -0.049158  3.596454  -0.066  -0.335804  -0.259082  -0.061025  3.561908  -0.076
N  N119  1  0.07411881  0.62858135  0.90790811  1  -0.329219  0.068677  3.293965  0.083  -1.238924  0.08187  -0.277207  0.056819  3.57481  0.073  -0.308138  0.049162  3.596507  0.066  -0.335826  -0.259177  0.061031  3.561949  0.076
N  N120  1  0.67373559  0.29297171  0.49196567  1  -0.264801  0.000212  3.421041  0.0  -1.228724  0.000305  -0.178145  0.000108  3.655302  0.0  -0.200264  5.6e-05  3.673187  0.0  -0.271164  -0.162856  0.00019  3.642361  0.0
N  N121  1  0.32624759  0.70702553  0.50803781  1  -0.265083  -0.00021  3.420903  0.0  -1.22824  -0.000303  -0.178419  -0.000107  3.655231  0.0  -0.20055  -5.6e-05  3.673115  0.0  -0.271237  -0.163124  -0.00019  3.642288  0.0
Cl  Cl122  1  0.55131064  0.37627810  0.12401250  1  -0.522483  -0.14337  0.981742  -0.161  -0.615679  -0.132906  -0.525545  -0.089375  1.263313  -0.106  -0.559655  -0.070315  1.240925  -0.086  -0.312946  -0.505218  -0.099976  1.278729  -0.115
Cl  Cl123  1  0.44870727  0.62373171  0.87595669  1  -0.5225  0.143367  0.981675  0.161  -0.615673  0.1329  -0.52554  0.089372  1.263184  0.106  -0.559628  0.070317  1.240785  0.086  -0.312987  -0.505211  0.099972  1.278607  0.115
Cl  Cl124  1  0.53829187  0.54922913  0.24978261  1  -0.524682  -0.142392  0.969303  -0.16  -0.623616  -0.132396  -0.527305  -0.089169  1.25694  -0.106  -0.561852  -0.070727  1.234761  -0.087  -0.308315  -0.506891  -0.09926  1.272393  -0.115
Cl  Cl125  1  0.46169658  0.45076012  0.75020946  1  -0.52466  0.142396  0.969314  0.16  -0.623571  0.132402  -0.527298  0.089171  1.256987  0.106  -0.561827  0.070736  1.234802  0.087  -0.308289  -0.506872  0.099259  1.272432  0.115
O  O126  1  0.79984988  0.30960952  0.32438765  1  -0.597489  0.000866  2.006888  0.0  -1.212099  0.001251  -0.56677  0.000769  2.254889  0.0  -0.591584  0.000838  2.243637  0.0  -0.303854  -0.550534  0.000714  2.262535  0.0
O  O127  1  0.20013173  0.69036942  0.67561593  1  -0.5973  -0.000863  2.006602  0.0  -1.212597  -0.001253  -0.566584  -0.00077  2.254643  0.0  -0.591372  -0.000837  2.243349  0.0  -0.303754  -0.550346  -0.000713  2.262289  0.0
O  O128  1  0.70705448  0.14831649  0.43137783  1  -0.421373  1e-05  2.224774  0.0  -1.099289  9.2e-05  -0.346357  3.6e-05  2.44745  0.0  -0.367608  2.2e-05  2.444517  0.0  -0.167627  -0.331481  3.6e-05  2.448878  0.0
O  O129  1  0.29293644  0.85167039  0.56863539  1  -0.421366  -1.2e-05  2.224653  0.0  -1.099043  -9.3e-05  -0.346309  -3.7e-05  2.447209  0.0  -0.367566  -2.2e-05  2.444279  0.0  -0.167648  -0.331431  -3.6e-05  2.448639  0.0
