# generated using pymatgen
data_CaH12(C2O5)2
_symmetry_space_group_name_H-M   'P 1'
_cell_length_a   5.63786279
_cell_length_b   7.17925090
_cell_length_c   12.49874845
_cell_angle_alpha   89.99974517
_cell_angle_beta   90.00052871
_cell_angle_gamma   90.00015380
_symmetry_Int_Tables_number   1
_chemical_formula_structural   CaH12(C2O5)2
_chemical_formula_sum   'Ca2 H24 C8 O20'
_cell_volume   505.89473656
_cell_formula_units_Z   2
loop_
 _symmetry_equiv_pos_site_id
 _symmetry_equiv_pos_as_xyz
  1  'x, y, z'
loop_
 _atom_site_type_symbol
 _atom_site_label
 _atom_site_symmetry_multiplicity
 _atom_site_fract_x
 _atom_site_fract_y
 _atom_site_fract_z
 _atom_site_occupancy
 _atom_site_hle17_bader_spin_density
 _atom_site_hle17_ddec_charge
 _atom_site_hle17_ddec_spin_density
 _atom_site_hle17_ddec_sum_bond_order
 _atom_site_hle17_magmom
 _atom_site_hse06_10hf_bader_spin_density
 _atom_site_hse06_10hf_ddec_charge
 _atom_site_hse06_10hf_ddec_spin_density
 _atom_site_hse06_10hf_ddec_sum_bond_order
 _atom_site_hse06_10hf_magmom
 _atom_site_hse06_bader_spin_density
 _atom_site_hse06_ddec_charge
 _atom_site_hse06_ddec_spin_density
 _atom_site_hse06_ddec_sum_bond_order
 _atom_site_hse06_magmom
 _atom_site_pbe_bader_spin_density
 _atom_site_pbe_cm5_charge
 _atom_site_pbe_ddec_charge
 _atom_site_pbe_ddec_spin_density
 _atom_site_pbe_ddec_sum_bond_order
 _atom_site_pbe_magmom
Ca  Ca0  1  0.25992636  0.00001132  0.49999940  1  0  1.520185  0  1.101303  0  0  1.382795  0  1.448262  0  0  1.424125  0  1.404996  0  0  0.830743  1.351578  0  1.47911  0
Ca  Ca1  1  0.74006844  0.49998617  0.00000235  1  0  1.520183  0  1.101337  0  0  1.382797  0  1.448327  0  0  1.424122  0  1.405062  0  0  0.830733  1.351576  0  1.479184  0
H  H2  1  0.84855302  0.17704606  0.41064979  1  0  0.419876  0  0.850179  0  0  0.392797  0  0.924222  0  0  0.402048  0  0.912816  0  0  0.313951  0.386212  0  0.931822  0
H  H3  1  0.84854344  0.82297781  0.58935148  1  0  0.419798  0  0.85027  0  0  0.392785  0  0.924213  0  0  0.402033  0  0.912823  0  0  0.313982  0.386199  0  0.93181  0
H  H4  1  0.15146184  0.67702318  0.08935221  1  0  0.419839  0  0.850186  0  0  0.392834  0  0.924112  0  0  0.402079  0  0.912748  0  0  0.313994  0.386249  0  0.931713  0
H  H5  1  0.15144851  0.32295867  0.91064859  1  0  0.419777  0  0.850304  0  0  0.392767  0  0.924236  0  0  0.402016  0  0.912845  0  0  0.313942  0.386183  0  0.931834  0
H  H6  1  0.80267151  0.96223380  0.40275809  1  0  0.411705  0  0.904953  0  0  0.37928  0  0.972256  0  0  0.390798  0  0.955397  0  0  0.298544  0.37113  0  0.984163  0
H  H7  1  0.80267920  0.03779275  0.59724139  1  0  0.411707  0  0.904921  0  0  0.379299  0  0.972191  0  0  0.390813  0  0.955336  0  0  0.298618  0.371153  0  0.984091  0
H  H8  1  0.19732294  0.46221250  0.09724223  1  0  0.411692  0  0.905001  0  0  0.379297  0  0.972245  0  0  0.390812  0  0.955388  0  0  0.298602  0.371149  0  0.984145  0
H  H9  1  0.19732607  0.53777086  0.90275796  1  0  0.411706  0  0.904959  0  0  0.379278  0  0.972265  0  0  0.390796  0  0.955405  0  0  0.298554  0.371129  0  0.98417  0
H  H10  1  0.56124796  0.10985240  0.30918794  1  0  0.415144  0  0.855434  0  0  0.390646  0  0.926145  0  0  0.400263  0  0.911985  0  0  0.311812  0.383652  0  0.934774  0
H  H11  1  0.56125665  0.89018892  0.69081214  1  0  0.415038  0  0.855517  0  0  0.390514  0  0.926302  0  0  0.400136  0  0.912169  0  0  0.311755  0.383524  0  0.934925  0
H  H12  1  0.43874363  0.60981007  0.19081186  1  0  0.415123  0  0.85546  0  0  0.39058  0  0.926284  0  0  0.400203  0  0.912105  0  0  0.311758  0.383587  0  0.934908  0
H  H13  1  0.43874792  0.39017106  0.80918692  1  0  0.415103  0  0.855435  0  0  0.39059  0  0.92619  0  0  0.400211  0  0.912058  0  0  0.311802  0.383599  0  0.934812  0
H  H14  1  0.30538807  0.08410582  0.26286442  1  0  0.434804  0  0.855066  0  0  0.406286  0  0.913764  0  0  0.415997  0  0.899564  0  0  0.306399  0.399427  0  0.923788  0
H  H15  1  0.30539781  0.91590843  0.73713701  1  0  0.4349  0  0.854927  0  0  0.406355  0  0.91365  0  0  0.416063  0  0.899455  0  0  0.306448  0.399495  0  0.923676  0
H  H16  1  0.69460344  0.58409027  0.23714107  1  0  0.434836  0  0.855004  0  0  0.406295  0  0.913733  0  0  0.416006  0  0.899532  0  0  0.306398  0.399434  0  0.923759  0
H  H17  1  0.69460862  0.41590817  0.76286597  1  0  0.434826  0  0.855056  0  0  0.406267  0  0.913799  0  0  0.415976  0  0.899603  0  0  0.306425  0.399406  0  0.923826  0
H  H18  1  0.31838320  0.56011821  0.61635750  1  0  0.084596  0  0.923078  0  0  0.092466  0  0.982365  0  0  0.095065  0  0.97974  0  0  0.121893  0.090427  0  0.984557  0
H  H19  1  0.31837174  0.43991000  0.38364639  1  0  0.084662  0  0.922932  0  0  0.092524  0  0.982286  0  0  0.095121  0  0.979649  0  0  0.121877  0.090482  0  0.98448  0
H  H20  1  0.68161504  0.06008794  0.88364178  1  0  0.084627  0  0.922925  0  0  0.092518  0  0.982235  0  0  0.095115  0  0.979597  0  0  0.12187  0.090479  0  0.984428  0
H  H21  1  0.68163151  0.93987705  0.11635560  1  0  0.084641  0  0.922891  0  0  0.092494  0  0.982193  0  0  0.095098  0  0.979581  0  0  0.121908  0.090458  0  0.984375  0
H  H22  1  0.00915904  0.37121105  0.58579330  1  0  0.390534  0  0.904924  0  0  0.361222  0  0.982095  0  0  0.373676  0  0.966141  0  0  0.299641  0.35227  0  0.992357  0
H  H23  1  0.00915233  0.62881366  0.41421092  1  0  0.390575  0  0.904952  0  0  0.361194  0  0.982237  0  0  0.373664  0  0.966195  0  0  0.299546  0.352236  0  0.99251  0
H  H24  1  0.99084193  0.87118397  0.91420422  1  0  0.390563  0  0.905005  0  0  0.361186  0  0.982286  0  0  0.373652  0  0.966224  0  0  0.299496  0.352225  0  0.992565  0
H  H25  1  0.99084819  0.12878731  0.08578963  1  0  0.390479  0  0.904961  0  0  0.361167  0  0.982133  0  0  0.373618  0  0.966214  0  0  0.2996  0.352213  0  0.99239  0
C  C26  1  0.58555996  0.35769781  0.57593511  1  0  0.649569  0  3.858801  0  0  0.590842  0  4.170767  0  0  0.62369  0  4.163178  0  0  0.222392  0.568574  0  4.175143  0
C  C27  1  0.58556237  0.64231710  0.42405787  1  0  0.649891  0  3.858679  0  0  0.59126  0  4.170471  0  0  0.624102  0  4.162871  0  0  0.222531  0.568987  0  4.174852  0
C  C28  1  0.41443742  0.85768047  0.92406164  1  0  0.649991  0  3.858706  0  0  0.591411  0  4.170404  0  0  0.624256  0  4.162799  0  0  0.222617  0.569136  0  4.174788  0
C  C29  1  0.41442755  0.14227415  0.07594104  1  0  0.649354  0  3.8591  0  0  0.590661  0  4.171009  0  0  0.623524  0  4.163421  0  0  0.222294  0.568387  0  4.175385  0
C  C30  1  0.34618727  0.45098309  0.55576206  1  0  0.059615  0  3.622512  0  0  0.035312  0  3.87284  0  0  0.037137  0  3.879121  0  0  0.000558  0.033916  0  3.868622  0
C  C31  1  0.34618094  0.54904380  0.44424514  1  0  0.059473  0  3.622459  0  0  0.035084  0  3.872822  0  0  0.036947  0  3.879059  0  0  0.000462  0.033683  0  3.868608  0
C  C32  1  0.65381217  0.95095643  0.94424321  1  0  0.059533  0  3.62241  0  0  0.035154  0  3.872645  0  0  0.037027  0  3.878894  0  0  0.000455  0.033755  0  3.868434  0
C  C33  1  0.65381933  0.04901545  0.05575725  1  0  0.059637  0  3.622313  0  0  0.035361  0  3.872571  0  0  0.037136  0  3.878927  0  0  0.000579  0.033967  0  3.868353  0
O  O34  1  0.91173957  0.06365697  0.37781801  1  0  -0.845109  0  1.781654  0  0  -0.789301  0  1.954608  0  0  -0.809543  0  1.925497  0  0  -0.601635  -0.774728  0  1.974436  0
O  O35  1  0.91175053  0.93636566  0.62218192  1  0  -0.845024  0  1.78171  0  0  -0.789269  0  1.954565  0  0  -0.809509  0  1.925473  0  0  -0.601733  -0.774692  0  1.974386  0
O  O36  1  0.08826252  0.56363096  0.12218114  1  0  -0.845063  0  1.781741  0  0  -0.789317  0  1.954602  0  0  -0.809554  0  1.925527  0  0  -0.601743  -0.77474  0  1.974428  0
O  O37  1  0.08825951  0.43634658  0.87781540  1  0  -0.845044  0  1.781833  0  0  -0.789293  0  1.954699  0  0  -0.809536  0  1.9256  0  0  -0.601642  -0.774714  0  1.974523  0
O  O38  1  0.60428814  0.18763560  0.54821744  1  0  -0.692412  0  2.087507  0  0  -0.620124  0  2.323359  0  0  -0.648096  0  2.313795  0  0  -0.34205  -0.600399  0  2.329256  0
O  O39  1  0.60428632  0.81239746  0.45178522  1  0  -0.692714  0  2.087381  0  0  -0.620526  0  2.323339  0  0  -0.648507  0  2.313783  0  0  -0.342129  -0.600787  0  2.32923  0
O  O40  1  0.39571404  0.68760273  0.95178865  1  0  -0.692686  0  2.087349  0  0  -0.620549  0  2.32334  0  0  -0.648527  0  2.313781  0  0  -0.342116  -0.600809  0  2.329235  0
O  O41  1  0.39571121  0.31236856  0.04821636  1  0  -0.69246  0  2.087085  0  0  -0.620201  0  2.322886  0  0  -0.648177  0  2.31332  0  0  -0.342072  -0.600472  0  2.328783  0
O  O42  1  0.75110553  0.45489047  0.61655777  1  0  -0.619979  0  1.964597  0  0  -0.565561  0  2.183735  0  0  -0.589473  0  2.171946  0  0  -0.307867  -0.548879  0  2.191306  0
O  O43  1  0.75108729  0.54513179  0.38343589  1  0  -0.620048  0  1.964668  0  0  -0.565615  0  2.18378  0  0  -0.589533  0  2.171977  0  0  -0.3079  -0.548927  0  2.19135  0
O  O44  1  0.24891166  0.95486742  0.88343308  1  0  -0.620096  0  1.964508  0  0  -0.565713  0  2.183613  0  0  -0.589626  0  2.171802  0  0  -0.30795  -0.549021  0  2.191191  0
O  O45  1  0.24890588  0.04509935  0.11655771  1  0  -0.619802  0  1.965361  0  0  -0.565395  0  2.184494  0  0  -0.589301  0  2.172709  0  0  -0.307752  -0.548706  0  2.192056  0
O  O46  1  0.16342636  0.31415800  0.55997192  1  0  -0.619362  0  2.123829  0  0  -0.564235  0  2.359978  0  0  -0.583034  0  2.345315  0  0  -0.431374  -0.550497  0  2.36888  0
O  O47  1  0.16341504  0.68586985  0.44003133  1  0  -0.619311  0  2.123861  0  0  -0.564104  0  2.360043  0  0  -0.582921  0  2.345309  0  0  -0.431108  -0.550368  0  2.368951  0
O  O48  1  0.83658330  0.81412483  0.94002898  1  0  -0.619354  0  2.123855  0  0  -0.564154  0  2.360004  0  0  -0.582965  0  2.345246  0  0  -0.431059  -0.550409  0  2.368914  0
O  O49  1  0.83657146  0.18584608  0.05996744  1  0  -0.619282  0  2.123863  0  0  -0.564196  0  2.360043  0  0  -0.582979  0  2.34543  0  0  -0.431343  -0.550459  0  2.368939  0
O  O50  1  0.39338668  0.12323098  0.32717498  1  0  -0.849049  0  1.836608  0  0  -0.800962  0  2.020794  0  0  -0.82053  0  1.991499  0  0  -0.607672  -0.786842  0  2.039769  0
O  O51  1  0.39339674  0.87680855  0.67282522  1  0  -0.849056  0  1.836545  0  0  -0.80093  0  2.020856  0  0  -0.820502  0  1.991581  0  0  -0.607684  -0.786808  0  2.039829  0
O  O52  1  0.60660140  0.62318079  0.17282639  1  0  -0.8491  0  1.836566  0  0  -0.800976  0  2.020848  0  0  -0.820547  0  1.991528  0  0  -0.607655  -0.786852  0  2.039822  0
O  O53  1  0.60661312  0.37678401  0.82717148  1  0  -0.84903  0  1.836549  0  0  -0.800897  0  2.020862  0  0  -0.820467  0  1.991592  0  0  -0.607701  -0.786769  0  2.039834  0
