# generated using pymatgen
data_LiH4C5SNO3
_symmetry_space_group_name_H-M   'P 1'
_cell_length_a   7.64708719
_cell_length_b   8.77153968
_cell_length_c   10.36188731
_cell_angle_alpha   80.77921828
_cell_angle_beta   71.76241292
_cell_angle_gamma   82.38561282
_symmetry_Int_Tables_number   1
_chemical_formula_structural   LiH4C5SNO3
_chemical_formula_sum   'Li4 H16 C20 S4 N4 O12'
_cell_volume   649.07826619
_cell_formula_units_Z   4
loop_
 _symmetry_equiv_pos_site_id
 _symmetry_equiv_pos_as_xyz
  1  'x, y, z'
loop_
 _atom_site_type_symbol
 _atom_site_label
 _atom_site_symmetry_multiplicity
 _atom_site_fract_x
 _atom_site_fract_y
 _atom_site_fract_z
 _atom_site_occupancy
 _atom_site_hle17_bader_spin_density
 _atom_site_hle17_ddec_charge
 _atom_site_hle17_ddec_spin_density
 _atom_site_hle17_ddec_sum_bond_order
 _atom_site_hle17_magmom
 _atom_site_hse06_10hf_bader_spin_density
 _atom_site_hse06_10hf_ddec_charge
 _atom_site_hse06_10hf_ddec_spin_density
 _atom_site_hse06_10hf_ddec_sum_bond_order
 _atom_site_hse06_10hf_magmom
 _atom_site_hse06_bader_spin_density
 _atom_site_hse06_ddec_charge
 _atom_site_hse06_ddec_spin_density
 _atom_site_hse06_ddec_sum_bond_order
 _atom_site_hse06_magmom
 _atom_site_pbe_bader_spin_density
 _atom_site_pbe_cm5_charge
 _atom_site_pbe_ddec_charge
 _atom_site_pbe_ddec_spin_density
 _atom_site_pbe_ddec_sum_bond_order
 _atom_site_pbe_magmom
Li  Li0  1  0.44634554  0.82609403  0.88942627  1  0  0.85429  0  0.405999  0  0  0.806328  0  0.526425  0  0  0.816233  0  0.509228  0  0  0.525696  0.799097  0  0.538897  0
Li  Li1  1  0.55365728  0.17391078  0.11057182  1  0  0.854307  0  0.406008  0  0  0.806352  0  0.526417  0  0  0.816256  0  0.509222  0  0  0.525713  0.799121  0  0.538883  0
Li  Li2  1  0.62399667  0.31931641  0.62415704  1  0  0.851108  0  0.426091  0  0  0.807956  0  0.539461  0  0  0.817095  0  0.523232  0  0  0.550192  0.801106  0  0.55162  0
Li  Li3  1  0.37599974  0.68068374  0.37584700  1  0  0.851121  0  0.426074  0  0  0.807942  0  0.539496  0  0  0.817083  0  0.523263  0  0  0.55016  0.801085  0  0.551652  0
H  H4  1  0.63039559  0.99665945  0.41063649  1  0  0.111459  0  0.946407  0  0  0.120717  0  1.009222  0  0  0.123836  0  1.006029  0  0  0.122363  0.118402  0  1.011582  0
H  H5  1  0.36960366  0.00333962  0.58935642  1  0  0.111444  0  0.946377  0  0  0.120656  0  1.009264  0  0  0.123774  0  1.006072  0  0  0.122352  0.118344  0  1.011621  0
H  H6  1  0.90761904  0.13288427  0.27187960  1  0  0.106195  0  0.939054  0  0  0.119282  0  0.992755  0  0  0.122208  0  0.992331  0  0  0.11686  0.117167  0  0.993239  0
H  H7  1  0.09238012  0.86711591  0.72811898  1  0  0.106213  0  0.939053  0  0  0.119294  0  0.992761  0  0  0.122221  0  0.992335  0  0  0.116864  0.117183  0  0.993243  0
H  H8  1  0.00102288  0.61599712  0.51645968  1  0  0.080487  0  0.95989  0  0  0.086736  0  1.029934  0  0  0.089682  0  1.026966  0  0  0.123194  0.084551  0  1.032101  0
H  H9  1  0.99897594  0.38400649  0.48354432  1  0  0.080546  0  0.959893  0  0  0.086782  0  1.029934  0  0  0.089725  0  1.02697  0  0  0.123219  0.084605  0  1.032075  0
H  H10  1  0.22688168  0.48521791  0.76087434  1  0  0.116123  0  0.927049  0  0  0.127725  0  0.983677  0  0  0.131356  0  0.98049  0  0  0.125498  0.124983  0  0.986128  0
H  H11  1  0.77311623  0.51478109  0.23912757  1  0  0.116194  0  0.926986  0  0  0.127763  0  0.983642  0  0  0.131394  0  0.980457  0  0  0.12551  0.125022  0  0.986087  0
H  H12  1  0.90787203  0.61577823  0.76713809  1  0  0.110198  0  0.945474  0  0  0.120149  0  1.004567  0  0  0.123279  0  1.003793  0  0  0.11478  0.117903  0  1.005276  0
H  H13  1  0.09212622  0.38421732  0.23286034  1  0  0.110194  0  0.945317  0  0  0.120084  0  1.00449  0  0  0.123211  0  1.003723  0  0  0.114782  0.117841  0  1.005191  0
H  H14  1  0.63288227  0.48217565  0.90827766  1  0  0.082553  0  0.930527  0  0  0.090361  0  0.994781  0  0  0.09341  0  0.991394  0  0  0.132478  0.088048  0  0.997429  0
H  H15  1  0.36711403  0.51782566  0.09172626  1  0  0.082532  0  0.930541  0  0  0.090342  0  0.994788  0  0  0.093391  0  0.991402  0  0  0.132472  0.08803  0  0.997436  0
H  H16  1  0.95342058  0.11122557  0.04413607  1  0  0.078867  0  0.961607  0  0  0.083661  0  1.035026  0  0  0.086618  0  1.032048  0  0  0.120994  0.081528  0  1.037074  0
H  H17  1  0.04657824  0.88877804  0.95586889  1  0  0.078733  0  0.961686  0  0  0.083548  0  1.03507  0  0  0.086501  0  1.032091  0  0  0.120976  0.081403  0  1.037151  0
H  H18  1  0.22263863  0.99892711  0.25593700  1  0  0.087983  0  0.939914  0  0  0.094939  0  1.004985  0  0  0.09853  0  1.001313  0  0  0.129699  0.092188  0  1.007858  0
H  H19  1  0.77736030  0.00107537  0.74406422  1  0  0.087982  0  0.939903  0  0  0.094931  0  1.004979  0  0  0.098523  0  1.001305  0  0  0.129697  0.092182  0  1.00785  0
C  C20  1  0.79551420  0.79667315  0.47627585  1  0  -0.191231  0  3.733847  0  0  -0.15919  0  3.978289  0  0  -0.17211  0  4.002403  0  0  -0.011023  -0.150954  0  3.962265  0
C  C21  1  0.20448633  0.20332702  0.52372337  1  0  -0.191254  0  3.733945  0  0  -0.159194  0  3.978344  0  0  -0.172111  0  4.002456  0  0  -0.011028  -0.150964  0  3.962329  0
C  C22  1  0.76822324  0.94282345  0.40596445  1  0  0.020958  0  3.678428  0  0  -0.013579  0  3.930592  0  0  -0.006833  0  3.946693  0  0  -0.048229  -0.017778  0  3.919772  0
C  C23  1  0.23177578  0.05717792  0.59403015  1  0  0.021007  0  3.678385  0  0  -0.013497  0  3.930534  0  0  -0.006752  0  3.946637  0  0  -0.048207  -0.017701  0  3.919721  0
C  C24  1  0.92347909  0.01801515  0.32721986  1  0  -0.10242  0  3.695272  0  0  -0.115054  0  3.952367  0  0  -0.122686  0  3.973367  0  0  -0.071053  -0.110293  0  3.938335  0
C  C25  1  0.07652018  0.98198386  0.67277981  1  0  -0.10247  0  3.695168  0  0  -0.115121  0  3.952271  0  0  -0.12275  0  3.973266  0  0  -0.071089  -0.110365  0  3.938246  0
C  C26  1  0.09875609  0.94394082  0.31899601  1  0  0.140762  0  3.691848  0  0  0.11018  0  3.953057  0  0  0.117353  0  3.969094  0  0  0.06208  0.105614  0  3.942169  0
C  C27  1  0.90124421  0.05606168  0.68100200  1  0  0.140775  0  3.691837  0  0  0.110209  0  3.95304  0  0  0.117384  0  3.969072  0  0  0.062104  0.105643  0  3.942154  0
C  C28  1  0.97554741  0.73075362  0.46368681  1  0  0.123953  0  3.736659  0  0  0.08674  0  3.991182  0  0  0.094135  0  4.008831  0  0  0.055995  0.082179  0  3.979043  0
C  C29  1  0.02445140  0.26925002  0.53631332  1  0  0.123928  0  3.73661  0  0  0.086734  0  3.991113  0  0  0.094131  0  4.00876  0  0  0.055992  0.082182  0  3.978972  0
C  C30  1  0.11208592  0.28896572  0.90255321  1  0  -0.173138  0  3.720691  0  0  -0.140444  0  3.961409  0  0  -0.152959  0  3.986863  0  0  -0.010081  -0.132478  0  3.944518  0
C  C31  1  0.88791301  0.71103676  0.09744801  1  0  -0.173161  0  3.720546  0  0  -0.140421  0  3.961194  0  0  -0.15293  0  3.986642  0  0  -0.010027  -0.132415  0  3.94425  0
C  C32  1  0.10123031  0.43221492  0.82292050  1  0  -0.009333  0  3.698322  0  0  -0.040193  0  3.945041  0  0  -0.035887  0  3.964637  0  0  -0.055541  -0.042624  0  3.931667  0
C  C33  1  0.89876920  0.56778177  0.17707942  1  0  -0.00947  0  3.698321  0  0  -0.040325  0  3.945035  0  0  -0.036015  0  3.964621  0  0  -0.055601  -0.042776  0  3.931655  0
C  C34  1  0.92621224  0.50358370  0.82590966  1  0  -0.103824  0  3.70208  0  0  -0.116504  0  3.958894  0  0  -0.123951  0  3.980397  0  0  -0.071641  -0.111811  0  3.944416  0
C  C35  1  0.07378691  0.49641648  0.17408892  1  0  -0.103822  0  3.702085  0  0  -0.116449  0  3.958887  0  0  -0.123897  0  3.980395  0  0  -0.071685  -0.111753  0  3.944409  0
C  C36  1  0.77071450  0.42970701  0.90674241  1  0  0.161639  0  3.680233  0  0  0.127628  0  3.947404  0  0  0.136002  0  3.961331  0  0  0.071029  0.122199  0  3.93802  0
C  C37  1  0.22928502  0.57028967  0.09325943  1  0  0.161679  0  3.680191  0  0  0.12769  0  3.947323  0  0  0.136063  0  3.961251  0  0  0.071037  0.122259  0  3.937944  0
C  C38  1  0.94947800  0.22321259  0.98127487  1  0  0.126013  0  3.721643  0  0  0.089483  0  3.976326  0  0  0.096845  0  3.993266  0  0  0.056171  0.084875  0  3.964841  0
C  C39  1  0.05052279  0.77678524  0.01872846  1  0  0.126172  0  3.72186  0  0  0.089638  0  3.976528  0  0  0.097009  0  3.993459  0  0  0.056176  0.085015  0  3.965037  0
S  S40  1  0.60562559  0.69423092  0.58348623  1  0  1.3877  0  5.672809  0  0  1.293511  0  6.186608  0  0  1.341934  0  6.159997  0  0  0.552896  1.260002  0  6.204115  0
S  S41  1  0.39438116  0.30576230  0.41651053  1  0  1.387685  0  5.672951  0  0  1.293483  0  6.186746  0  0  1.341904  0  6.160136  0  0  0.552826  1.25999  0  6.204233  0
S  S42  1  0.32995000  0.18965217  0.90618701  1  0  1.376806  0  5.659779  0  0  1.282165  0  6.175557  0  0  1.330984  0  6.148415  0  0  0.551223  1.248378  0  6.193307  0
S  S43  1  0.67004652  0.81034685  0.09381330  1  0  1.376802  0  5.659851  0  0  1.282131  0  6.175624  0  0  1.330945  0  6.148488  0  0  0.551257  1.248327  0  6.193384  0
N  N44  1  0.12485138  0.80204983  0.38587681  1  0  -0.383702  0  3.159752  0  0  -0.336259  0  3.430181  0  0  -0.348393  0  3.444899  0  0  -0.39049  -0.328136  0  3.420162  0
N  N45  1  0.87514743  0.19795380  0.61412526  1  0  -0.383704  0  3.159801  0  0  -0.336284  0  3.430233  0  0  -0.348417  0  3.444948  0  0  -0.390508  -0.328162  0  3.420214  0
N  N46  1  0.78074822  0.29193169  0.98411624  1  0  -0.394446  0  3.138936  0  0  -0.347591  0  3.413583  0  0  -0.359323  0  3.425773  0  0  -0.376003  -0.339836  0  3.405357  0
N  N47  1  0.21924933  0.70807078  0.01588627  1  0  -0.394487  0  3.139026  0  0  -0.347659  0  3.413685  0  0  -0.359389  0  3.42587  0  0  -0.37597  -0.339903  0  3.405472  0
O  O48  1  0.67830145  0.53110200  0.58973664  1  0  -0.741688  0  1.995506  0  0  -0.696291  0  2.259698  0  0  -0.715822  0  2.243402  0  0  -0.395459  -0.682374  0  2.270508  0
O  O49  1  0.32170756  0.46889590  0.41025223  1  0  -0.741687  0  1.995248  0  0  -0.696292  0  2.259461  0  0  -0.715829  0  2.24318  0  0  -0.395395  -0.682384  0  2.270266  0
O  O50  1  0.55450070  0.75359609  0.71593322  1  0  -0.741326  0  1.94883  0  0  -0.691976  0  2.20581  0  0  -0.712255  0  2.188827  0  0  -0.40409  -0.677621  0  2.217306  0
O  O51  1  0.44550803  0.24639129  0.28406867  1  0  -0.741304  0  1.949016  0  0  -0.691943  0  2.205984  0  0  -0.712225  0  2.189005  0  0  -0.404098  -0.677581  0  2.217452  0
O  O52  1  0.45770095  0.73116232  0.51848687  1  0  -0.746545  0  1.979347  0  0  -0.699702  0  2.234791  0  0  -0.718997  0  2.218034  0  0  -0.398852  -0.68598  0  2.246187  0
O  O53  1  0.54229606  0.26883203  0.48151779  1  0  -0.746563  0  1.979507  0  0  -0.699742  0  2.23499  0  0  -0.719035  0  2.218231  0  0  -0.398841  -0.686029  0  2.246382  0
O  O54  1  0.46861378  0.28211869  0.80526633  1  0  -0.744827  0  2.005561  0  0  -0.701333  0  2.270233  0  0  -0.719966  0  2.252593  0  0  -0.398296  -0.688018  0  2.282249  0
O  O55  1  0.53138445  0.71789071  0.19473802  1  0  -0.744845  0  2.005719  0  0  -0.701352  0  2.270413  0  0  -0.719979  0  2.252773  0  0  -0.398271  -0.688024  0  2.282406  0
O  O56  1  0.32771361  0.03439913  0.87127554  1  0  -0.743318  0  1.990208  0  0  -0.69427  0  2.252333  0  0  -0.714982  0  2.236708  0  0  -0.388333  -0.679481  0  2.262548  0
O  O57  1  0.67229345  0.96560454  0.12871786  1  0  -0.743353  0  1.990135  0  0  -0.69431  0  2.252263  0  0  -0.715022  0  2.23665  0  0  -0.388435  -0.679525  0  2.262476  0
O  O58  1  0.33779331  0.18665403  0.04657501  1  0  -0.741267  0  1.961862  0  0  -0.695132  0  2.223561  0  0  -0.71528  0  2.207006  0  0  -0.392045  -0.680809  0  2.234644  0
O  O59  1  0.66220496  0.81334146  0.95343114  1  0  -0.741221  0  1.962113  0  0  -0.695036  0  2.22375  0  0  -0.715218  0  2.207268  0  0  -0.391993  -0.680678  0  2.23476  0
