# generated using pymatgen
data_CoH8C13NO5
_symmetry_space_group_name_H-M   'P 1'
_cell_length_a   11.33543932
_cell_length_b   11.41094852
_cell_length_c   13.09084581
_cell_angle_alpha   89.99963962
_cell_angle_beta   110.15653886
_cell_angle_gamma   90.00076910
_symmetry_Int_Tables_number   1
_chemical_formula_structural   CoH8C13NO5
_chemical_formula_sum   'Co4 H32 C52 N4 O20'
_cell_volume   1589.57097234
_cell_formula_units_Z   4
loop_
 _symmetry_equiv_pos_site_id
 _symmetry_equiv_pos_as_xyz
  1  'x, y, z'
loop_
 _atom_site_type_symbol
 _atom_site_label
 _atom_site_symmetry_multiplicity
 _atom_site_fract_x
 _atom_site_fract_y
 _atom_site_fract_z
 _atom_site_occupancy
 _atom_site_pbe_bader_charge
 _atom_site_pbe_bader_spin_density
 _atom_site_pbe_cm5_charge
 _atom_site_pbe_ddec_charge
 _atom_site_pbe_ddec_spin_density
 _atom_site_pbe_ddec_sum_bond_order
 _atom_site_pbe_magmom
Co  Co0  1  0.00000255  0.11511128  0.74999852  1  1.353421  2.499216  0.660268  1.040514  2.733439  2.476313  2.489
Co  Co1  1  0.99999642  0.88489015  0.25000149  1  1.353373  2.49923  0.660277  1.040494  2.733449  2.476247  2.489
Co  Co2  1  0.00000101  0.99999913  0.99999959  1  1.390554  2.586049  0.669916  1.067242  2.830744  2.433057  2.573
Co  Co3  1  0.99999839  0.99999974  0.50000035  1  1.39071  2.586013  0.669954  1.067257  2.83072  2.433168  2.573
H  H4  1  0.72496622  0.97012988  0.79987955  1  0.195205  -4.5e-05  0.143283  0.138804  -0.000327  0.983076  0.0
H  H5  1  0.27503184  0.97013337  0.70011099  1  0.195098  -4.5e-05  0.143288  0.138836  -0.000327  0.983119  0.0
H  H6  1  0.27503275  0.02987155  0.20011969  1  0.195193  -4.5e-05  0.14328  0.138761  -0.000326  0.983137  0.0
H  H7  1  0.72497089  0.02986718  0.29989166  1  0.195105  -4.5e-05  0.143306  0.138852  -0.000327  0.983025  0.0
H  H8  1  0.57655166  0.81263581  0.69067966  1  0.109014  0.000131  0.116666  0.120514  -0.000151  0.986794  0.0
H  H9  1  0.42344813  0.81264312  0.80930537  1  0.108869  0.000131  0.116699  0.120493  -0.000152  0.986719  0.0
H  H10  1  0.42344731  0.18736650  0.30931805  1  0.109026  0.000131  0.11667  0.120476  -0.000152  0.986793  0.0
H  H11  1  0.57655272  0.18735481  0.19069519  1  0.108864  0.000131  0.116715  0.120501  -0.000152  0.986733  0.0
H  H12  1  0.66692419  0.64645594  0.61335422  1  0.102544  0.000788  0.118827  0.117432  -6.3e-05  0.967437  0.0
H  H13  1  0.33308099  0.64645797  0.88663562  1  0.102565  0.000787  0.118828  0.117465  -6.3e-05  0.967458  0.0
H  H14  1  0.33307478  0.35354724  0.38664120  1  0.102496  0.000788  0.118834  0.117462  -6.3e-05  0.967437  0.0
H  H15  1  0.66691704  0.35353908  0.11336258  1  0.102545  0.000788  0.118803  0.117428  -6.3e-05  0.967431  0.0
H  H16  1  0.89914532  0.64640830  0.64662413  1  0.129409  0.000317  0.11906  0.132131  -0.000109  1.000028  0.0
H  H17  1  0.10086269  0.64640659  0.85337495  1  0.12896  0.000317  0.119061  0.132186  -0.000109  1.000068  0.0
H  H18  1  0.10085459  0.35359576  0.35337310  1  0.129383  0.000317  0.119026  0.132128  -0.000109  1.00006  0.0
H  H19  1  0.89913534  0.35359397  0.14662324  1  0.129058  0.000317  0.119068  0.132231  -0.000109  0.999992  0.0
H  H20  1  0.38114792  0.89476742  0.09997573  1  0.077317  0.000638  0.10282  0.111151  0.000299  1.001063  0.0
H  H21  1  0.61884615  0.89476616  0.40002502  1  0.07743  0.000639  0.102801  0.111106  0.000299  1.001139  0.0
H  H22  1  0.61885199  0.10523314  0.90002226  1  0.077759  0.000638  0.102833  0.111179  0.000299  1.000996  0.0
H  H23  1  0.38115189  0.10523439  0.59997929  1  0.077782  0.000639  0.102803  0.111157  0.000299  1.001065  0.0
H  H24  1  0.38869178  0.14744822  0.85994061  1  0.089607  0.000353  0.105426  0.115566  0.000136  0.995076  0.0
H  H25  1  0.61131170  0.14744875  0.64005830  1  0.090151  0.000353  0.105449  0.115638  0.000136  0.994971  0.0
H  H26  1  0.61130813  0.85255234  0.14005661  1  0.089713  0.000353  0.105449  0.115603  0.000136  0.995067  0.0
H  H27  1  0.38868822  0.85254917  0.35994886  1  0.089923  0.000353  0.105444  0.115607  0.000136  0.995087  0.0
H  H28  1  0.15650563  0.44467151  0.67969882  1  0.104038  0.000552  0.102899  0.109577  0.000232  0.999014  0.0
H  H29  1  0.84349885  0.44467122  0.82029954  1  0.103976  0.000552  0.102895  0.109559  0.000232  0.998985  0.0
H  H30  1  0.84349334  0.55532729  0.32030195  1  0.104027  0.000552  0.102913  0.109579  0.000232  0.998997  0.0
H  H31  1  0.15650388  0.55532759  0.17970005  1  0.104005  0.000552  0.102903  0.10956  0.000232  0.999022  0.0
H  H32  1  0.86214688  0.34619382  0.38538174  1  0.078473  0.000497  0.092619  0.090523  0.000211  1.053848  0.0
H  H33  1  0.13785141  0.34619434  0.11461790  1  0.07849  0.000496  0.092593  0.090471  0.000211  1.05383  0.0
H  H34  1  0.13785209  0.65380411  0.61461980  1  0.078548  0.000497  0.092582  0.090425  0.000211  1.053853  0.0
H  H35  1  0.86215320  0.65380534  0.88538149  1  0.078536  0.000496  0.092596  0.090446  0.000211  1.053894  0.0
C  C36  1  0.75398556  0.89592341  0.76223893  1  0.356568  0.037823  0.062391  0.002567  0.019425  3.808641  0.023
C  C37  1  0.24601531  0.89592974  0.73775514  1  0.357081  0.037824  0.062435  0.002629  0.019425  3.808457  0.023
C  C38  1  0.24601435  0.10407802  0.23776058  1  0.356586  0.037821  0.062442  0.002675  0.019424  3.808712  0.023
C  C39  1  0.75398648  0.10407081  0.26224647  1  0.356459  0.037824  0.062428  0.002597  0.019425  3.808389  0.023
C  C40  1  0.67668013  0.80724774  0.70406120  1  0.010082  -0.005784  -0.069709  -0.102428  -0.007454  3.998893  -0.006
C  C41  1  0.32332241  0.80725732  0.79593080  1  0.010423  -0.005784  -0.069882  -0.102553  -0.007454  3.998678  -0.006
C  C42  1  0.32331884  0.19275369  0.29593727  1  0.010405  -0.005784  -0.06975  -0.102378  -0.007454  3.998923  -0.006
C  C43  1  0.67667844  0.19274236  0.20406976  1  0.010448  -0.005785  -0.069884  -0.102528  -0.007454  3.998714  -0.006
C  C44  1  0.72691801  0.71575190  0.66105299  1  0.016361  0.050638  -0.065969  -0.046383  0.025879  3.966448  0.03
C  C45  1  0.27308994  0.71575435  0.83894341  1  0.015732  0.050655  -0.065799  -0.046224  0.025886  3.966266  0.03
C  C46  1  0.27308189  0.28425129  0.33894424  1  0.016051  0.050638  -0.065947  -0.04645  0.025879  3.966546  0.03
C  C47  1  0.72690903  0.28424445  0.16105430  1  0.01574  0.050653  -0.065788  -0.046204  0.025885  3.966277  0.03
C  C48  1  0.85548633  0.71508491  0.67917486  1  0.01057  -0.008881  -0.060332  -0.119012  -0.010817  3.929792  -0.008
C  C49  1  0.14451975  0.71508753  0.82082632  1  0.01178  -0.008886  -0.060436  -0.119253  -0.010819  3.92987  -0.008
C  C50  1  0.14451359  0.28491739  0.32082542  1  0.010731  -0.008882  -0.060347  -0.119075  -0.010818  3.929816  -0.008
C  C51  1  0.85547922  0.28491215  0.17917139  1  0.011791  -0.008888  -0.060461  -0.119302  -0.01082  3.929839  -0.008
C  C52  1  0.93166516  0.80525913  0.73766929  1  0.393889  0.044309  0.13349  0.096683  0.022975  3.883795  0.028
C  C53  1  0.06834114  0.80526116  0.76233377  1  0.446708  0.044099  0.133502  0.096763  0.022977  3.883674  0.028
C  C54  1  0.06833569  0.19474230  0.26232974  1  0.393753  0.044309  0.13352  0.096753  0.022974  3.883663  0.028
C  C55  1  0.93165878  0.19473940  0.23766652  1  0.446638  0.044098  0.133483  0.096718  0.022976  3.883658  0.028
C  C56  1  0.23376332  0.04579360  0.95037116  1  1.583549  -0.007788  0.204355  0.573245  -0.009569  4.198514  -0.005
C  C57  1  0.76623887  0.04579161  0.54962945  1  1.583553  -0.007789  0.20433  0.573079  -0.009569  4.198587  -0.005
C  C58  1  0.76623660  0.95420871  0.04962912  1  1.583359  -0.007789  0.204265  0.573045  -0.009568  4.198526  -0.005
C  C59  1  0.23375917  0.95420982  0.45037333  1  1.583509  -0.007789  0.204347  0.573223  -0.009569  4.198259  -0.005
C  C60  1  0.37225754  0.02465683  0.97846703  1  -0.003228  0.005381  -0.024758  -0.039977  0.002411  3.99056  0.005
C  C61  1  0.62774437  0.02465582  0.52153438  1  -0.003196  0.005381  -0.024724  -0.039799  0.002411  3.990434  0.005
C  C62  1  0.62774236  0.97534460  0.02153096  1  -0.003238  0.005381  -0.024674  -0.039773  0.002411  3.990376  0.005
C  C63  1  0.37225649  0.97534386  0.47847001  1  -0.002964  0.005381  -0.024675  -0.039666  0.002411  3.990123  0.005
C  C64  1  0.43453785  0.94123120  0.05746951  1  -0.065971  -0.000654  -0.095506  -0.115508  -0.001272  4.007518  0.0
C  C65  1  0.56545869  0.94122980  0.44253248  1  -0.065959  -0.000654  -0.095476  -0.115519  -0.001272  4.007509  0.0
C  C66  1  0.56546112  0.05876935  0.94252820  1  -0.06651  -0.000654  -0.095544  -0.115637  -0.001272  4.00753  0.0
C  C67  1  0.43454217  0.05876812  0.55747419  1  -0.066501  -0.000654  -0.095561  -0.115741  -0.001272  4.007648  0.0
C  C68  1  0.43892310  0.08329854  0.92125528  1  -0.093881  -0.000769  -0.091817  -0.111818  -0.001242  4.005585  0.0
C  C69  1  0.56107957  0.08329797  0.57874527  1  -0.094455  -0.000769  -0.091867  -0.111939  -0.001242  4.005581  0.0
C  C70  1  0.56107681  0.91670114  0.07874271  1  -0.094031  -0.000769  -0.091898  -0.11198  -0.001242  4.005515  0.0
C  C71  1  0.43891942  0.91669996  0.42126085  1  -0.094603  -0.000769  -0.091923  -0.112056  -0.001242  4.005475  0.0
C  C72  1  0.02330116  0.25759542  0.57197645  1  1.582331  0.002998  0.216503  0.59646  0.00178  4.170559  0.002
C  C73  1  0.97669997  0.25759787  0.92801811  1  1.582546  0.002997  0.216338  0.596215  0.00178  4.170742  0.002
C  C74  1  0.97669781  0.74240338  0.42802355  1  1.582377  0.002997  0.216392  0.596352  0.00178  4.170506  0.002
C  C75  1  0.02330088  0.74240093  0.07198245  1  1.582517  0.002996  0.216207  0.595992  0.00178  4.170699  0.002
C  C76  1  0.01159570  0.38302764  0.53543661  1  -0.000879  0.008807  -0.016768  -0.019778  0.004635  3.954989  0.007
C  C77  1  0.98840424  0.38302998  0.96456150  1  -0.000626  0.008807  -0.016781  -0.019737  0.004635  3.954942  0.007
C  C78  1  0.98840234  0.61697029  0.46456464  1  -0.00094  0.008808  -0.01679  -0.019895  0.004635  3.955141  0.007
C  C79  1  0.01159943  0.61696882  0.03543761  1  -0.000826  0.008808  -0.016735  -0.019635  0.004635  3.954908  0.007
C  C80  1  0.08863358  0.46989624  0.60101181  1  -0.051224  0.001152  -0.091392  -0.109017  0.000452  3.992616  0.001
C  C81  1  0.91137028  0.46989716  0.89898700  1  -0.051453  0.001152  -0.091332  -0.108889  0.000452  3.992666  0.001
C  C82  1  0.91136633  0.53010256  0.39898848  1  -0.051225  0.001152  -0.091324  -0.108851  0.000452  3.9927  0.001
C  C83  1  0.08863433  0.53010164  0.10101315  1  -0.051264  0.001152  -0.091343  -0.108943  0.000451  3.992795  0.001
C  C84  1  0.92262143  0.41431458  0.43465495  1  -0.116547  0.000775  -0.096545  -0.117512  0.000172  4.015951  0.001
C  C85  1  0.07737868  0.41431465  0.06534485  1  -0.116564  0.000775  -0.096526  -0.117466  0.000172  4.015797  0.001
C  C86  1  0.07737849  0.58568422  0.56534609  1  -0.116629  0.000775  -0.096455  -0.117268  0.000172  4.015853  0.001
C  C87  1  0.92262593  0.58568415  0.93465454  1  -0.116602  0.000775  -0.0965  -0.117447  0.000172  4.015847  0.001
N  N88  1  0.87860128  0.89417937  0.77748844  1  -0.644859  0.012701  -0.100915  0.301098  0.003761  3.855301  0.007
N  N89  1  0.12139957  0.89418327  0.72251022  1  -0.645503  0.012705  -0.100874  0.301061  0.003762  3.855184  0.007
N  N90  1  0.12139863  0.10582206  0.22251107  1  -0.644873  0.012701  -0.100901  0.301097  0.003761  3.855318  0.007
N  N91  1  0.87860222  0.10581728  0.27749062  1  -0.644946  0.012703  -0.100866  0.301073  0.003761  3.855204  0.007
O  O92  1  0.95107486  0.98103133  0.83273716  1  -0.635915  0.060785  -0.214266  -0.507713  0.034978  2.461817  0.05
O  O93  1  0.04892523  0.98103379  0.66725928  1  -0.636001  0.060787  -0.214336  -0.507743  0.034979  2.461962  0.05
O  O94  1  0.04892599  0.01896922  0.16726264  1  -0.635893  0.060785  -0.214275  -0.507691  0.034977  2.461834  0.05
O  O95  1  0.95107656  0.01896764  0.33274156  1  -0.635995  0.060786  -0.214307  -0.507699  0.034979  2.461916  0.05
O  O96  1  0.18261474  0.99651781  0.01235747  1  -1.158692  0.067043  -0.31795  -0.576044  0.035622  2.396208  0.058
O  O97  1  0.81738720  0.99651332  0.48764430  1  -1.158707  0.067046  -0.317914  -0.575928  0.035623  2.396121  0.058
O  O98  1  0.81738516  0.00348275  0.98764052  1  -1.158551  0.067044  -0.317921  -0.575953  0.035622  2.396029  0.058
O  O99  1  0.18260896  0.00348811  0.51235639  1  -1.158677  0.06705  -0.317939  -0.576033  0.035624  2.396112  0.058
O  O100  1  0.17956049  0.10811264  0.86701471  1  -1.159307  0.051066  -0.310531  -0.565587  0.026485  2.359853  0.046
O  O101  1  0.82044437  0.10811164  0.63298330  1  -1.159311  0.051063  -0.310532  -0.565551  0.026484  2.35988  0.046
O  O102  1  0.82043848  0.89189142  0.13298453  1  -1.159241  0.051066  -0.310482  -0.565501  0.026485  2.359898  0.046
O  O103  1  0.17955742  0.89188979  0.36701830  1  -1.159354  0.051066  -0.310519  -0.565592  0.026485  2.359746  0.046
O  O104  1  0.06440386  0.23958017  0.67421623  1  -1.148211  0.06265  -0.313608  -0.550756  0.032009  2.336741  0.05
O  O105  1  0.93560456  0.23958457  0.82577754  1  -1.148578  0.06265  -0.313489  -0.550617  0.032007  2.336727  0.05
O  O106  1  0.93559699  0.76041688  0.32578280  1  -1.148176  0.062645  -0.31357  -0.550693  0.032009  2.336619  0.05
O  O107  1  0.06439254  0.76041336  0.17422267  1  -1.148568  0.062647  -0.313417  -0.550492  0.032004  2.336694  0.05
O  O108  1  0.99135907  0.18071022  0.49705087  1  -1.158628  0.071995  -0.313384  -0.578153  0.037455  2.392944  0.063
O  O109  1  0.00863521  0.18071333  0.00294465  1  -1.158456  0.071989  -0.313358  -0.578093  0.037452  2.393074  0.063
O  O110  1  0.00863896  0.81928683  0.50294886  1  -1.158567  0.071988  -0.313373  -0.578156  0.037452  2.393019  0.063
O  O111  1  0.99136470  0.81928547  0.99705563  1  -1.158379  0.071984  -0.313337  -0.578048  0.037452  2.393045  0.063
