# generated using pymatgen
data_BiH6C14N2ClO4
_symmetry_space_group_name_H-M   'P 1'
_cell_length_a   8.84156026
_cell_length_b   9.05444318
_cell_length_c   9.87279182
_cell_angle_alpha   111.15016039
_cell_angle_beta   115.35478671
_cell_angle_gamma   92.68049715
_symmetry_Int_Tables_number   1
_chemical_formula_structural   BiH6C14N2ClO4
_chemical_formula_sum   'Bi2 H12 C28 N4 Cl2 O8'
_cell_volume   646.84980225
_cell_formula_units_Z   2
loop_
 _symmetry_equiv_pos_site_id
 _symmetry_equiv_pos_as_xyz
  1  'x, y, z'
loop_
 _atom_site_type_symbol
 _atom_site_label
 _atom_site_symmetry_multiplicity
 _atom_site_fract_x
 _atom_site_fract_y
 _atom_site_fract_z
 _atom_site_occupancy
 _atom_site_hle17_bader_spin_density
 _atom_site_hle17_ddec_charge
 _atom_site_hle17_ddec_spin_density
 _atom_site_hle17_ddec_sum_bond_order
 _atom_site_hle17_magmom
 _atom_site_hse06_10hf_bader_spin_density
 _atom_site_hse06_10hf_ddec_charge
 _atom_site_hse06_10hf_ddec_spin_density
 _atom_site_hse06_10hf_ddec_sum_bond_order
 _atom_site_hse06_10hf_magmom
 _atom_site_hse06_bader_spin_density
 _atom_site_hse06_ddec_charge
 _atom_site_hse06_ddec_spin_density
 _atom_site_hse06_ddec_sum_bond_order
 _atom_site_hse06_magmom
 _atom_site_pbe_bader_spin_density
 _atom_site_pbe_cm5_charge
 _atom_site_pbe_ddec_charge
 _atom_site_pbe_ddec_spin_density
 _atom_site_pbe_ddec_sum_bond_order
 _atom_site_pbe_magmom
Bi  Bi0  1  0.37562897  0.19226423  0.48336012  1  0  1.599921  0  2.171324  0  0  1.390769  0  2.651915  0  0  1.46653  0  2.603305  0  0  0.835879  1.337996  0  2.683762  0
Bi  Bi1  1  0.62437180  0.80773442  0.51664030  1  0  1.599931  0  2.171316  0  0  1.390779  0  2.651904  0  0  1.466539  0  2.603296  0  0  0.835879  1.338006  0  2.683749  0
H  H2  1  0.90604682  0.60816023  0.98680515  1  0  0.136761  0  0.966145  0  0  0.143341  0  1.029612  0  0  0.148033  0  1.026503  0  0  0.113636  0.140015  0  1.031933  0
H  H3  1  0.09395174  0.39183963  0.01319279  1  0  0.136686  0  0.966137  0  0  0.14331  0  1.029571  0  0  0.14798  0  1.02649  0  0  0.113598  0.139986  0  1.031892  0
H  H4  1  0.65403582  0.72110903  0.87053358  1  0  0.120484  0  0.956669  0  0  0.127302  0  1.020593  0  0  0.131788  0  1.016662  0  0  0.110599  0.124054  0  1.023073  0
H  H5  1  0.34596306  0.27889204  0.12946488  1  0  0.120486  0  0.956693  0  0  0.127302  0  1.020625  0  0  0.131793  0  1.016685  0  0  0.110616  0.124054  0  1.023109  0
H  H6  1  0.58425048  0.27502905  0.99359742  1  0  0.111135  0  0.933286  0  0  0.122212  0  0.990637  0  0  0.125346  0  0.989451  0  0  0.107933  0.119752  0  0.992045  0
H  H7  1  0.41574809  0.72497081  0.00640154  1  0  0.11115  0  0.933289  0  0  0.122213  0  0.990654  0  0  0.125356  0  0.989457  0  0  0.107937  0.119754  0  0.992061  0
H  H8  1  0.53777507  0.97547276  0.87026177  1  0  0.117994  0  0.958133  0  0  0.125334  0  1.023271  0  0  0.128758  0  1.021889  0  0  0.105812  0.122758  0  1.024418  0
H  H9  1  0.46222631  0.02452832  0.12973764  1  0  0.118012  0  0.958134  0  0  0.125338  0  1.023286  0  0  0.128761  0  1.021906  0  0  0.105823  0.122764  0  1.024433  0
H  H10  1  0.78899458  0.55532553  0.20793429  1  0  0.108819  0  0.948657  0  0  0.11817  0  1.0103  0  0  0.121504  0  1.007845  0  0  0.104622  0.115747  0  1.012128  0
H  H11  1  0.21100525  0.44467435  0.79206719  1  0  0.108817  0  0.948662  0  0  0.118163  0  1.010308  0  0  0.121497  0  1.007853  0  0  0.10462  0.11574  0  1.012136  0
H  H12  1  0.08585349  0.71296248  0.43546813  1  0  0.124453  0  0.929679  0  0  0.129996  0  0.994815  0  0  0.134141  0  0.992335  0  0  0.110772  0.126981  0  0.996813  0
H  H13  1  0.91414914  0.28703860  0.56453277  1  0  0.124426  0  0.929751  0  0  0.129992  0  0.994853  0  0  0.134135  0  0.992374  0  0  0.110764  0.126975  0  0.996851  0
C  C14  1  0.23266800  0.78564050  0.23920544  1  0  0.604075  0  3.942806  0  0  0.547841  0  4.249306  0  0  0.581358  0  4.242582  0  0  0.211857  0.525115  0  4.25319  0
C  C15  1  0.76733276  0.21435815  0.76079498  1  0  0.604069  0  3.942811  0  0  0.547812  0  4.249323  0  0  0.581331  0  4.242597  0  0  0.211821  0.525085  0  4.253205  0
C  C16  1  0.07278487  0.84587772  0.17052619  1  0  0.115318  0  3.743885  0  0  0.114717  0  3.993137  0  0  0.118201  0  4.011485  0  0  0.121013  0.112583  0  3.981106  0
C  C17  1  0.92721338  0.15412092  0.82947123  1  0  0.115349  0  3.743906  0  0  0.114771  0  3.99314  0  0  0.118254  0  4.011482  0  0  0.121032  0.112637  0  3.981108  0
C  C18  1  0.91577056  0.73894515  0.03859742  1  0  -0.096667  0  3.650212  0  0  -0.121515  0  3.904334  0  0  -0.126499  0  3.92308  0  0  -0.071776  -0.119047  0  3.892145  0
C  C19  1  0.08422894  0.26105349  0.96140049  1  0  -0.0966  0  3.650163  0  0  -0.121484  0  3.904273  0  0  -0.126452  0  3.923036  0  0  -0.071707  -0.119018  0  3.892085  0
C  C20  1  0.77600645  0.80254456  0.97453124  1  0  -0.029213  0  3.60844  0  0  -0.054485  0  3.863964  0  0  -0.052081  0  3.878393  0  0  -0.057573  -0.054762  0  3.852427  0
C  C21  1  0.22399243  0.19745652  0.02546824  1  0  -0.029191  0  3.608439  0  0  -0.05448  0  3.863994  0  0  -0.052077  0  3.878425  0  0  -0.057613  -0.054758  0  3.852456  0
C  C22  1  0.79359110  0.97315164  0.04106126  1  0  0.039396  0  3.751832  0  0  0.051179  0  3.990887  0  0  0.049995  0  4.013516  0  0  0.002977  0.051476  0  3.974809  0
C  C23  1  0.20640747  0.02684823  0.95893770  1  0  0.039385  0  3.751822  0  0  0.051164  0  3.990886  0  0  0.049979  0  4.013519  0  0  0.002941  0.051461  0  3.974806  0
C  C24  1  0.95592011  0.07099037  0.17684125  1  0  0.145792  0  3.758994  0  0  0.136329  0  4.002066  0  0  0.141128  0  4.023047  0  0  0.121691  0.133095  0  3.988323  0
C  C25  1  0.04408002  0.92901072  0.82315870  1  0  0.145783  0  3.759064  0  0  0.136331  0  4.00211  0  0  0.141132  0  4.023092  0  0  0.121715  0.133097  0  3.988364  0
C  C26  1  0.98326349  0.24552954  0.24830677  1  0  0.141999  0  3.774337  0  0  0.131726  0  4.016967  0  0  0.136351  0  4.03873  0  0  0.122393  0.128863  0  4.002262  0
C  C27  1  0.01673758  0.75447032  0.75169314  1  0  0.142014  0  3.774317  0  0  0.131783  0  4.01691  0  0  0.136407  0  4.038673  0  0  0.122411  0.128919  0  4.002203  0
C  C28  1  0.84891962  0.31960928  0.18219835  1  0  0.037181  0  3.755976  0  0  0.052828  0  3.989534  0  0  0.051252  0  4.012728  0  0  0.006047  0.053457  0  3.97432  0
C  C29  1  0.15108146  0.68039059  0.81780258  1  0  0.037156  0  3.756035  0  0  0.05274  0  3.989649  0  0  0.051164  0  4.012845  0  0  0.006028  0.053369  0  3.974434  0
C  C30  1  0.68637613  0.21779027  0.04593783  1  0  -0.072641  0  3.686291  0  0  -0.096516  0  3.940583  0  0  -0.099538  0  3.962153  0  0  -0.073865  -0.094647  0  3.926673  0
C  C31  1  0.31362369  0.78220959  0.95406161  1  0  -0.072627  0  3.686319  0  0  -0.096475  0  3.940622  0  0  -0.099504  0  3.962188  0  0  -0.073867  -0.094608  0  3.926713  0
C  C32  1  0.66008409  0.05155679  0.97739943  1  0  -0.094692  0  3.696548  0  0  -0.118671  0  3.956588  0  0  -0.121807  0  3.978305  0  0  -0.078217  -0.116132  0  3.941545  0
C  C33  1  0.33991603  0.94844428  0.02259849  1  0  -0.094734  0  3.696527  0  0  -0.118703  0  3.956569  0  0  -0.12184  0  3.97829  0  0  -0.078216  -0.116165  0  3.941525  0
C  C34  1  0.88782118  0.49194887  0.25311476  1  0  -0.025304  0  3.62974  0  0  -0.052202  0  3.885279  0  0  -0.049824  0  3.901458  0  0  -0.055117  -0.05348  0  3.874388  0
C  C35  1  0.11217866  0.50805101  0.74688671  1  0  -0.025268  0  3.629734  0  0  -0.052142  0  3.885276  0  0  -0.049764  0  3.901456  0  0  -0.055084  -0.05342  0  3.874383  0
C  C36  1  0.05150923  0.58015476  0.37949083  1  0  -0.09107  0  3.66732  0  0  -0.118493  0  3.928806  0  0  -0.123201  0  3.948213  0  0  -0.071704  -0.115774  0  3.916239  0
C  C37  1  0.94849154  0.41984389  0.62051060  1  0  -0.091055  0  3.667355  0  0  -0.118516  0  3.928874  0  0  -0.123222  0  3.948282  0  0  -0.071699  -0.115799  0  3.916309  0
C  C38  1  0.17604414  0.49583988  0.43792045  1  0  0.123639  0  3.734367  0  0  0.127009  0  3.976984  0  0  0.13086  0  3.994815  0  0  0.126198  0.124204  0  3.965298  0
C  C39  1  0.82395569  0.50416000  0.56208204  1  0  0.123645  0  3.734364  0  0  0.127024  0  3.976991  0  0  0.130875  0  3.994823  0  0  0.126187  0.124218  0  3.965305  0
C  C40  1  0.35900323  0.58030081  0.57354700  1  0  0.616239  0  3.932826  0  0  0.558556  0  4.241169  0  0  0.592985  0  4.233554  0  0  0.209108  0.535209  0  4.245732  0
C  C41  1  0.64099943  0.41970029  0.42645798  1  0  0.6162  0  3.932934  0  0  0.558469  0  4.241351  0  0  0.5929  0  4.233737  0  0  0.209126  0.535123  0  4.245913  0
N  N42  1  0.09015672  0.00672185  0.23819470  1  0  -0.381006  0  3.298645  0  0  -0.318368  0  3.543214  0  0  -0.338137  0  3.567597  0  0  -0.291336  -0.30508  0  3.526454  0
N  N43  1  0.90984185  0.99327802  0.76180426  1  0  -0.381046  0  3.298735  0  0  -0.318427  0  3.543307  0  0  -0.338196  0  3.56769  0  0  -0.291358  -0.305139  0  3.526544  0
N  N44  1  0.14047066  0.33364941  0.37398490  1  0  -0.383705  0  3.308438  0  0  -0.320359  0  3.549709  0  0  -0.340539  0  3.574487  0  0  -0.293702  -0.306275  0  3.532077  0
N  N45  1  0.85952792  0.66635046  0.62601508  1  0  -0.383709  0  3.308442  0  0  -0.320369  0  3.549694  0  0  -0.340549  0  3.574473  0  0  -0.293718  -0.306284  0  3.53206  0
Cl  Cl46  1  0.25705813  0.14622915  0.66265351  1  0  -0.491098  0  0.816267  0  0  -0.441999  0  1.043919  0  0  -0.457454  0  1.028533  0  0  -0.235698  -0.431974  0  1.054377  0
Cl  Cl47  1  0.74294013  0.85376950  0.33734595  1  0  -0.491101  0  0.816268  0  0  -0.442001  0  1.043917  0  0  -0.457455  0  1.02853  0  0  -0.235698  -0.431974  0  1.054371  0
O  O48  1  0.36878806  0.89909149  0.36058545  1  0  -0.679108  0  2.152441  0  0  -0.594541  0  2.401661  0  0  -0.629932  0  2.396368  0  0  -0.289513  -0.569802  0  2.4045  0
O  O49  1  0.63121021  0.10090716  0.63941503  1  0  -0.679136  0  2.152481  0  0  -0.594535  0  2.401683  0  0  -0.629926  0  2.396388  0  0  -0.289495  -0.569794  0  2.404521  0
O  O50  1  0.23067998  0.63893612  0.18048723  1  0  -0.544931  0  1.932671  0  0  -0.501099  0  2.155041  0  0  -0.523444  0  2.149183  0  0  -0.288591  -0.485498  0  2.158773  0
O  O51  1  0.76931984  0.36106374  0.81951119  1  0  -0.544924  0  1.932657  0  0  -0.501099  0  2.155073  0  0  -0.523449  0  2.149217  0  0  -0.288579  -0.485498  0  2.158803  0
O  O52  1  0.45121618  0.49380196  0.63578078  1  0  -0.625868  0  2.003145  0  0  -0.567144  0  2.246045  0  0  -0.596537  0  2.237885  0  0  -0.298278  -0.546602  0  2.250998  0
O  O53  1  0.54878708  0.50619668  0.36421956  1  0  -0.625858  0  2.003264  0  0  -0.567113  0  2.246178  0  0  -0.59651  0  2.23802  0  0  -0.298272  -0.546568  0  2.251124  0
O  O54  1  0.40989863  0.73041636  0.61470767  1  0  -0.627895  0  1.970808  0  0  -0.57191  0  2.214596  0  0  -0.599228  0  2.206864  0  0  -0.305174  -0.552225  0  2.218804  0
O  O55  1  0.59010309  0.26958597  0.38529735  1  0  -0.627867  0  1.970858  0  0  -0.571852  0  2.214657  0  0  -0.599166  0  2.206912  0  0  -0.305189  -0.552168  0  2.218865  0
