# generated using pymatgen
data_ZnH6C8O5
_symmetry_space_group_name_H-M   'P 1'
_cell_length_a   6.50751903
_cell_length_b   12.61208809
_cell_length_c   15.55104359
_cell_angle_alpha   89.99998113
_cell_angle_beta   90.00010785
_cell_angle_gamma   104.11253255
_symmetry_Int_Tables_number   1
_chemical_formula_structural   ZnH6C8O5
_chemical_formula_sum   'Zn4 H24 C32 O20'
_cell_volume   1237.80586752
_cell_formula_units_Z   4
loop_
 _symmetry_equiv_pos_site_id
 _symmetry_equiv_pos_as_xyz
  1  'x, y, z'
loop_
 _atom_site_type_symbol
 _atom_site_label
 _atom_site_symmetry_multiplicity
 _atom_site_fract_x
 _atom_site_fract_y
 _atom_site_fract_z
 _atom_site_occupancy
 _atom_site_pbe_bader_spin_density
 _atom_site_pbe_cm5_charge
 _atom_site_pbe_ddec_charge
 _atom_site_pbe_ddec_spin_density
 _atom_site_pbe_ddec_sum_bond_order
 _atom_site_pbe_magmom
Zn  Zn0  1  0.20258912  0.57203123  0.50497516  1  0  0.666979  0.913884  0  2.304704  0
Zn  Zn1  1  0.29741399  0.92797218  0.00497208  1  0  0.666985  0.913898  0  2.304716  0
Zn  Zn2  1  0.79741030  0.42796849  0.49502499  1  0  0.667042  0.91384  0  2.304638  0
Zn  Zn3  1  0.70258695  0.07203408  0.99502421  1  0  0.666963  0.913763  0  2.304762  0
H  H4  1  0.85955241  0.16853618  0.68715683  1  0  0.105725  0.110264  0  1.001306  0
H  H5  1  0.64043870  0.33146233  0.18716198  1  0  0.105762  0.110275  0  1.001295  0
H  H6  1  0.14044508  0.83146599  0.31284139  1  0  0.105726  0.110259  0  1.00125  0
H  H7  1  0.35956999  0.66852433  0.81285039  1  0  0.105762  0.110323  0  1.001321  0
H  H8  1  0.98557698  0.06026248  0.80192090  1  0  0.106044  0.115301  0  1.015414  0
H  H9  1  0.51441380  0.43973438  0.30192785  1  0  0.106039  0.115292  0  1.015415  0
H  H10  1  0.01441744  0.93973968  0.19808053  1  0  0.106037  0.115301  0  1.015575  0
H  H11  1  0.48559450  0.56025473  0.69808323  1  0  0.106074  0.115343  0  1.015497  0
H  H12  1  0.61102946  0.27245218  0.78434119  1  0  0.108155  0.116784  0  0.994077  0
H  H13  1  0.88897087  0.22754224  0.28435301  1  0  0.108161  0.116742  0  0.994058  0
H  H14  1  0.38897035  0.72754835  0.21565189  1  0  0.108114  0.116645  0  0.994129  0
H  H15  1  0.11103356  0.77245503  0.71565293  1  0  0.108137  0.116736  0  0.994089  0
H  H16  1  0.48540277  0.38295039  0.67199046  1  0  0.102862  0.109684  0  1.058314  0
H  H17  1  0.01459549  0.11704496  0.17199746  1  0  0.102864  0.109705  0  1.058301  0
H  H18  1  0.51459627  0.61704851  0.32800133  1  0  0.102894  0.10982  0  1.058248  0
H  H19  1  0.98540240  0.88295476  0.82800462  1  0  0.10289  0.109797  0  1.058254  0
H  H20  1  0.50634128  0.73195115  0.47342499  1  0  0.335843  0.413232  0  0.849117  0
H  H21  1  0.99366370  0.76805457  0.97342381  1  0  0.335813  0.413169  0  0.849205  0
H  H22  1  0.49365392  0.26804938  0.52657451  1  0  0.33584  0.413178  0  0.849206  0
H  H23  1  0.00634186  0.23195169  0.02656991  1  0  0.335833  0.413173  0  0.849147  0
H  H24  1  0.60173031  0.62861360  0.47901438  1  0  0.299257  0.390343  0  0.950536  0
H  H25  1  0.89827277  0.87139130  0.97901310  1  0  0.299312  0.39046  0  0.950438  0
H  H26  1  0.39826604  0.37138611  0.52098255  1  0  0.2993  0.390446  0  0.950458  0
H  H27  1  0.10172895  0.12861333  0.02098512  1  0  0.299276  0.390375  0  0.950531  0
C  C28  1  0.02388346  0.19039516  0.70858138  1  0  -0.081368  -0.087639  0  3.962429  0
C  C29  1  0.47611032  0.30960344  0.20858491  1  0  -0.081341  -0.087445  0  3.962252  0
C  C30  1  0.97610405  0.80960536  0.29141619  1  0  -0.08137  -0.087553  0  3.962396  0
C  C31  1  0.52390066  0.69039140  0.79142489  1  0  -0.081492  -0.087837  0  3.962622  0
C  C32  1  0.09441827  0.12977877  0.77184277  1  0  -0.078119  -0.080045  0  3.939363  0
C  C33  1  0.40557690  0.37021901  0.27184751  1  0  -0.078086  -0.080108  0  3.939151  0
C  C34  1  0.90558114  0.87022749  0.22815417  1  0  -0.078078  -0.080148  0  3.939534  0
C  C35  1  0.59442870  0.62977091  0.72815907  1  0  -0.078132  -0.080186  0  3.939071  0
C  C36  1  0.30654304  0.15935512  0.79904811  1  0  -0.011716  -0.026718  0  3.956329  0
C  C37  1  0.19344877  0.34064510  0.29905523  1  0  -0.011776  -0.026759  0  3.956361  0
C  C38  1  0.69345330  0.84064787  0.20095075  1  0  -0.011705  -0.026486  0  3.956136  0
C  C39  1  0.80655988  0.65935463  0.70094942  1  0  -0.01169  -0.026379  0  3.95602  0
C  C40  1  0.08813541  0.34891980  0.60557802  1  0  0.218547  0.588532  0  4.156377  0
C  C41  1  0.41185796  0.15108208  0.10558023  1  0  0.218555  0.588591  0  4.156438  0
C  C42  1  0.91183827  0.65107417  0.39441891  1  0  0.218612  0.588566  0  4.156441  0
C  C43  1  0.58815606  0.84892256  0.89442056  1  0  0.218521  0.588488  0  4.156594  0
C  C44  1  0.38044145  0.09641816  0.86921514  1  0  0.218706  0.589227  0  4.167024  0
C  C45  1  0.11954794  0.40357960  0.36921833  1  0  0.218595  0.589063  0  4.167544  0
C  C46  1  0.61956026  0.90358973  0.13078115  1  0  0.218575  0.58891  0  4.167321  0
C  C47  1  0.88044266  0.59641439  0.63078310  1  0  0.218615  0.588883  0  4.167643  0
C  C48  1  0.16419690  0.28186069  0.67224111  1  0  -0.021242  -0.047189  0  3.986134  0
C  C49  1  0.33579827  0.21813792  0.17224452  1  0  -0.021416  -0.047525  0  3.986553  0
C  C50  1  0.83580368  0.71813821  0.32775582  1  0  -0.02132  -0.047277  0  3.986399  0
C  C51  1  0.66419655  0.78185853  0.82776205  1  0  -0.0212  -0.047035  0  3.986271  0
C  C52  1  0.44721476  0.25008174  0.76230079  1  0  -0.082415  -0.086452  0  3.960104  0
C  C53  1  0.05278268  0.24991441  0.26230845  1  0  -0.082409  -0.08635  0  3.959946  0
C  C54  1  0.55278773  0.74992126  0.23769292  1  0  -0.082362  -0.086211  0  3.960095  0
C  C55  1  0.94721637  0.75008122  0.73769363  1  0  -0.082445  -0.086441  0  3.960125  0
C  C56  1  0.37649208  0.31139725  0.69955320  1  0  -0.091214  -0.116225  0  3.984124  0
C  C57  1  0.12350359  0.18859891  0.19955771  1  0  -0.091076  -0.116078  0  3.984053  0
C  C58  1  0.62350120  0.68859920  0.30044052  1  0  -0.091231  -0.116487  0  3.984172  0
C  C59  1  0.87649967  0.81140245  0.80044308  1  0  -0.091227  -0.116451  0  3.983975  0
O  O60  1  0.22939680  0.42914598  0.57278607  1  0  -0.317788  -0.589054  0  2.372392  0
O  O61  1  0.27060068  0.07085836  0.07278366  1  0  -0.317785  -0.589041  0  2.372517  0
O  O62  1  0.77059764  0.57084965  0.42720508  1  0  -0.317773  -0.588911  0  2.37263  0
O  O63  1  0.72939488  0.92914952  0.92720363  1  0  -0.317702  -0.588885  0  2.372638  0
O  O64  1  0.89490549  0.32413958  0.58409430  1  0  -0.3065  -0.534397  0  2.286208  0
O  O65  1  0.60509444  0.17586222  0.08409622  1  0  -0.306455  -0.534371  0  2.286092  0
O  O66  1  0.10509814  0.67586586  0.41591292  1  0  -0.306645  -0.534609  0  2.285809  0
O  O67  1  0.39490999  0.82413178  0.91591550  1  0  -0.30661  -0.534565  0  2.28593  0
O  O68  1  0.57205335  0.13042191  0.89463731  1  0  -0.312877  -0.542583  0  2.321795  0
O  O69  1  0.92794200  0.36958067  0.39463629  1  0  -0.312768  -0.542461  0  2.322125  0
O  O70  1  0.42792261  0.86958677  0.10536669  1  0  -0.312805  -0.542485  0  2.321641  0
O  O71  1  0.07208395  0.63041991  0.60536836  1  0  -0.312774  -0.54248  0  2.321491  0
O  O72  1  0.50486241  0.66809833  0.50893708  1  0  -0.550588  -0.692781  0  2.093474  0
O  O73  1  0.99513966  0.83190825  0.00893548  1  0  -0.550604  -0.69282  0  2.093606  0
O  O74  1  0.49513432  0.33190547  0.49106371  1  0  -0.550627  -0.692807  0  2.093607  0
O  O75  1  0.00486436  0.16809474  0.99106145  1  0  -0.550601  -0.692748  0  2.093563  0
O  O76  1  0.24635620  0.01393721  0.89925873  1  0  -0.308273  -0.544143  0  2.387678  0
O  O77  1  0.25364022  0.48605892  0.39926460  1  0  -0.308287  -0.544106  0  2.387549  0
O  O78  1  0.75364247  0.98605761  0.10073370  1  0  -0.308235  -0.544019  0  2.387982  0
O  O79  1  0.74637340  0.51395144  0.60073555  1  0  -0.308286  -0.544002  0  2.388294  0
