# generated using pymatgen
data_Zn2H38C31N2O11
_symmetry_space_group_name_H-M   'P 1'
_cell_length_a   9.65877841
_cell_length_b   11.03083581
_cell_length_c   16.06128871
_cell_angle_alpha   92.10601130
_cell_angle_beta   88.91742694
_cell_angle_gamma   91.30787755
_symmetry_Int_Tables_number   1
_chemical_formula_structural   Zn2H38C31N2O11
_chemical_formula_sum   'Zn2 H38 C31 N2 O11'
_cell_volume   1709.35978304
_cell_formula_units_Z   1
loop_
 _symmetry_equiv_pos_site_id
 _symmetry_equiv_pos_as_xyz
  1  'x, y, z'
loop_
 _atom_site_type_symbol
 _atom_site_label
 _atom_site_symmetry_multiplicity
 _atom_site_fract_x
 _atom_site_fract_y
 _atom_site_fract_z
 _atom_site_occupancy
 _atom_site_pbe_bader_charge
 _atom_site_pbe_bader_spin_density
 _atom_site_pbe_cm5_charge
 _atom_site_pbe_ddec_charge
 _atom_site_pbe_ddec_spin_density
 _atom_site_pbe_ddec_sum_bond_order
 _atom_site_pbe_magmom
Zn  Zn0  1  0.64543808  0.50467247  0.50254627  1  1.278055  0  0.659639  0.839163  0  2.457514  0
Zn  Zn1  1  0.36410122  0.50674517  0.50629203  1  1.283468  0  0.665549  0.839351  0  2.492471  0
H  H2  1  0.60990571  0.66257206  0.93454133  1  0.111109  0  0.115059  0.072524  0  0.960835  0
H  H3  1  0.72095557  0.51032035  0.06668644  1  0.045756  0  0.097457  0.103554  0  0.994669  0
H  H4  1  0.38039709  0.32852569  0.94052947  1  0.043897  0  0.092232  0.089708  0  0.987383  0
H  H5  1  0.59733538  0.08668813  0.47598395  1  0.073921  0  0.104088  0.138673  0  1.013601  0
H  H6  1  0.30547120  0.89124662  0.52662433  1  0.115502  0  0.110033  0.117636  0  1.007836  0
H  H7  1  0.61970671  0.91767544  0.55100995  1  0.061297  0  0.104387  0.116186  0  1.021236  0
H  H8  1  0.86695883  0.35661659  0.57662334  1  0.169404  0  0.146265  0.120709  0  0.942116  0
H  H9  1  0.91169449  0.58863550  0.49622681  1  0.428922  0  0.320143  0.285013  0  0.908142  0
H  H10  1  0.12584881  0.41552354  0.61607442  1  0.169179  0  0.146549  0.123978  0  0.944846  0
H  H11  1  0.65363014  0.65806798  0.07508752  1  0.022411  0  0.098641  0.110142  0  0.971319  0
H  H12  1  0.10524425  0.50805975  0.44817584  1  0.443445  0  0.321174  0.288141  0  0.905265  0
H  H13  1  0.27733549  0.54400653  0.08112394  1  0.046185  0  0.095217  0.102713  0  0.980708  0
H  H14  1  0.38229777  0.67667939  0.07081535  1  0.081228  0  0.102511  0.117363  0  0.969752  0
H  H15  1  0.27571814  0.51654625  0.93609768  1  0.036982  0  0.102398  0.037557  0  0.993388  0
H  H16  1  0.57614746  0.32965743  0.07953727  1  0.027848  0  0.093926  0.092374  0  0.980645  0
H  H17  1  0.39365991  0.33577108  0.08548750  1  0.077684  0  0.095309  0.097259  0  0.971827  0
H  H18  1  0.56006311  0.30782225  0.93456688  1  0.046626  0  0.093966  0.091317  0  1.010735  0
H  H19  1  0.74073805  0.36283978  0.86715004  1  0.032224  0  0.090498  0.049406  0  0.999724  0
H  H20  1  0.79597155  0.38255894  0.97265686  1  0.02673  0  0.089837  0.045715  0  0.994442  0
H  H21  1  0.95814771  0.46776347  0.81889240  1  -0.001311  0  0.093578  0.089674  0  0.976002  0
H  H22  1  0.01504353  0.48232935  0.92256146  1  0.019976  0  0.088149  0.076819  0  0.991537  0
H  H23  1  0.01440912  0.25253753  0.93105105  1  -0.006479  0  0.083878  0.109741  0  1.00327  0
H  H24  1  0.12330494  0.30237733  0.84825604  1  0.036619  0  0.084371  0.110737  0  1.016715  0
H  H25  1  0.95682630  0.23839308  0.82680764  1  0.030017  0  0.082065  0.104979  0  1.013142  0
H  H26  1  0.15641273  0.13024976  0.66592964  1  0.048967  0  0.103527  0.069224  0  0.968512  0
H  H27  1  0.22808758  0.98628880  0.64073164  1  0.057786  0  0.102977  0.069024  0  0.991744  0
H  H28  1  0.02465966  0.11926284  0.53275757  1  0.017208  0  0.091877  0.084532  0  0.978132  0
H  H29  1  0.08992570  0.97424466  0.50850783  1  0.038949  0  0.093853  0.087168  0  0.975008  0
H  H30  1  0.97279177  0.89360335  0.63931910  1  0.027948  0  0.08692  0.113473  0  1.01952  0
H  H31  1  0.85169518  0.95603844  0.57229974  1  0.046125  0  0.089502  0.121509  0  1.013862  0
H  H32  1  0.90585354  0.03968307  0.66284206  1  0.019791  0  0.085441  0.107959  0  1.006772  0
H  H33  1  0.24587044  0.82426786  0.89605766  1  0.022511  0  0.100304  0.067469  0  0.961914  0
H  H34  1  0.15632552  0.69917988  0.94047276  1  0.036868  0  0.092167  0.049041  0  0.986809  0
H  H35  1  0.28237693  0.70302997  0.76318038  1  0.041436  0  0.091907  0.095889  0  0.969727  0
H  H36  1  0.19538677  0.57724936  0.80521355  1  -0.017556  0  0.08511  0.076006  0  1.01111  0
H  H37  1  0.97494584  0.69801766  0.82286887  1  0.018628  0  0.086559  0.117067  0  1.017206  0
H  H38  1  0.03461104  0.69370629  0.71772438  1  0.020682  0  0.081024  0.105855  0  1.012544  0
H  H39  1  0.06310646  0.82611611  0.78158767  1  -0.013877  0  0.080361  0.100639  0  1.017103  0
C  C40  1  0.51429400  0.74139238  0.52912578  1  1.533244  0  0.206137  0.634885  0  4.177959  0
C  C41  1  0.62714445  0.56933908  0.95278208  1  0.431411  0  0.008698  0.14024  0  3.793761  0
C  C42  1  0.49626903  0.49520398  0.92263370  1  0.112168  0  -0.004119  0.044873  0  3.875185  0
C  C43  1  0.48043683  0.36790886  0.96072374  1  -0.085798  0  -0.155229  -0.183464  0  3.86899  0
C  C44  1  0.48643545  0.37721717  0.05671765  1  -0.035442  0  -0.153584  -0.187397  0  3.850561  0
C  C45  1  0.49304661  0.48468375  0.83266682  1  -0.467223  0  -0.026286  -0.026169  0  4.07365  0
C  C46  1  0.49933736  0.52023311  0.17666636  1  -0.439343  0  -0.030642  -0.044434  0  4.035281  0
C  C47  1  0.49937688  0.52375767  0.25240910  1  0.139511  0  -0.064606  -0.220613  0  3.999455  0
C  C48  1  0.40196514  0.07380789  0.53494038  1  0.491647  0  0.09233  0.291622  0  4.061715  0
C  C49  1  0.50996113  0.13790092  0.50078923  1  0.028498  0  -0.127241  -0.388013  0  3.880367  0
C  C50  1  0.40352644  0.94131724  0.53485309  1  -0.152512  0  -0.080788  -0.135888  0  3.998571  0
C  C51  1  0.49766080  0.52385151  0.34246490  1  1.617424  0  0.216714  0.681046  0  4.232225  0
C  C52  1  0.51812349  0.87532569  0.54054291  1  0.046863  0  -0.091092  -0.203544  0  3.899215  0
C  C53  1  0.92418558  0.43455698  0.55144438  1  0.669717  0  0.127552  0.171538  0  3.847955  0
C  C54  1  0.07632061  0.44442643  0.55936423  1  0.715991  0  0.128084  0.174093  0  3.842033  0
C  C55  1  0.52150565  0.27018743  0.49556944  1  1.552476  0  0.200561  0.662669  0  4.179638  0
C  C56  1  0.48216222  0.48262983  0.66767555  1  1.652839  0  0.217463  0.677087  0  4.236213  0
C  C57  1  0.63420956  0.56610529  0.04869123  1  -0.011896  0  -0.158117  -0.270225  0  3.851926  0
C  C58  1  0.37340754  0.57985033  0.05261568  1  -0.052838  0  -0.159146  -0.27464  0  3.832381  0
C  C59  1  0.36900325  0.56837645  0.95620131  1  0.456018  0  0.013286  0.156747  0  3.784627  0
C  C60  1  0.48766804  0.47731633  0.75717175  1  0.162708  0  -0.059218  -0.218357  0  3.990115  0
C  C61  1  0.49834673  0.51226252  0.08626565  1  0.159901  0  0.000614  0.189833  0  3.901215  0
C  C62  1  0.80361755  0.42121369  0.90998984  1  0.417536  0  -0.073238  0.037366  0  3.934442  0
C  C63  1  0.95369860  0.42380249  0.87936117  1  0.037513  0  -0.167446  -0.12641  0  3.976978  0
C  C64  1  0.01531535  0.29748176  0.87098095  1  -0.065917  0  -0.244903  -0.357036  0  3.995727  0
C  C65  1  0.18492968  0.06744780  0.61377458  1  0.395574  0  -0.063365  0.024289  0  3.902264  0
C  C66  1  0.05907089  0.03570100  0.56087344  1  -0.002005  0  -0.167787  -0.135979  0  3.99366  0
C  C67  1  0.94111639  0.97814242  0.61166878  1  -0.081068  0  -0.241682  -0.35165  0  3.970192  0
C  C68  1  0.23776947  0.72447514  0.89449848  1  0.425131  0  -0.070464  0.037591  0  3.936165  0
C  C69  1  0.19929717  0.67716561  0.80730570  1  0.03022  0  -0.175159  -0.14923  0  3.991811  0
C  C70  1  0.06047351  0.72624593  0.78117343  1  -0.027122  0  -0.24609  -0.353182  0  3.986205  0
N  N71  1  0.85504675  0.51463141  0.51584880  1  -1.176608  0  -0.431028  -0.367838  0  3.26408  0
N  N72  1  0.15442779  0.48680917  0.50178894  1  -1.182887  0  -0.432351  -0.370544  0  3.265436  0
O  O73  1  0.63132244  0.69080051  0.51987493  1  -1.157594  0  -0.326191  -0.554808  0  2.257371  0
O  O74  1  0.39593203  0.68739714  0.52831298  1  -1.167442  0  -0.325236  -0.555781  0  2.305959  0
O  O75  1  0.61471632  0.51688444  0.37732904  1  -1.142917  0  -0.32071  -0.54968  0  2.249323  0
O  O76  1  0.37956221  0.52993851  0.37883013  1  -1.144649  0  -0.324608  -0.55419  0  2.232334  0
O  O77  1  0.64412522  0.31739686  0.49382914  1  -1.148377  0  -0.33734  -0.573755  0  2.240695  0
O  O78  1  0.41014441  0.32978528  0.49221482  1  -1.153209  0  -0.32481  -0.564122  0  2.35408  0
O  O79  1  0.59835445  0.48702457  0.62883293  1  -1.137919  0  -0.317786  -0.557865  0  2.265969  0
O  O80  1  0.36253691  0.48495622  0.63566071  1  -1.148522  0  -0.316707  -0.556161  0  2.249731  0
O  O81  1  0.75572370  0.54275301  0.91130047  1  -1.050435  0  -0.232977  -0.264533  0  2.465831  0
O  O82  1  0.28930343  0.13241029  0.56671760  1  -1.061629  0  -0.175461  -0.188666  0  2.542452  0
O  O83  1  0.37029121  0.68501036  0.92055729  1  -1.049198  0  -0.234476  -0.27499  0  2.463199  0
