# generated using pymatgen
data_H4PbC10N3O4
_symmetry_space_group_name_H-M   'P 1'
_cell_length_a   16.23481641
_cell_length_b   16.23652069
_cell_length_c   16.23381811
_cell_angle_alpha   61.90579073
_cell_angle_beta   86.66145733
_cell_angle_gamma   118.09750435
_symmetry_Int_Tables_number   1
_chemical_formula_structural   H4PbC10N3O4
_chemical_formula_sum   'H32 Pb8 C80 N24 O32'
_cell_volume   3107.02994861
_cell_formula_units_Z   8
loop_
 _symmetry_equiv_pos_site_id
 _symmetry_equiv_pos_as_xyz
  1  'x, y, z'
loop_
 _atom_site_type_symbol
 _atom_site_label
 _atom_site_symmetry_multiplicity
 _atom_site_fract_x
 _atom_site_fract_y
 _atom_site_fract_z
 _atom_site_occupancy
 _atom_site_pbe_bader_charge
 _atom_site_pbe_bader_spin_density
 _atom_site_pbe_cm5_charge
 _atom_site_pbe_ddec_charge
 _atom_site_pbe_ddec_spin_density
 _atom_site_pbe_ddec_sum_bond_order
 _atom_site_pbe_magmom
H  H0  1  0.56595385  0.75755924  0.95976591  1  0.155462  0  0.114971  0.137127  0  1.049051  0
H  H1  1  0.80834788  0.02562517  0.43412993  1  0.160843  0  0.115079  0.137186  0  1.048936  0
H  H2  1  0.78292514  0.74251797  0.19151041  1  0.150685  0  0.114943  0.136801  0  1.048997  0
H  H3  1  0.04024734  0.47424647  0.21717000  1  0.146501  0  0.114982  0.136831  0  1.049268  0
H  H4  1  0.43405603  0.24251508  0.04010598  1  0.154619  0  0.114935  0.137206  0  1.049225  0
H  H5  1  0.19163599  0.97434917  0.56591289  1  0.160419  0  0.115024  0.137138  0  1.048953  0
H  H6  1  0.21713927  0.25740172  0.80855889  1  0.150369  0  0.115018  0.137137  0  1.048995  0
H  H7  1  0.95974076  0.52576858  0.78280915  1  0.14637  0  0.114911  0.136776  0  1.04925  0
H  H8  1  0.55785487  0.85195530  0.03933919  1  0.149726  0  0.119492  0.126916  0  0.98233  0
H  H9  1  0.70582168  0.09704722  0.44221197  1  0.118931  0  0.11966  0.127072  0  0.982656  0
H  H10  1  0.60889101  0.64805092  0.29394787  1  0.145183  0  0.119514  0.126917  0  0.982565  0
H  H11  1  0.96063100  0.40264201  0.39119865  1  0.151298  0  0.119515  0.127205  0  0.982626  0
H  H12  1  0.44217887  0.14817657  0.96049166  1  0.150345  0  0.119438  0.126763  0  0.982668  0
H  H13  1  0.29411237  0.90286372  0.55780865  1  0.119178  0  0.119627  0.12712  0  0.982439  0
H  H14  1  0.39117085  0.35182494  0.70613790  1  0.14384  0  0.119545  0.126944  0  0.98223  0
H  H15  1  0.03942820  0.59742313  0.60878805  1  0.150827  0  0.119373  0.126578  0  0.983137  0
H  H16  1  0.39089955  0.81806045  0.10462229  1  0.07311  0  0.114868  0.118205  0  0.982999  0
H  H17  1  0.57272710  0.99537991  0.60915684  1  0.081649  0  0.11489  0.118343  0  0.983019  0
H  H18  1  0.57730795  0.68185876  0.42700901  1  0.065323  0  0.114839  0.118251  0  0.982861  0
H  H19  1  0.89536229  0.50422957  0.42273149  1  0.101673  0  0.114851  0.118415  0  0.982368  0
H  H20  1  0.60911923  0.18200525  0.89526771  1  0.074745  0  0.114864  0.118388  0  0.982756  0
H  H21  1  0.42717902  0.00452313  0.39083442  1  0.081597  0  0.114786  0.118198  0  0.982983  0
H  H22  1  0.42271232  0.31805016  0.57303302  1  0.091803  0  0.114857  0.118375  0  0.982717  0
H  H23  1  0.10473663  0.49587037  0.57724342  1  0.092545  0  0.114865  0.118479  0  0.982417  0
H  H24  1  0.24105559  0.68558958  0.08905553  1  0.106174  0  0.116001  0.081148  0  1.009073  0
H  H25  1  0.55538737  0.83002555  0.75904300  1  0.104459  0  0.115908  0.081208  0  1.008866  0
H  H26  1  0.72527310  0.81436501  0.44444900  1  0.086028  0  0.116132  0.081423  0  1.00888  0
H  H27  1  0.91093990  0.66969511  0.27471857  1  0.064164  0  0.116096  0.081435  0  1.009012  0
H  H28  1  0.75894693  0.31443179  0.91088950  1  0.106618  0  0.116074  0.081392  0  1.008743  0
H  H29  1  0.44452734  0.16990844  0.24097717  1  0.103881  0  0.115999  0.081163  0  1.009213  0
H  H30  1  0.27472040  0.18559317  0.55558446  1  0.098697  0  0.11616  0.081444  0  1.009035  0
H  H31  1  0.08912212  0.33037161  0.72525780  1  0.064227  0  0.116085  0.081446  0  1.008886  0
Pb  Pb32  1  0.67064614  0.69052196  0.83816070  1  1.502499  0  0.665977  1.019539  0  2.352268  0
Pb  Pb33  1  0.98012783  0.00878733  0.32930079  1  1.502377  0  0.665347  1.018844  0  2.349812  0
Pb  Pb34  1  0.97140005  0.80943046  0.01986674  1  1.501579  0  0.665174  1.018495  0  2.34907  0
Pb  Pb35  1  0.16187775  0.49122221  0.02858659  1  1.503373  0  0.665601  1.019261  0  2.350843  0
Pb  Pb36  1  0.32931116  0.30947133  0.16187505  1  1.502639  0  0.666175  1.019843  0  2.35309  0
Pb  Pb37  1  0.01988702  0.99123766  0.67072837  1  1.502749  0  0.665655  1.019209  0  2.351453  0
Pb  Pb38  1  0.02858292  0.19056148  0.98014879  1  1.501867  0  0.665411  1.018935  0  2.34977  0
Pb  Pb39  1  0.83806490  0.50873493  0.97141598  1  1.504092  0  0.665884  1.01962  0  2.352322  0
C  C40  1  0.48485773  0.49147240  0.83794572  1  1.585183  0  0.208257  0.522254  0  4.269358  0
C  C41  1  0.99337243  0.82277438  0.51517642  1  1.584949  0  0.208428  0.522987  0  4.268814  0
C  C42  1  0.17074660  0.00859295  0.00654362  1  1.582934  0  0.208253  0.522683  0  4.270356  0
C  C43  1  0.16214680  0.67729426  0.82925616  1  1.585367  0  0.208458  0.522959  0  4.269718  0
C  C44  1  0.51513990  0.50851910  0.16204814  1  1.584411  0  0.20825  0.522548  0  4.26945  0
C  C45  1  0.00664458  0.17724527  0.48485528  1  1.585294  0  0.208225  0.522499  0  4.268687  0
C  C46  1  0.82927017  0.99143440  0.99343552  1  1.582733  0  0.208374  0.522896  0  4.270171  0
C  C47  1  0.83781902  0.32270676  0.17071968  1  1.584302  0  0.208428  0.522892  0  4.269691  0
C  C48  1  0.43028678  0.52199383  0.88129275  1  0.430309  0  0.085667  -0.00778  0  4.009337  0
C  C49  1  0.90831644  0.81157706  0.56979332  1  0.457771  0  0.085676  -0.00792  0  4.009322  0
C  C50  1  0.09688591  0.97812541  0.09162866  1  0.415582  0  0.085536  -0.008052  0  4.008559  0
C  C51  1  0.11878740  0.68850591  0.90315029  1  0.434734  0  0.085398  -0.008346  0  4.008827  0
C  C52  1  0.56967612  0.47796319  0.11872198  1  0.429721  0  0.085625  -0.007768  0  4.009918  0
C  C53  1  0.09172270  0.18845599  0.43026156  1  0.362506  0  0.085766  -0.007502  0  4.008797  0
C  C54  1  0.90314648  0.02191579  0.90836185  1  0.415191  0  0.085431  -0.008402  0  4.008721  0
C  C55  1  0.88113866  0.31145120  0.09684372  1  0.430022  0  0.085298  -0.008468  0  4.009359  0
C  C56  1  0.32743433  0.47794656  0.91064994  1  0.451828  0  0.095944  0.018719  0  3.964212  0
C  C57  1  0.84953713  0.73809834  0.67267436  1  0.4149  0  0.095797  0.018669  0  3.963329  0
C  C58  1  0.11157432  0.02227483  0.15035551  1  0.442357  0  0.09573  0.018572  0  3.963432  0
C  C59  1  0.08939423  0.76194820  0.88846513  1  0.466724  0  0.096128  0.019162  0  3.963689  0
C  C60  1  0.67251411  0.52196755  0.08940443  1  0.452256  0  0.096213  0.019135  0  3.963544  0
C  C61  1  0.15050115  0.26192622  0.32738889  1  0.509252  0  0.095691  0.018419  0  3.964099  0
C  C62  1  0.88846056  0.97777408  0.84963484  1  0.442699  0  0.095896  0.01872  0  3.963662  0
C  C63  1  0.91055019  0.23803267  0.11152061  1  0.469364  0  0.096154  0.01937  0  3.963845  0
C  C64  1  0.40369025  0.60778223  0.93959825  1  0.994741  0  0.215657  0.246416  0  4.059809  0
C  C65  1  0.79590767  0.84325543  0.59640175  1  0.98951  0  0.215818  0.246369  0  4.059786  0
C  C66  1  0.95277895  0.89235593  0.20401302  1  0.997428  0  0.215837  0.246699  0  4.060091  0
C  C67  1  0.06044792  0.65673815  0.04727731  1  0.990187  0  0.215482  0.246487  0  4.059542  0
C  C68  1  0.59627399  0.39218109  0.06039612  1  0.993697  0  0.215773  0.246378  0  4.058953  0
C  C69  1  0.20410852  0.15676375  0.40364650  1  0.989819  0  0.21556  0.246415  0  4.059253  0
C  C70  1  0.04725851  0.10769314  0.79598532  1  0.995975  0  0.215589  0.246154  0  4.05931  0
C  C71  1  0.93951643  0.34326962  0.95269692  1  0.991251  0  0.215735  0.246806  0  4.059736  0
C  C72  1  0.23536813  0.38233259  0.92203447  1  1.547069  0  0.22441  0.544067  0  4.213994  0
C  C73  1  0.85312253  0.65746084  0.76475808  1  1.54708  0  0.224387  0.543728  0  4.213243  0
C  C74  1  0.19580844  0.11795705  0.14672467  1  1.555127  0  0.224391  0.543875  0  4.213795  0
C  C75  1  0.07799773  0.84259994  0.80422431  1  1.541996  0  0.224055  0.543725  0  4.21411  0
C  C76  1  0.76460117  0.61757685  0.07803052  1  1.547921  0  0.224006  0.543565  0  4.213816  0
C  C77  1  0.14690356  0.34254311  0.23531480  1  1.546978  0  0.224274  0.5435  0  4.213067  0
C  C78  1  0.80423117  0.88211151  0.85323230  1  1.554117  0  0.224326  0.543789  0  4.214189  0
C  C79  1  0.92196277  0.15738693  0.19574771  1  1.543416  0  0.224095  0.543732  0  4.213368  0
C  C80  1  0.40815213  0.67160550  0.98151553  1  0.440024  0  0.128235  0.159218  0  3.994951  0
C  C81  1  0.73653846  0.88961930  0.59193029  1  0.456401  0  0.128362  0.159545  0  3.994442  0
C  C82  1  0.84701780  0.82848185  0.26337287  1  0.457995  0  0.128167  0.158986  0  3.995555  0
C  C83  1  0.01852350  0.61029582  0.15304942  1  0.442679  0  0.128104  0.158943  0  3.995097  0
C  C84  1  0.59181452  0.32838249  0.01844941  1  0.440658  0  0.128282  0.159663  0  3.994663  0
C  C85  1  0.26347150  0.11037473  0.40810052  1  0.458514  0  0.128377  0.159309  0  3.99441  0
C  C86  1  0.15302747  0.17154965  0.73663014  1  0.463482  0  0.128163  0.159397  0  3.994336  0
C  C87  1  0.98147412  0.38973542  0.84693005  1  0.443162  0  0.128011  0.158845  0  3.994827  0
C  C88  1  0.49516583  0.74399699  0.98776087  1  0.054492  0  -0.070889  -0.139561  0  3.88762  0
C  C89  1  0.75112500  0.98283430  0.50491798  1  0.009756  0  -0.070915  -0.139539  0  3.888082  0
C  C90  1  0.76842996  0.75606903  0.24873818  1  0.086772  0  -0.070851  -0.13919  0  3.887593  0
C  C91  1  0.01226378  0.51702144  0.23164038  1  0.036774  0  -0.070736  -0.139167  0  3.88778  0
C  C92  1  0.50482553  0.25604744  0.01215161  1  0.056504  0  -0.070914  -0.139855  0  3.888259  0
C  C93  1  0.24885244  0.01712857  0.49511906  1  0.013478  0  -0.070789  -0.139183  0  3.887357  0
C  C94  1  0.23162159  0.24389336  0.75130844  1  0.071184  0  -0.070851  -0.139654  0  3.88706  0
C  C95  1  0.98774314  0.48300573  0.76833827  1  0.036454  0  -0.070782  -0.139298  0  3.887905  0
C  C96  1  0.49013849  0.79726450  0.03276138  1  -0.071282  0  -0.050397  0.00042  0  3.912354  0
C  C97  1  0.69282346  0.02279370  0.50991839  1  -0.05017  0  -0.050562  0.000358  0  3.913187  0
C  C98  1  0.67011220  0.70275228  0.30700007  1  -0.094775  0  -0.050697  5.9e-05  0  3.913356  0
C  C99  1  0.96723663  0.47696568  0.32996171  1  -0.018175  0  -0.050843  -0.000491  0  3.913092  0
C  C100  1  0.50986285  0.20280588  0.96713617  1  -0.074184  0  -0.050459  0.000703  0  3.912306  0
C  C101  1  0.30713214  0.97714493  0.49009381  1  -0.056219  0  -0.050571  7.3e-05  0  3.912564  0
C  C102  1  0.32993965  0.29718011  0.69303880  1  -0.082569  0  -0.050649  0.000368  0  3.912168  0
C  C103  1  0.03280747  0.52309425  0.67001566  1  -0.017894  0  -0.050739  0.000533  0  3.913001  0
C  C104  1  0.39842268  0.77796759  0.06928638  1  0.027567  0  -0.080945  -0.137893  0  3.981898  0
C  C105  1  0.62038428  0.96760485  0.60163467  1  0.027055  0  -0.080921  -0.138265  0  3.98195  0
C  C106  1  0.65277684  0.72199110  0.37942625  1  0.006901  0  -0.080631  -0.137652  0  3.982018  0
C  C107  1  0.93070709  0.53209598  0.34726159  1  -0.035426  0  -0.080499  -0.137812  0  3.98152  0
C  C108  1  0.60156690  0.22207417  0.93063188  1  0.02707  0  -0.08068  -0.138021  0  3.980925  0
C  C109  1  0.37955153  0.03233971  0.39835880  1  0.028927  0  -0.080745  -0.138049  0  3.981995  0
C  C110  1  0.34724780  0.27793935  0.62061326  1  -0.019156  0  -0.080694  -0.138105  0  3.98207  0
C  C111  1  0.06935504  0.46798582  0.65271088  1  -0.049596  0  -0.080534  -0.138041  0  3.981625  0
C  C112  1  0.31456490  0.70419803  0.06091757  1  0.437889  0  0.053968  0.098304  0  3.976695  0
C  C113  1  0.61031770  0.87540354  0.68551161  1  0.455695  0  0.054247  0.098671  0  3.976019  0
C  C114  1  0.73488555  0.79578990  0.38953646  1  0.47378  0  0.053918  0.097866  0  3.977134  0
C  C115  1  0.93908347  0.62435681  0.26514068  1  0.491104  0  0.053853  0.097921  0  3.976768  0
C  C116  1  0.68542996  0.29582740  0.93903393  1  0.43612  0  0.053833  0.097969  0  3.976359  0
C  C117  1  0.38963905  0.12455504  0.31449189  1  0.456298  0  0.054013  0.098535  0  3.976727  0
C  C118  1  0.26513568  0.20417997  0.61048385  1  0.460077  0  0.053949  0.098135  0  3.97722  0
C  C119  1  0.06095711  0.37570013  0.73484608  1  0.514927  0  0.054099  0.098028  0  3.976963  0
N  N120  1  0.47694885  0.60375534  0.90035876  1  -1.166019  0  -0.302564  -0.371011  0  3.342997  0
N  N121  1  0.87318026  0.87724927  0.52314575  1  -1.150086  0  -0.302615  -0.370931  0  3.342235  0
N  N122  1  0.99606788  0.89632132  0.12678005  1  -1.157158  0  -0.302414  -0.370775  0  3.341544  0
N  N123  1  0.09972909  0.62277267  0.00398243  1  -1.172935  0  -0.302424  -0.370854  0  3.341488  0
N  N124  1  0.52302599  0.39624208  0.09961606  1  -1.165169  0  -0.302511  -0.371091  0  3.342768  0
N  N125  1  0.12683555  0.12275026  0.47693084  1  -1.150105  0  -0.302474  -0.371103  0  3.341904  0
N  N126  1  0.00396576  0.10372004  0.87322517  1  -1.1568  0  -0.302367  -0.370539  0  3.341277  0
N  N127  1  0.90022075  0.37719721  0.99600543  1  -1.174465  0  -0.302484  -0.37084  0  3.342036  0
N  N128  1  0.31435520  0.53438723  0.94499761  1  -1.227744  0  -0.319563  -0.315617  0  3.520977  0
N  N129  1  0.77999394  0.75935448  0.68574322  1  -1.225709  0  -0.319712  -0.315695  0  3.520865  0
N  N130  1  0.02075197  0.96582537  0.21989137  1  -1.217955  0  -0.319807  -0.315837  0  3.520341  0
N  N131  1  0.05501158  0.74063657  0.97929538  1  -1.231552  0  -0.319477  -0.315828  0  3.51996  0
N  N132  1  0.68560438  0.46553774  0.05503763  1  -1.227031  0  -0.319709  -0.315757  0  3.52024  0
N  N133  1  0.22002714  0.24065937  0.31429688  1  -1.225316  0  -0.319516  -0.315617  0  3.52106  0
N  N134  1  0.97928018  0.03421316  0.78010783  1  -1.217552  0  -0.319614  -0.315447  0  3.520211  0
N  N135  1  0.94495156  0.25936916  0.02068265  1  -1.231371  0  -0.319461  -0.316104  0  3.520108  0
N  N136  1  0.31871710  0.65178711  0.01882172  1  -1.21927  0  -0.288247  -0.262301  0  3.411363  0
N  N137  1  0.66690847  0.83747765  0.68137885  1  -1.212639  0  -0.288248  -0.262647  0  3.411187  0
N  N138  1  0.82942652  0.84824010  0.33300178  1  -1.225814  0  -0.288142  -0.261836  0  3.411495  0
N  N139  1  0.98120838  0.66237826  0.17059758  1  -1.227875  0  -0.287958  -0.261763  0  3.410812  0
N  N140  1  0.68126415  0.34820467  0.98115985  1  -1.218839  0  -0.288156  -0.262326  0  3.411505  0
N  N141  1  0.33308050  0.16249294  0.31866169  1  -1.213787  0  -0.288283  -0.262456  0  3.411795  0
N  N142  1  0.17059264  0.15176966  0.66700480  1  -1.22503  0  -0.288163  -0.262087  0  3.411157  0
N  N143  1  0.01881188  0.33765538  0.82938886  1  -1.228119  0  -0.288034  -0.261924  0  3.410569  0
O  O144  1  0.57975190  0.53804819  0.82379943  1  -1.057553  0  -0.269219  -0.472249  0  2.159724  0
O  O145  1  0.04162773  0.90344107  0.42027146  1  -1.06667  0  -0.269665  -0.472787  0  2.160012  0
O  O146  1  0.13830077  0.96193505  0.95830354  1  -1.057991  0  -0.269389  -0.472591  0  2.160135  0
O  O147  1  0.17626629  0.59652631  0.86172017  1  -1.059375  0  -0.269655  -0.472725  0  2.159444  0
O  O148  1  0.42025203  0.46197615  0.17617304  1  -1.057297  0  -0.269125  -0.47228  0  2.159808  0
O  O149  1  0.95834579  0.09651534  0.57977795  1  -1.064932  0  -0.269443  -0.472415  0  2.159375  0
O  O150  1  0.86169820  0.03806698  0.04171101  1  -1.057542  0  -0.26933  -0.472536  0  2.160046  0
O  O151  1  0.82375840  0.40352305  0.13822920  1  -1.058045  0  -0.269316  -0.472349  0  2.159642  0
O  O152  1  0.44133934  0.42293544  0.81500426  1  -1.030731  0  -0.252381  -0.404161  0  2.008888  0
O  O153  1  0.01838571  0.75630417  0.55872794  1  -1.022401  0  -0.252455  -0.404504  0  2.008151  0
O  O154  1  0.26224565  0.07717213  0.98149251  1  -1.023104  0  -0.252689  -0.404792  0  2.009692  0
O  O155  1  0.18511496  0.74377277  0.73776415  1  -1.031125  0  -0.252625  -0.404677  0  2.010091  0
O  O156  1  0.55866148  0.57704884  0.18499017  1  -1.030556  0  -0.252344  -0.404284  0  2.009023  0
O  O157  1  0.98162299  0.24369834  0.44133133  1  -1.02432  0  -0.252359  -0.404368  0  2.008709  0
O  O158  1  0.73776774  0.92287234  0.01846885  1  -1.022599  0  -0.252677  -0.404781  0  2.009392  0
O  O159  1  0.81482625  0.25623086  0.26222380  1  -1.030753  0  -0.252814  -0.404851  0  2.009666  0
O  O160  1  0.23587314  0.32477490  0.89096043  1  -1.069257  0  -0.245934  -0.453037  0  2.158864  0
O  O161  1  0.91130072  0.62703656  0.76424312  1  -1.067766  0  -0.245763  -0.452728  0  2.158676  0
O  O162  1  0.28443155  0.17566398  0.08853525  1  -1.079486  0  -0.245657  -0.452679  0  2.159288  0
O  O163  1  0.10907291  0.87319507  0.71558213  1  -1.068  0  -0.24585  -0.453073  0  2.159865  0
O  O164  1  0.76408857  0.67509933  0.10914035  1  -1.069535  0  -0.245676  -0.452779  0  2.158737  0
O  O165  1  0.08874604  0.37299807  0.23581565  1  -1.068806  0  -0.245731  -0.452433  0  2.158432  0
O  O166  1  0.71559998  0.82443284  0.91139453  1  -1.078864  0  -0.245614  -0.452726  0  2.159296  0
O  O167  1  0.89087577  0.12678817  0.28438950  1  -1.067562  0  -0.245963  -0.453216  0  2.159059  0
O  O168  1  0.15377724  0.36138396  0.97015119  1  -1.113963  0  -0.262904  -0.508374  0  2.2743  0
O  O169  1  0.79238358  0.62388142  0.84634009  1  -1.114908  0  -0.262933  -0.507957  0  2.273957  0
O  O170  1  0.16861111  0.13880623  0.20744550  1  -1.113749  0  -0.262753  -0.508183  0  2.273874  0
O  O171  1  0.02985015  0.87602255  0.83144647  1  -1.112187  0  -0.26279  -0.508065  0  2.273549  0
O  O172  1  0.84619518  0.63853758  0.02988015  1  -1.114065  0  -0.263038  -0.508369  0  2.273596  0
O  O173  1  0.20762436  0.37610287  0.15370308  1  -1.113771  0  -0.263016  -0.508138  0  2.273072  0
O  O174  1  0.83141873  0.86126340  0.79252473  1  -1.113396  0  -0.262882  -0.50818  0  2.274084  0
O  O175  1  0.97014432  0.12399675  0.16852772  1  -1.112809  0  -0.262905  -0.508126  0  2.273329  0
