# generated using pymatgen
data_MnH12C18N2(O3F2)2
_symmetry_space_group_name_H-M   'P 1'
_cell_length_a   6.99999406
_cell_length_b   7.81468059
_cell_length_c   8.37462922
_cell_angle_alpha   92.65370403
_cell_angle_beta   108.63700643
_cell_angle_gamma   89.94963104
_symmetry_Int_Tables_number   1
_chemical_formula_structural   MnH12C18N2(O3F2)2
_chemical_formula_sum   'Mn1 H12 C18 N2 O6 F4'
_cell_volume   433.58005068
_cell_formula_units_Z   1
loop_
 _symmetry_equiv_pos_site_id
 _symmetry_equiv_pos_as_xyz
  1  'x, y, z'
loop_
 _atom_site_type_symbol
 _atom_site_label
 _atom_site_symmetry_multiplicity
 _atom_site_fract_x
 _atom_site_fract_y
 _atom_site_fract_z
 _atom_site_occupancy
 _atom_site_pbe_cm5_charge
 _atom_site_pbe_ddec_charge
 _atom_site_pbe_ddec_spin_density
 _atom_site_pbe_ddec_sum_bond_order
 _atom_site_pbe_magmom
Mn  Mn0  1  0.00000817  0.00000864  0.00000125  1  0.591575  0.933613  4.697497  2.285304  4.495
H  H1  1  0.12302237  0.97866448  0.39849602  1  0.113722  0.082218  0.000327  1.034188  0.0
H  H2  1  0.87700369  0.02133189  0.60150408  1  0.113775  0.082299  0.000327  1.034252  0.0
H  H3  1  0.13052951  0.77632791  0.61618913  1  0.108877  0.117895  0.000133  1.027994  0.0
H  H4  1  0.86953253  0.22366283  0.38380150  1  0.108794  0.117896  0.000133  1.028118  0.0
H  H5  1  0.87623364  0.39304857  0.21241722  1  0.111232  0.126615  -0.000103  1.014885  0.0
H  H6  1  0.12373324  0.60696567  0.78757560  1  0.111209  0.126544  -0.000103  1.014909  0.0
H  H7  1  0.87444227  0.61387586  0.01367849  1  0.113136  0.078371  0.000472  1.037826  0.001
H  H8  1  0.12551142  0.38614405  0.98631208  1  0.1132  0.078364  0.000471  1.037791  0.001
H  H9  1  0.61820873  0.04941742  0.91140275  1  0.290177  0.370499  0.001122  0.977281  0.001
H  H10  1  0.38178856  0.95057898  0.08859908  1  0.290162  0.370485  0.001123  0.977308  0.001
H  H11  1  0.65982336  0.13121602  0.09462317  1  0.296939  0.393497  0.001724  0.937858  0.003
H  H12  1  0.34017057  0.86877535  0.90537642  1  0.296948  0.393587  0.001724  0.937746  0.003
C  C13  1  0.06622282  0.84799745  0.36247771  1  0.046251  0.094705  0.004239  3.941933  0.004
C  C14  1  0.93379290  0.15200185  0.63751727  1  0.046051  0.094384  0.00424  3.942178  0.004
C  C15  1  0.07000974  0.73232420  0.48455125  1  -0.082065  -0.169767  0.000456  3.946846  0.001
C  C16  1  0.93001177  0.26767090  0.51543922  1  -0.081843  -0.169551  0.000456  3.946938  0.0
C  C17  1  0.99962372  0.56338084  0.43673537  1  0.008633  0.090816  0.003072  3.971894  0.002
C  C18  1  0.00038429  0.43661617  0.56325626  1  0.008621  0.090756  0.003073  3.972172  0.002
C  C19  1  0.92992295  0.52120547  0.26258235  1  -0.079888  -0.163668  0.000346  3.927994  0.0
C  C20  1  0.07007062  0.47880117  0.73741038  1  -0.079831  -0.163564  0.000346  3.928034  0.0
C  C21  1  0.92950859  0.64507042  0.14877820  1  0.048351  0.099263  0.00422  3.940824  0.004
C  C22  1  0.07047479  0.35494183  0.85121548  1  0.04826  0.099282  0.00422  3.94071  0.004
C  C23  1  0.63333019  0.79422966  0.74135330  1  0.230408  0.630735  0.008507  4.184201  0.007
C  C24  1  0.36666753  0.20577323  0.25865359  1  0.230455  0.630869  0.008507  4.184164  0.007
C  C25  1  0.54120619  0.65580147  0.44656507  1  0.088552  0.153946  0.001407  4.099211  0.001
C  C26  1  0.45880688  0.34418419  0.55344795  1  0.088628  0.154182  0.001408  4.099251  0.001
C  C27  1  0.56486455  0.64180169  0.61696688  1  -0.029797  -0.225072  0.003176  4.054748  0.002
C  C28  1  0.43513374  0.35818839  0.38304223  1  -0.029871  -0.225327  0.003175  4.055122  0.002
C  C29  1  0.52294601  0.48331734  0.66853522  1  0.088368  0.15188  0.001695  4.098312  0.001
C  C30  1  0.47704896  0.51666913  0.33147767  1  0.088526  0.152196  0.001696  4.09838  0.001
N  N31  1  0.99554014  0.80727197  0.19580062  1  -0.314413  -0.246897  0.032928  3.467479  0.017
N  N32  1  0.00444743  0.19273486  0.80418809  1  -0.31438  -0.246752  0.03293  3.467532  0.017
O  O33  1  0.49910386  0.87825179  0.78004981  1  -0.295858  -0.544275  0.003968  2.22013  0.005
O  O34  1  0.50089613  0.12174230  0.21997061  1  -0.295941  -0.544342  0.003969  2.220017  0.005
O  O35  1  0.82194980  0.82475687  0.79460731  1  -0.297196  -0.541677  0.038224  2.279869  0.022
O  O36  1  0.17804399  0.17527262  0.20537411  1  -0.29719  -0.541752  0.038232  2.279941  0.022
O  O37  1  0.71828751  0.12112245  0.00185563  1  -0.579874  -0.766837  0.044799  2.123098  0.029
O  O38  1  0.28170676  0.87887409  0.99814658  1  -0.579884  -0.766928  0.044806  2.122962  0.029
F  F39  1  0.58145020  0.80789913  0.39167329  1  -0.080282  -0.096693  0.000211  1.413443  0.0
F  F40  1  0.41855701  0.19208938  0.60834059  1  -0.080279  -0.096751  0.000212  1.413425  0.0
F  F41  1  0.54322774  0.46453196  0.83321846  1  -0.081089  -0.102462  0.000315  1.417789  0.0
F  F42  1  0.45676252  0.53545216  0.16679548  1  -0.081173  -0.102579  0.000315  1.417835  0.0
