# generated using pymatgen
data_CuH6C3SIN2
_symmetry_space_group_name_H-M   'P 1'
_cell_length_a   7.84881900
_cell_length_b   11.91985033
_cell_length_c   12.54636061
_cell_angle_alpha   68.23430597
_cell_angle_beta   72.97356084
_cell_angle_gamma   88.50819205
_symmetry_Int_Tables_number   1
_chemical_formula_structural   CuH6C3SIN2
_chemical_formula_sum   'Cu6 H36 C18 S6 I6 N12'
_cell_volume   1037.82139493
_cell_formula_units_Z   6
loop_
 _symmetry_equiv_pos_site_id
 _symmetry_equiv_pos_as_xyz
  1  'x, y, z'
loop_
 _atom_site_type_symbol
 _atom_site_label
 _atom_site_symmetry_multiplicity
 _atom_site_fract_x
 _atom_site_fract_y
 _atom_site_fract_z
 _atom_site_occupancy
 _atom_site_hle17_bader_spin_density
 _atom_site_hle17_ddec_charge
 _atom_site_hle17_ddec_spin_density
 _atom_site_hle17_ddec_sum_bond_order
 _atom_site_hle17_magmom
 _atom_site_hse06_10hf_bader_spin_density
 _atom_site_hse06_10hf_ddec_charge
 _atom_site_hse06_10hf_ddec_spin_density
 _atom_site_hse06_10hf_ddec_sum_bond_order
 _atom_site_hse06_10hf_magmom
 _atom_site_hse06_bader_spin_density
 _atom_site_hse06_ddec_charge
 _atom_site_hse06_ddec_spin_density
 _atom_site_hse06_ddec_sum_bond_order
 _atom_site_hse06_magmom
 _atom_site_pbe_bader_spin_density
 _atom_site_pbe_cm5_charge
 _atom_site_pbe_ddec_charge
 _atom_site_pbe_ddec_spin_density
 _atom_site_pbe_ddec_sum_bond_order
 _atom_site_pbe_magmom
Cu  Cu0  1  0.46049018  0.49189963  0.90793582  1  0  0.232946  0  2.292089  0  0  0.181101  0  2.771761  0  0  0.186071  0  2.720892  0  0  0.254751  0.179526  0  2.80476  0
Cu  Cu1  1  0.53951514  0.50809877  0.09206271  1  0  0.232954  0  2.292078  0  0  0.181127  0  2.771744  0  0  0.186074  0  2.720906  0  0  0.254757  0.17955  0  2.804733  0
Cu  Cu2  1  0.65514486  0.69508468  0.74005204  1  0  0.233301  0  2.280943  0  0  0.17484  0  2.76068  0  0  0.182081  0  2.71056  0  0  0.212788  0.171371  0  2.793658  0
Cu  Cu3  1  0.34485088  0.30491183  0.25995208  1  0  0.233265  0  2.280962  0  0  0.174761  0  2.760697  0  0  0.182008  0  2.710569  0  0  0.212788  0.171292  0  2.793684  0
Cu  Cu4  1  0.43834385  0.11869521  0.05193482  1  0  0.264575  0  2.250593  0  0  0.208552  0  2.72426  0  0  0.213598  0  2.678939  0  0  0.236035  0.20656  0  2.754505  0
Cu  Cu5  1  0.56165234  0.88130493  0.94806795  1  0  0.264525  0  2.250612  0  0  0.208484  0  2.724279  0  0  0.213535  0  2.678949  0  0  0.236024  0.206488  0  2.754554  0
H  H6  1  0.11960082  0.63251428  0.95072368  1  0  0.279898  0  0.953163  0  0  0.261912  0  1.023079  0  0  0.269524  0  1.017802  0  0  0.275407  0.256529  0  1.026845  0
H  H7  1  0.88040250  0.36748954  0.04927492  1  0  0.279908  0  0.953244  0  0  0.261933  0  1.023169  0  0  0.269548  0  1.017888  0  0  0.2754  0.256543  0  1.026939  0
H  H8  1  0.06828982  0.48103125  0.30906741  1  0  0.280013  0  0.946669  0  0  0.25899  0  1.022498  0  0  0.267381  0  1.015468  0  0  0.277894  0.252827  0  1.027881  0
H  H9  1  0.93171426  0.51896804  0.69093343  1  0  0.280063  0  0.946661  0  0  0.259002  0  1.022516  0  0  0.267406  0  1.015476  0  0  0.27789  0.252831  0  1.027903  0
H  H10  1  0.98006974  0.84844320  0.57893807  1  0  0.274735  0  0.958452  0  0  0.25466  0  1.033934  0  0  0.263174  0  1.026515  0  0  0.275987  0.248554  0  1.039343  0
H  H11  1  0.01991793  0.15156326  0.42105768  1  0  0.274609  0  0.958353  0  0  0.254546  0  1.033833  0  0  0.263056  0  1.026419  0  0  0.275944  0.248442  0  1.039245  0
H  H12  1  0.93971405  0.98893042  0.83502328  1  0  0.279472  0  0.954521  0  0  0.258087  0  1.031441  0  0  0.266698  0  1.024012  0  0  0.275882  0.25205  0  1.036769  0
H  H13  1  0.06028393  0.01106249  0.16497929  1  0  0.27955  0  0.954503  0  0  0.258163  0  1.031391  0  0  0.266768  0  1.023967  0  0  0.275931  0.252128  0  1.036721  0
H  H14  1  0.61853264  0.12187101  0.80370525  1  0  0.27196  0  0.94965  0  0  0.247227  0  1.033136  0  0  0.256706  0  1.024195  0  0  0.279224  0.240257  0  1.039825  0
H  H15  1  0.38146866  0.87812735  0.19629721  1  0  0.271936  0  0.94966  0  0  0.247202  0  1.033147  0  0  0.256683  0  1.0242  0  0  0.27922  0.240234  0  1.039829  0
H  H16  1  0.57065912  0.48265296  0.66608310  1  0  0.271075  0  0.951191  0  0  0.249675  0  1.031499  0  0  0.258301  0  1.023364  0  0  0.280193  0.243434  0  1.037576  0
H  H17  1  0.42935186  0.51734819  0.33391504  1  0  0.271082  0  0.951237  0  0  0.249661  0  1.031521  0  0  0.2583  0  1.023386  0  0  0.280197  0.243421  0  1.037588  0
H  H18  1  0.81909188  0.69109000  0.07499010  1  0  0.060218  0  0.981528  0  0  0.066803  0  1.061907  0  0  0.067598  0  1.061459  0  0  0.082778  0.065965  0  1.062524  0
H  H19  1  0.18091052  0.30890654  0.92501519  1  0  0.060139  0  0.981503  0  0  0.06674  0  1.061882  0  0  0.067535  0  1.061432  0  0  0.082754  0.065907  0  1.062499  0
H  H20  1  0.00875106  0.79197922  0.04222976  1  0  0.068777  0  0.969096  0  0  0.079617  0  1.035325  0  0  0.08084  0  1.035243  0  0  0.082018  0.078432  0  1.035904  0
H  H21  1  0.99123990  0.20802179  0.95777446  1  0  0.068806  0  0.96918  0  0  0.079663  0  1.035372  0  0  0.08088  0  1.035298  0  0  0.082051  0.078475  0  1.035957  0
H  H22  1  0.99823097  0.71127404  0.24825317  1  0  0.072307  0  0.925947  0  0  0.082343  0  0.992189  0  0  0.083639  0  0.991618  0  0  0.09295  0.081301  0  0.992698  0
H  H23  1  0.00177333  0.28872706  0.75174859  1  0  0.072393  0  0.925859  0  0  0.082415  0  0.992135  0  0  0.083714  0  0.991565  0  0  0.092995  0.081362  0  0.99264  0
H  H24  1  0.80341236  0.61466786  0.28226220  1  0  0.06906  0  0.936302  0  0  0.079228  0  1.004279  0  0  0.080254  0  1.004131  0  0  0.094528  0.078293  0  1.004588  0
H  H25  1  0.19659292  0.38533051  0.71774272  1  0  0.068993  0  0.936356  0  0  0.079189  0  1.004316  0  0  0.08022  0  1.004167  0  0  0.094502  0.078243  0  1.00462  0
H  H26  1  0.30011686  0.88341406  0.58290504  1  0  0.069679  0  0.952424  0  0  0.086209  0  1.012393  0  0  0.087245  0  1.012122  0  0  0.093339  0.085372  0  1.012647  0
H  H27  1  0.69987027  0.11658789  0.41708839  1  0  0.069522  0  0.952444  0  0  0.086094  0  1.012393  0  0  0.087126  0  1.012127  0  0  0.093301  0.085254  0  1.012652  0
H  H28  1  0.23795088  0.03021285  0.50520026  1  0  0.055795  0  0.96718  0  0  0.064889  0  1.041094  0  0  0.065533  0  1.041384  0  0  0.086123  0.064344  0  1.040956  0
H  H29  1  0.76204456  0.96979184  0.49479628  1  0  0.055746  0  0.967244  0  0  0.064844  0  1.041186  0  0  0.065488  0  1.041469  0  0  0.08614  0.064297  0  1.041041  0
H  H30  1  0.25041889  0.07741730  0.67147511  1  0  0.066849  0  0.948713  0  0  0.077851  0  1.017664  0  0  0.079274  0  1.016504  0  0  0.092104  0.076673  0  1.01863  0
H  H31  1  0.74957587  0.92258194  0.32852505  1  0  0.066818  0  0.948807  0  0  0.077817  0  1.017754  0  0  0.07924  0  1.016595  0  0  0.092081  0.076639  0  1.018717  0
H  H32  1  0.25646631  0.92147085  0.76148080  1  0  0.064696  0  0.944063  0  0  0.077766  0  1.010005  0  0  0.078504  0  1.010166  0  0  0.086819  0.076903  0  1.01038  0
H  H33  1  0.74353070  0.07852481  0.23851382  1  0  0.064736  0  0.944023  0  0  0.077793  0  1.009975  0  0  0.078534  0  1.010135  0  0  0.086831  0.076931  0  1.010351  0
H  H34  1  0.52371294  0.18473069  0.61288576  1  0  0.062406  0  0.926361  0  0  0.076675  0  0.99156  0  0  0.077847  0  0.990912  0  0  0.097396  0.075685  0  0.992072  0
H  H35  1  0.47628603  0.81527038  0.38711538  1  0  0.062433  0  0.92627  0  0  0.076685  0  0.99152  0  0  0.077856  0  0.990871  0  0  0.097422  0.075693  0  0.992033  0
H  H36  1  0.76388746  0.19651022  0.56886078  1  0  0.069356  0  0.946528  0  0  0.082897  0  1.012046  0  0  0.083762  0  1.012176  0  0  0.094343  0.082154  0  1.011918  0
H  H37  1  0.23611629  0.80348635  0.43114107  1  0  0.069331  0  0.946551  0  0  0.082878  0  1.012087  0  0  0.08374  0  1.012215  0  0  0.094344  0.082133  0  1.011952  0
H  H38  1  0.78565701  0.41145403  0.51246482  1  0  0.061188  0  0.948855  0  0  0.069055  0  1.023619  0  0  0.070714  0  1.022609  0  0  0.084761  0.067629  0  1.024621  0
H  H39  1  0.21435207  0.58854256  0.48753764  1  0  0.061193  0  0.948925  0  0  0.069042  0  1.023711  0  0  0.070723  0  1.022683  0  0  0.084746  0.067614  0  1.02471  0
H  H40  1  0.56661773  0.39877875  0.49852947  1  0  0.068731  0  0.952977  0  0  0.082335  0  1.019253  0  0  0.083139  0  1.019317  0  0  0.093553  0.081508  0  1.019519  0
H  H41  1  0.43339024  0.60121966  0.50147017  1  0  0.0687  0  0.952946  0  0  0.082308  0  1.019219  0  0  0.083111  0  1.019297  0  0  0.093579  0.081501  0  1.019466  0
C  C42  1  0.11929026  0.53264476  0.12516643  1  0  0.448315  0  3.826979  0  0  0.40482  0  4.1182  0  0  0.430085  0  4.126852  0  0  0.239445  0.387709  0  4.112029  0
C  C43  1  0.88071406  0.46735635  0.87483213  1  0  0.448288  0  3.827108  0  0  0.404798  0  4.118344  0  0  0.430068  0  4.126995  0  0  0.239402  0.38768  0  4.112178  0
C  C44  1  0.95057068  0.69727492  0.08778758  1  0  0.031674  0  3.566495  0  0  -0.018248  0  3.807246  0  0  -0.014831  0  3.818357  0  0  -0.062725  -0.020317  0  3.799795  0
C  C45  1  0.04943060  0.30272342  0.91221888  1  0  0.031775  0  3.56648  0  0  -0.018146  0  3.807291  0  0  -0.014727  0  3.818413  0  0  -0.06274  -0.020229  0  3.799817  0
C  C46  1  0.94114225  0.64539005  0.22269402  1  0  0.047733  0  3.549676  0  0  -0.004184  0  3.798251  0  0  -0.000216  0  3.808457  0  0  -0.054637  -0.006704  0  3.791273  0
C  C47  1  0.05886338  0.35461105  0.77730909  1  0  0.047746  0  3.54986  0  0  -0.004215  0  3.798505  0  0  -0.000264  0  3.808731  0  0  -0.054647  -0.006687  0  3.791463  0
C  C48  1  0.90795013  0.91813415  0.71314820  1  0  0.45245  0  3.791015  0  0  0.410727  0  4.083236  0  0  0.437049  0  4.089602  0  0  0.240809  0.393048  0  4.078382  0
C  C49  1  0.09204387  0.08186964  0.28684732  1  0  0.4525  0  3.791173  0  0  0.410614  0  4.083567  0  0  0.436935  0  4.089933  0  0  0.240775  0.392937  0  4.078704  0
C  C50  1  0.20327004  0.95030974  0.59043503  1  0  0.03386  0  3.584067  0  0  -0.016927  0  3.827399  0  0  -0.013799  0  3.838877  0  0  -0.059531  -0.018991  0  3.819674  0
C  C51  1  0.79671986  0.04969312  0.40955917  1  0  0.034115  0  3.58407  0  0  -0.016722  0  3.827424  0  0  -0.013588  0  3.8389  0  0  -0.059522  -0.018773  0  3.819689  0
C  C52  1  0.19178230  0.98466373  0.69923516  1  0  0.036437  0  3.58629  0  0  -0.01807  0  3.836316  0  0  -0.01449  0  3.847022  0  0  -0.061458  -0.020422  0  3.829397  0
C  C53  1  0.80821236  0.01533462  0.30076293  1  0  0.036482  0  3.586458  0  0  -0.018027  0  3.836467  0  0  -0.014447  0  3.847165  0  0  -0.061359  -0.020378  0  3.829544  0
C  C54  1  0.58271290  0.30291742  0.76712252  1  0  0.452506  0  3.785766  0  0  0.412801  0  4.073353  0  0  0.439967  0  4.079126  0  0  0.240156  0.394648  0  4.068839  0
C  C55  1  0.41729252  0.69708188  0.23287647  1  0  0.452555  0  3.785663  0  0  0.41281  0  4.073298  0  0  0.439971  0  4.079072  0  0  0.240135  0.39466  0  4.068774  0
C  C56  1  0.64369011  0.22938292  0.61440798  1  0  0.04062  0  3.594385  0  0  -0.017291  0  3.855434  0  0  -0.013763  0  3.866516  0  0  -0.055861  -0.019255  0  3.847271  0
C  C57  1  0.35631241  0.77061454  0.38559457  1  0  0.040715  0  3.594322  0  0  -0.017255  0  3.855484  0  0  -0.013723  0  3.866565  0  0  -0.055848  -0.019224  0  3.847334  0
C  C58  1  0.64775268  0.36853057  0.55999608  1  0  0.030639  0  3.601631  0  0  -0.026655  0  3.861063  0  0  -0.022825  0  3.870915  0  0  -0.062851  -0.029021  0  3.854413  0
C  C59  1  0.35225008  0.63146872  0.44000341  1  0  0.030631  0  3.601777  0  0  -0.026623  0  3.861172  0  0  -0.022818  0  3.871024  0  0  -0.062917  -0.029003  0  3.854512  0
S  S60  1  0.25079907  0.42093664  0.10000820  1  0  -0.337121  0  2.82863  0  0  -0.31285  0  3.320196  0  0  -0.316857  0  3.28443  0  0  -0.234855  -0.31103  0  3.344089  0
S  S61  1  0.74920534  0.57906537  0.89999323  1  0  -0.337161  0  2.828692  0  0  -0.31291  0  3.320313  0  0  -0.316907  0  3.284524  0  0  -0.234876  -0.311093  0  3.344206  0
S  S62  1  0.67997157  0.88211198  0.76097344  1  0  -0.362658  0  2.619471  0  0  -0.342353  0  3.087482  0  0  -0.34882  0  3.055074  0  0  -0.22818  -0.338501  0  3.108838  0
S  S63  1  0.32001853  0.11789267  0.23902568  1  0  -0.362736  0  2.619768  0  0  -0.342353  0  3.08779  0  0  -0.348821  0  3.055382  0  0  -0.228214  -0.338506  0  3.109131  0
S  S64  1  0.53472994  0.30666131  0.90676452  1  0  -0.336211  0  2.781972  0  0  -0.322636  0  3.272471  0  0  -0.329206  0  3.240263  0  0  -0.224671  -0.318974  0  3.293891  0
S  S65  1  0.46527147  0.69333796  0.09323761  1  0  -0.336165  0  2.782001  0  0  -0.322575  0  3.27252  0  0  -0.329143  0  3.240311  0  0  -0.224627  -0.31891  0  3.293942  0
I  I66  1  0.32337974  0.64566533  0.75051115  1  0  -0.383193  0  1.520074  0  0  -0.336255  0  1.921203  0  0  -0.350415  0  1.887772  0  0  -0.177141  -0.326169  0  1.943589  0
I  I67  1  0.67661658  0.35433573  0.24948889  1  0  -0.383186  0  1.520106  0  0  -0.336244  0  1.921214  0  0  -0.350399  0  1.887789  0  0  -0.177138  -0.326155  0  1.943594  0
I  I68  1  0.83614193  0.69277389  0.52600577  1  0  -0.5123  0  1.163495  0  0  -0.458495  0  1.50055  0  0  -0.474262  0  1.472406  0  0  -0.228171  -0.446456  0  1.519738  0
I  I69  1  0.16385380  0.30722262  0.47399994  1  0  -0.512279  0  1.163475  0  0  -0.458487  0  1.500541  0  0  -0.47424  0  1.472373  0  0  -0.228167  -0.446449  0  1.519738  0
I  I70  1  0.26347663  0.00144684  0.96708264  1  0  -0.456967  0  1.541423  0  0  -0.397489  0  1.937433  0  0  -0.413599  0  1.904672  0  0  -0.198515  -0.386387  0  1.960727  0
I  I71  1  0.73652012  0.99855784  0.03291845  1  0  -0.457001  0  1.541446  0  0  -0.397504  0  1.937447  0  0  -0.413621  0  1.904689  0  0  -0.198528  -0.386402  0  1.96074  0
N  N72  1  0.06804587  0.61840868  0.04016638  1  0  -0.380964  0  3.330372  0  0  -0.315305  0  3.563553  0  0  -0.335936  0  3.576114  0  0  -0.416086  -0.301492  0  3.5549  0
N  N73  1  0.93196266  0.38159425  0.95983397  1  0  -0.381033  0  3.330513  0  0  -0.315453  0  3.563794  0  0  -0.33609  0  3.57635  0  0  -0.416048  -0.301626  0  3.555137  0
N  N74  1  0.04993554  0.54216689  0.23161574  1  0  -0.397522  0  3.334358  0  0  -0.331554  0  3.568524  0  0  -0.352189  0  3.580044  0  0  -0.418984  -0.317844  0  3.561151  0
N  N75  1  0.95007777  0.45783155  0.76838372  1  0  -0.397601  0  3.334661  0  0  -0.331534  0  3.568777  0  0  -0.352181  0  3.580283  0  0  -0.418961  -0.317824  0  3.561408  0
N  N76  1  0.02073926  0.89768077  0.62034193  1  0  -0.395963  0  3.320585  0  0  -0.333056  0  3.561049  0  0  -0.352452  0  3.570146  0  0  -0.423215  -0.32002  0  3.554826  0
N  N77  1  0.97924876  0.10232844  0.37964961  1  0  -0.395799  0  3.32021  0  0  -0.332858  0  3.560748  0  0  -0.352249  0  3.569846  0  0  -0.423149  -0.319828  0  3.554525  0
N  N78  1  0.99804979  0.97476102  0.75716450  1  0  -0.390041  0  3.292247  0  0  -0.325445  0  3.530665  0  0  -0.344487  0  3.538824  0  0  -0.418069  -0.312812  0  3.525275  0
N  N79  1  0.00194742  0.02523642  0.24283584  1  0  -0.390231  0  3.292468  0  0  -0.325545  0  3.5309  0  0  -0.344581  0  3.539055  0  0  -0.418162  -0.312915  0  3.525506  0
N  N80  1  0.63770827  0.20708162  0.73845005  1  0  -0.393633  0  3.286458  0  0  -0.330159  0  3.527788  0  0  -0.349855  0  3.536262  0  0  -0.420767  -0.316875  0  3.52181  0
N  N81  1  0.36229426  0.79291585  0.26155091  1  0  -0.393703  0  3.286357  0  0  -0.330171  0  3.527679  0  0  -0.349866  0  3.536152  0  0  -0.420804  -0.316899  0  3.521714  0
N  N82  1  0.57210786  0.39613853  0.66819543  1  0  -0.404638  0  3.29279  0  0  -0.342032  0  3.532929  0  0  -0.36092  0  3.540297  0  0  -0.423562  -0.329442  0  3.528135  0
N  N83  1  0.42790024  0.60386079  0.33180307  1  0  -0.40467  0  3.292896  0  0  -0.342007  0  3.533073  0  0  -0.360915  0  3.540415  0  0  -0.42351  -0.329416  0  3.528274  0
