# generated using pymatgen
data_NaH7C5O4
_symmetry_space_group_name_H-M   'P 1'
_cell_length_a   5.24855645
_cell_length_b   6.90987973
_cell_length_c   18.54565483
_cell_angle_alpha   90.00268111
_cell_angle_beta   90.00126132
_cell_angle_gamma   110.28858944
_symmetry_Int_Tables_number   1
_chemical_formula_structural   NaH7C5O4
_chemical_formula_sum   'Na4 H28 C20 O16'
_cell_volume   630.86426525
_cell_formula_units_Z   4
loop_
 _symmetry_equiv_pos_site_id
 _symmetry_equiv_pos_as_xyz
  1  'x, y, z'
loop_
 _atom_site_type_symbol
 _atom_site_label
 _atom_site_symmetry_multiplicity
 _atom_site_fract_x
 _atom_site_fract_y
 _atom_site_fract_z
 _atom_site_occupancy
 _atom_site_hle17_bader_spin_density
 _atom_site_hle17_ddec_charge
 _atom_site_hle17_ddec_spin_density
 _atom_site_hle17_ddec_sum_bond_order
 _atom_site_hle17_magmom
 _atom_site_hse06_10hf_bader_spin_density
 _atom_site_hse06_10hf_ddec_charge
 _atom_site_hse06_10hf_ddec_spin_density
 _atom_site_hse06_10hf_ddec_sum_bond_order
 _atom_site_hse06_10hf_magmom
 _atom_site_hse06_bader_spin_density
 _atom_site_hse06_ddec_charge
 _atom_site_hse06_ddec_spin_density
 _atom_site_hse06_ddec_sum_bond_order
 _atom_site_hse06_magmom
 _atom_site_pbe_bader_spin_density
 _atom_site_pbe_cm5_charge
 _atom_site_pbe_ddec_charge
 _atom_site_pbe_ddec_spin_density
 _atom_site_pbe_ddec_sum_bond_order
 _atom_site_pbe_magmom
Na  Na0  1  0.21236094  0.71758336  0.54767414  1  0  0.906549  0  0.357976  0  0  0.858984  0  0.509943  0  0  0.870347  0  0.488004  0  0  0.67403  0.850525  0  0.525729  0
Na  Na1  1  0.28765771  0.78242398  0.04767871  1  0  0.906507  0  0.357956  0  0  0.85891  0  0.509937  0  0  0.870307  0  0.487978  0  0  0.673986  0.850456  0  0.52573  0
Na  Na2  1  0.78768015  0.28241102  0.45232245  1  0  0.906511  0  0.357977  0  0  0.858926  0  0.509985  0  0  0.870313  0  0.488017  0  0  0.674036  0.850471  0  0.525768  0
Na  Na3  1  0.71232991  0.21759613  0.95231949  1  0  0.906526  0  0.357951  0  0  0.858876  0  0.510012  0  0  0.870286  0  0.488022  0  0  0.673985  0.850427  0  0.525807  0
H  H4  1  0.04196883  0.78996184  0.72709029  1  0  0.110311  0  0.950156  0  0  0.123826  0  1.012078  0  0  0.126346  0  1.010925  0  0  0.10494  0.121998  0  1.013032  0
H  H5  1  0.45800911  0.71002915  0.22708246  1  0  0.110243  0  0.950306  0  0  0.123769  0  1.012196  0  0  0.126288  0  1.011048  0  0  0.104855  0.121934  0  1.013142  0
H  H6  1  0.95806140  0.21000329  0.27291169  1  0  0.110391  0  0.950251  0  0  0.123951  0  1.012043  0  0  0.12647  0  1.01089  0  0  0.10496  0.12212  0  1.012982  0
H  H7  1  0.54193482  0.28999161  0.77291466  1  0  0.110355  0  0.9503  0  0  0.123937  0  1.012074  0  0  0.126455  0  1.010923  0  0  0.104952  0.122106  0  1.013019  0
H  H8  1  0.79754301  0.54623079  0.72844263  1  0  0.106718  0  0.940497  0  0  0.124865  0  0.997145  0  0  0.126803  0  0.996657  0  0  0.108377  0.123418  0  0.99767  0
H  H9  1  0.70245001  0.95375414  0.22844632  1  0  0.106683  0  0.940472  0  0  0.124737  0  0.997208  0  0  0.126686  0  0.996706  0  0  0.108303  0.123279  0  0.99774  0
H  H10  1  0.20247172  0.45374405  0.27156258  1  0  0.106824  0  0.94041  0  0  0.124884  0  0.99712  0  0  0.12681  0  0.99665  0  0  0.108358  0.12343  0  0.997649  0
H  H11  1  0.29751033  0.04626450  0.77155781  1  0  0.106638  0  0.940606  0  0  0.124764  0  0.997247  0  0  0.126683  0  0.996778  0  0  0.10829  0.123309  0  0.997775  0
H  H12  1  0.48908787  0.66252112  0.80590992  1  0  0.068934  0  0.932618  0  0  0.089357  0  0.990472  0  0  0.089714  0  0.991415  0  0  0.093427  0.08904  0  0.989866  0
H  H13  1  0.01089693  0.83745313  0.30591701  1  0  0.068935  0  0.932545  0  0  0.089285  0  0.990499  0  0  0.089649  0  0.991452  0  0  0.093432  0.088968  0  0.989894  0
H  H14  1  0.51094427  0.33746975  0.19408990  1  0  0.068951  0  0.932502  0  0  0.089318  0  0.990433  0  0  0.089669  0  0.99138  0  0  0.093391  0.08898  0  0.989854  0
H  H15  1  0.98905749  0.16252899  0.69407579  1  0  0.068871  0  0.932418  0  0  0.089274  0  0.990378  0  0  0.089631  0  0.991336  0  0  0.093366  0.088958  0  0.989773  0
H  H16  1  0.70971577  0.91973839  0.80062830  1  0  0.071827  0  0.953626  0  0  0.087336  0  1.019546  0  0  0.088498  0  1.019739  0  0  0.093886  0.08642  0  1.019572  0
H  H17  1  0.79023763  0.58023433  0.30062492  1  0  0.071733  0  0.953581  0  0  0.087275  0  1.019473  0  0  0.088444  0  1.019675  0  0  0.093826  0.086356  0  1.019497  0
H  H18  1  0.29030297  0.08024723  0.19936504  1  0  0.071829  0  0.953675  0  0  0.087329  0  1.019618  0  0  0.08849  0  1.019804  0  0  0.093881  0.08641  0  1.019638  0
H  H19  1  0.20969877  0.41975585  0.69936465  1  0  0.071795  0  0.953591  0  0  0.087317  0  1.01955  0  0  0.088484  0  1.01975  0  0  0.09387  0.086399  0  1.019575  0
H  H20  1  0.87532434  0.56696393  0.86270515  1  0  0.105471  0  0.967614  0  0  0.11725  0  1.035552  0  0  0.120356  0  1.033662  0  0  0.103812  0.114998  0  1.03702  0
H  H21  1  0.62466612  0.93303995  0.36270761  1  0  0.105589  0  0.967439  0  0  0.117369  0  1.035341  0  0  0.120478  0  1.033457  0  0  0.103854  0.115141  0  1.036793  0
H  H22  1  0.12469988  0.43304160  0.13730060  1  0  0.105493  0  0.967566  0  0  0.117262  0  1.03548  0  0  0.120387  0  1.03356  0  0  0.103795  0.115  0  1.036964  0
H  H23  1  0.37531877  0.06695739  0.63729760  1  0  0.105506  0  0.967576  0  0  0.117258  0  1.035488  0  0  0.120367  0  1.033585  0  0  0.1038  0.115001  0  1.036968  0
H  H24  1  0.07884911  0.82597985  0.86245584  1  0  0.104353  0  0.930529  0  0  0.121918  0  0.988977  0  0  0.123912  0  0.988223  0  0  0.109564  0.120417  0  0.989664  0
H  H25  1  0.42113409  0.67402180  0.36245203  1  0  0.104428  0  0.930614  0  0  0.121963  0  0.989065  0  0  0.123962  0  0.988307  0  0  0.109561  0.120458  0  0.989759  0
H  H26  1  0.92117592  0.17402270  0.13754614  1  0  0.104383  0  0.930476  0  0  0.121897  0  0.988958  0  0  0.123881  0  0.98822  0  0  0.109553  0.120424  0  0.989613  0
H  H27  1  0.57884668  0.32597985  0.63755803  1  0  0.104452  0  0.930445  0  0  0.121939  0  0.988921  0  0  0.123921  0  0.988182  0  0  0.109557  0.120458  0  0.989587  0
H  H28  1  0.74909236  0.79951639  0.55318549  1  0  0.382192  0  0.936341  0  0  0.348457  0  1.019498  0  0  0.363029  0  0.999825  0  0  0.290084  0.338325  0  1.02942  0
H  H29  1  0.75089262  0.70042617  0.05319063  1  0  0.382058  0  0.936706  0  0  0.348333  0  1.019825  0  0  0.3629  0  1.000034  0  0  0.290171  0.338207  0  1.029739  0
H  H30  1  0.25096295  0.20048027  0.44681487  1  0  0.382052  0  0.936836  0  0  0.348283  0  1.020046  0  0  0.362856  0  1.000154  0  0  0.290013  0.338149  0  1.029966  0
H  H31  1  0.24907588  0.29957330  0.94681296  1  0  0.382021  0  0.936787  0  0  0.348291  0  1.019923  0  0  0.36286  0  1.000108  0  0  0.290124  0.338161  0  1.029838  0
C  C32  1  0.69551862  0.75629759  0.66240514  1  0  0.725336  0  3.772776  0  0  0.68206  0  4.071511  0  0  0.714066  0  4.063768  0  0  0.232684  0.6603  0  4.076201  0
C  C33  1  0.80446485  0.74368363  0.16240220  1  0  0.725631  0  3.772539  0  0  0.682084  0  4.071654  0  0  0.714092  0  4.0639  0  0  0.232685  0.660316  0  4.076341  0
C  C34  1  0.30452284  0.24367720  0.33759576  1  0  0.725854  0  3.772358  0  0  0.682427  0  4.071292  0  0  0.714401  0  4.063586  0  0  0.232872  0.660659  0  4.075978  0
C  C35  1  0.19548160  0.25633877  0.83759600  1  0  0.725821  0  3.772083  0  0  0.682354  0  4.071098  0  0  0.714357  0  4.063346  0  0  0.232848  0.660585  0  4.075784  0
C  C36  1  0.82111364  0.71112095  0.73061046  1  0  -0.279473  0  3.672655  0  0  -0.316813  0  3.919666  0  0  -0.323741  0  3.929671  0  0  -0.160419  -0.312004  0  3.912713  0
C  C37  1  0.67886314  0.78885922  0.23061050  1  0  -0.279488  0  3.672633  0  0  -0.316656  0  3.91961  0  0  -0.323586  0  3.929641  0  0  -0.160219  -0.311811  0  3.912613  0
C  C38  1  0.17891474  0.28885464  0.26939206  1  0  -0.279874  0  3.672906  0  0  -0.317074  0  3.919877  0  0  -0.323988  0  3.929892  0  0  -0.160334  -0.312233  0  3.912883  0
C  C39  1  0.32108046  0.21115548  0.76938985  1  0  -0.279682  0  3.672652  0  0  -0.316938  0  3.91968  0  0  -0.323848  0  3.929701  0  0  -0.160284  -0.312096  0  3.912693  0
C  C40  1  0.70424946  0.75950249  0.80083077  1  0  -0.058525  0  3.700115  0  0  -0.105055  0  3.963556  0  0  -0.104597  0  3.977859  0  0  -0.166643  -0.105135  0  3.953581  0
C  C41  1  0.79572174  0.74047729  0.30083549  1  0  -0.058321  0  3.699856  0  0  -0.104853  0  3.963235  0  0  -0.104427  0  3.977588  0  0  -0.166583  -0.104941  0  3.953252  0
C  C42  1  0.29577627  0.24048653  0.19916797  1  0  -0.058428  0  3.700225  0  0  -0.104941  0  3.963542  0  0  -0.104482  0  3.977851  0  0  -0.166612  -0.105018  0  3.953562  0
C  C43  1  0.20422360  0.25951640  0.69916271  1  0  -0.058243  0  3.699679  0  0  -0.104915  0  3.963164  0  0  -0.104491  0  3.977509  0  0  -0.166579  -0.105003  0  3.953183  0
C  C44  1  0.86448810  0.72283895  0.86477667  1  0  -0.283987  0  3.680856  0  0  -0.322539  0  3.931612  0  0  -0.329252  0  3.94061  0  0  -0.163001  -0.317843  0  3.925399  0
C  C45  1  0.63549647  0.77716222  0.36478262  1  0  -0.284293  0  3.680918  0  0  -0.32276  0  3.931551  0  0  -0.329474  0  3.940564  0  0  -0.163059  -0.318093  0  3.925335  0
C  C46  1  0.13553612  0.27716657  0.13522423  1  0  -0.284082  0  3.680839  0  0  -0.322528  0  3.931506  0  0  -0.329242  0  3.94047  0  0  -0.163024  -0.317854  0  3.925296  0
C  C47  1  0.36448258  0.22283481  0.63522097  1  0  -0.284249  0  3.680772  0  0  -0.322562  0  3.931372  0  0  -0.329249  0  3.940348  0  0  -0.16299  -0.317884  0  3.925169  0
C  C48  1  0.76151764  0.75297976  0.93856764  1  0  0.738942  0  3.803172  0  0  0.695711  0  4.103054  0  0  0.728657  0  4.093601  0  0  0.22788  0.673304  0  4.108863  0
C  C49  1  0.73851827  0.74701463  0.43856584  1  0  0.738923  0  3.80347  0  0  0.695684  0  4.103319  0  0  0.728627  0  4.093868  0  0  0.227804  0.673278  0  4.109134  0
C  C50  1  0.23851276  0.24703213  0.06143218  1  0  0.738751  0  3.803314  0  0  0.695492  0  4.103193  0  0  0.728436  0  4.09374  0  0  0.227745  0.673089  0  4.109005  0
C  C51  1  0.26149782  0.25298442  0.56143182  1  0  0.738852  0  3.803227  0  0  0.695525  0  4.103144  0  0  0.728464  0  4.093697  0  0  0.227736  0.673117  0  4.108958  0
O  O52  1  0.84955139  0.77347885  0.60477795  1  0  -0.650943  0  2.094924  0  0  -0.598935  0  2.33356  0  0  -0.62291  0  2.315816  0  0  -0.396661  -0.582197  0  2.343041  0
O  O53  1  0.65042868  0.72642913  0.10477273  1  0  -0.650871  0  2.095163  0  0  -0.598729  0  2.333842  0  0  -0.62274  0  2.3161  0  0  -0.396756  -0.582  0  2.343326  0
O  O54  1  0.15049349  0.22650518  0.39522348  1  0  -0.650921  0  2.095197  0  0  -0.598823  0  2.33387  0  0  -0.622816  0  2.316066  0  0  -0.396627  -0.582086  0  2.343348  0
O  O55  1  0.34952640  0.27356509  0.89522493  1  0  -0.65088  0  2.095347  0  0  -0.598724  0  2.333915  0  0  -0.622748  0  2.316173  0  0  -0.396666  -0.581981  0  2.343392  0
O  O56  1  0.46638391  0.77125422  0.65980937  1  0  -0.632473  0  1.92177  0  0  -0.587178  0  2.149177  0  0  -0.607709  0  2.139001  0  0  -0.346497  -0.573072  0  2.155906  0
O  O57  1  0.03363904  0.72879598  0.15981866  1  0  -0.632618  0  1.921742  0  0  -0.587265  0  2.149348  0  0  -0.607778  0  2.139132  0  0  -0.346461  -0.573171  0  2.156089  0
O  O58  1  0.53365721  0.22871452  0.34018452  1  0  -0.632723  0  1.92149  0  0  -0.58744  0  2.149067  0  0  -0.607953  0  2.138887  0  0  -0.346714  -0.573351  0  2.155827  0
O  O59  1  0.96631966  0.27125423  0.84017846  1  0  -0.632671  0  1.921287  0  0  -0.587353  0  2.148842  0  0  -0.607849  0  2.138611  0  0  -0.346604  -0.573278  0  2.155632  0
O  O60  1  0.85244064  0.67058865  0.99141133  1  0  -0.696881  0  2.011476  0  0  -0.645976  0  2.24815  0  0  -0.66947  0  2.231149  0  0  -0.384751  -0.629636  0  2.257953  0
O  O61  1  0.64753511  0.82940924  0.49140728  1  0  -0.696979  0  2.011196  0  0  -0.646085  0  2.247868  0  0  -0.669575  0  2.230905  0  0  -0.384772  -0.629742  0  2.257669  0
O  O62  1  0.14754217  0.32942367  0.00859334  1  0  -0.696921  0  2.011496  0  0  -0.646016  0  2.248185  0  0  -0.669514  0  2.231175  0  0  -0.384751  -0.62968  0  2.257992  0
O  O63  1  0.35250883  0.17059284  0.50859470  1  0  -0.69697  0  2.011387  0  0  -0.646026  0  2.248119  0  0  -0.669518  0  2.231075  0  0  -0.384677  -0.629679  0  2.257917  0
O  O64  1  0.60279745  0.85162798  0.94773752  1  0  -0.718344  0  1.88677  0  0  -0.673243  0  2.122094  0  0  -0.694036  0  2.108648  0  0  -0.420744  -0.658818  0  2.131024  0
O  O65  1  0.89721703  0.64838307  0.44773017  1  0  -0.718207  0  1.887225  0  0  -0.673098  0  2.12252  0  0  -0.693874  0  2.109062  0  0  -0.420607  -0.658676  0  2.131446  0
O  O66  1  0.39722869  0.14840328  0.05226283  1  0  -0.718109  0  1.886918  0  0  -0.67297  0  2.122192  0  0  -0.693759  0  2.108746  0  0  -0.420625  -0.658551  0  2.131122  0
O  O67  1  0.10280857  0.35162102  0.55226264  1  0  -0.718087  0  1.887053  0  0  -0.672983  0  2.122422  0  0  -0.693757  0  2.108971  0  0  -0.420634  -0.658561  0  2.131349  0
