# generated using pymatgen
data_ZnH8C9NO7
_symmetry_space_group_name_H-M   'P 1'
_cell_length_a   5.18757212
_cell_length_b   8.79915674
_cell_length_c   12.06954802
_cell_angle_alpha   104.06712069
_cell_angle_beta   95.96211242
_cell_angle_gamma   107.08028577
_symmetry_Int_Tables_number   1
_chemical_formula_structural   ZnH8C9NO7
_chemical_formula_sum   'Zn2 H16 C18 N2 O14'
_cell_volume   501.62948587
_cell_formula_units_Z   2
loop_
 _symmetry_equiv_pos_site_id
 _symmetry_equiv_pos_as_xyz
  1  'x, y, z'
loop_
 _atom_site_type_symbol
 _atom_site_label
 _atom_site_symmetry_multiplicity
 _atom_site_fract_x
 _atom_site_fract_y
 _atom_site_fract_z
 _atom_site_occupancy
 _atom_site_pbe_bader_spin_density
 _atom_site_pbe_cm5_charge
 _atom_site_pbe_ddec_charge
 _atom_site_pbe_ddec_spin_density
 _atom_site_pbe_ddec_sum_bond_order
 _atom_site_pbe_magmom
Zn  Zn0  1  0.05226911  0.82512302  0.99797796  1  0  0.687901  0.993996  0  2.156746  0
Zn  Zn1  1  0.94772312  0.17488069  0.00202155  1  0  0.687924  0.994015  0  2.156766  0
H  H2  1  0.77364434  0.88393969  0.43927864  1  0  0.316872  0.284855  0  0.964568  0
H  H3  1  0.22636031  0.11607276  0.56072133  1  0  0.316863  0.284876  0  0.964464  0
H  H4  1  0.33808683  0.86274135  0.19325658  1  0  0.290456  0.380497  0  0.965745  0
H  H5  1  0.66189430  0.13725611  0.80674298  1  0  0.290471  0.38053  0  0.965686  0
H  H6  1  0.19599066  0.66080585  0.13849749  1  0  0.304819  0.401466  0  0.927659  0
H  H7  1  0.80400346  0.33919416  0.86150146  1  0  0.304826  0.401494  0  0.927624  0
H  H8  1  0.57905119  0.72255743  0.07199479  1  0  0.296719  0.408176  0  0.91836  0
H  H9  1  0.42094154  0.27743637  0.92800713  1  0  0.296692  0.408097  0  0.918468  0
H  H10  1  0.75978912  0.59839008  0.06781387  1  0  0.294347  0.383903  0  0.964599  0
H  H11  1  0.24020759  0.40160747  0.93218144  1  0  0.294307  0.383846  0  0.964682  0
H  H12  1  0.81922796  0.68048482  0.28173599  1  0  0.110109  0.120331  0  1.01438  0
H  H13  1  0.18079014  0.31951655  0.71826594  1  0  0.110159  0.120392  0  1.014394  0
H  H14  1  0.03818953  0.27096070  0.36758936  1  0  0.107915  0.12104  0  0.997998  0
H  H15  1  0.96182415  0.72905055  0.63241413  1  0  0.107957  0.121063  0  0.998048  0
H  H16  1  0.14617669  0.57246510  0.46173579  1  0  0.109047  0.120824  0  1.024781  0
H  H17  1  0.85384798  0.42754497  0.53827047  1  0  0.109037  0.120843  0  1.024695  0
C  C18  1  0.48941251  0.64594438  0.37769325  1  0  0.099937  0.246152  0  4.013788  0
C  C19  1  0.51059792  0.35406438  0.62230799  1  0  0.099955  0.246099  0  4.013873  0
C  C20  1  0.64432536  0.59091448  0.29883766  1  0  -0.082306  -0.179593  0  3.939298  0
C  C21  1  0.35568369  0.40908809  0.70116324  1  0  -0.082313  -0.17961  0  3.939391  0
C  C22  1  0.58140627  0.42230740  0.24286687  1  0  -0.017744  -0.05737  0  3.98764  0
C  C23  1  0.41859368  0.57769264  0.75713152  1  0  -0.017759  -0.057421  0  3.987546  0
C  C24  1  0.36161534  0.30496752  0.26762138  1  0  -0.007242  -0.047591  0  3.921588  0
C  C25  1  0.63838664  0.69503996  0.73238008  1  0  -0.00724  -0.047564  0  3.921592  0
C  C26  1  0.20793006  0.36071934  0.34727506  1  0  -0.084071  -0.088574  0  3.970237  0
C  C27  1  0.79207969  0.63928817  0.65272758  1  0  -0.084059  -0.088532  0  3.970158  0
C  C28  1  0.26766085  0.52958160  0.40093954  1  0  -0.082552  -0.151775  0  3.930599  0
C  C29  1  0.73235668  0.47042596  0.59906181  1  0  -0.082594  -0.151855  0  3.930577  0
C  C30  1  0.75277946  0.37338205  0.15805227  1  0  0.212139  0.578502  0  4.205613  0
C  C31  1  0.24722309  0.62661924  0.84194894  1  0  0.212112  0.578538  0  4.205458  0
C  C32  1  0.28999244  0.12170817  0.21206262  1  0  0.234441  0.633801  0  4.117997  0
C  C33  1  0.70998481  0.87828928  0.78793344  1  0  0.234478  0.633732  0  4.118126  0
C  C34  1  0.41533492  0.90726323  0.47589863  1  0  0.249276  0.405271  0  4.12744  0
C  C35  1  0.58463848  0.09273791  0.52409957  1  0  0.249126  0.405104  0  4.126989  0
N  N36  1  0.57082666  0.81718080  0.43201498  1  0  -0.386295  -0.34431  0  3.611498  0
N  N37  1  0.42919153  0.18282430  0.56797933  1  0  -0.386257  -0.344142  0  3.611506  0
O  O38  1  0.31488743  0.76237641  0.12416722  1  0  -0.556114  -0.756489  0  2.146042  0
O  O39  1  0.68510474  0.23762359  0.87583329  1  0  -0.556135  -0.756541  0  2.145941  0
O  O40  1  0.73081102  0.21952481  0.12419735  1  0  -0.306134  -0.530788  0  2.33832  0
O  O41  1  0.26918692  0.78047150  0.87580442  1  0  -0.306108  -0.530797  0  2.338296  0
O  O42  1  0.91100408  0.48253651  0.12116047  1  0  -0.31577  -0.57812  0  2.28929  0
O  O43  1  0.08900037  0.51746108  0.87883934  1  0  -0.315765  -0.578104  0  2.289184  0
O  O44  1  0.71308739  0.67966129  0.03083272  1  0  -0.577497  -0.767664  0  2.210241  0
O  O45  1  0.28690602  0.32033376  0.96916614  1  0  -0.577475  -0.767556  0  2.210288  0
O  O46  1  0.15393426  0.06131984  0.10532815  1  0  -0.319716  -0.592663  0  2.450518  0
O  O47  1  0.84606843  0.93868890  0.89466693  1  0  -0.319719  -0.59262  0  2.45044  0
O  O48  1  0.35453790  0.03564297  0.27162503  1  0  -0.292589  -0.507258  0  2.180012  0
O  O49  1  0.64539973  0.96434931  0.72837494  1  0  -0.292616  -0.507238  0  2.180057  0
O  O50  1  0.16647118  0.85420293  0.47772373  1  0  -0.285922  -0.476599  0  2.203413  0
O  O51  1  0.83356325  0.14580720  0.52227719  1  0  -0.285892  -0.476669  0  2.202699  0
