# generated using pymatgen
data_ZnH6C13N(O2F)2
_symmetry_space_group_name_H-M   'P 1'
_cell_length_a   9.59735942
_cell_length_b   11.00846865
_cell_length_c   15.36113635
_cell_angle_alpha   90.30748280
_cell_angle_beta   90.21338753
_cell_angle_gamma   90.02767598
_symmetry_Int_Tables_number   1
_chemical_formula_structural   ZnH6C13N(O2F)2
_chemical_formula_sum   'Zn2 H12 C26 N2 O8 F4'
_cell_volume   1622.90348532
_cell_formula_units_Z   2
loop_
 _symmetry_equiv_pos_site_id
 _symmetry_equiv_pos_as_xyz
  1  'x, y, z'
loop_
 _atom_site_type_symbol
 _atom_site_label
 _atom_site_symmetry_multiplicity
 _atom_site_fract_x
 _atom_site_fract_y
 _atom_site_fract_z
 _atom_site_occupancy
 _atom_site_pbe_bader_charge
 _atom_site_pbe_bader_spin_density
 _atom_site_pbe_cm5_charge
 _atom_site_pbe_ddec_charge
 _atom_site_pbe_ddec_spin_density
 _atom_site_pbe_ddec_sum_bond_order
 _atom_site_pbe_magmom
Zn  Zn0  1  0.35779405  0.50001865  0.49930898  1  1.271625  0  0.664404  0.805398  0  2.452482  0
Zn  Zn1  1  0.64138090  0.50002877  0.50069504  1  1.249266  0  0.664546  0.804411  0  2.461032  0
H  H2  1  0.86473070  0.36490180  0.40559121  1  0.167769  0  0.144298  0.126205  0  0.953223  0
H  H3  1  0.28050573  0.11344258  0.47599730  1  0.119771  0  0.101455  0.102799  0  1.004218  0
H  H4  1  0.72150576  0.11500602  0.52353992  1  0.097259  0  0.102426  0.104903  0  1.001823  0
H  H5  1  0.28178648  0.88501287  0.47422283  1  0.100307  0  0.102695  0.106396  0  1.003185  0
H  H6  1  0.13439388  0.63521425  0.59463752  1  0.157855  0  0.143258  0.124644  0  0.954737  0
H  H7  1  0.86658443  0.63498368  0.59512046  1  0.16399  0  0.143871  0.125736  0  0.953247  0
H  H8  1  0.13249435  0.36581643  0.40473767  1  0.159942  0  0.142797  0.123831  0  0.956341  0
H  H9  1  0.30123921  0.59573415  0.77917959  1  0.117729  0  0.113399  0.143013  0  0.987283  0
H  H10  1  0.69689122  0.59322526  0.22320782  1  0.131803  0  0.115555  0.147851  0  0.980964  0
H  H11  1  0.30236648  0.40347904  0.22005601  1  0.090774  0  0.113442  0.143374  0  0.987259  0
H  H12  1  0.69569099  0.40628714  0.77732088  1  0.118895  0  0.11571  0.147996  0  0.981591  0
H  H13  1  0.72126581  0.88665755  0.52643871  1  0.102713  0  0.101424  0.103306  0  1.006116  0
C  C14  1  0.50168361  0.73688902  0.50097225  1  1.53503  0  0.216277  0.595666  0  4.160077  0
C  C15  1  0.37663142  0.06278126  0.48631890  1  -0.17935  0  -0.084692  -0.094804  0  3.98235  0
C  C16  1  0.62569140  0.06363380  0.51336162  1  0.044921  0  -0.084818  -0.09624  0  3.981403  0
C  C17  1  0.37711657  0.93647462  0.48585578  1  -0.013839  0  -0.08462  -0.094583  0  3.980739  0
C  C18  1  0.39206352  0.55333799  0.90377458  1  0.486926  0  0.104042  0.269447  0  4.055002  0
C  C19  1  0.60814789  0.55177879  0.09746545  1  0.355793  0  0.104297  0.270758  0  4.053619  0
C  C20  1  0.39263800  0.44593209  0.09575998  1  0.463748  0  0.104419  0.270646  0  4.053937  0
C  C21  1  0.60759290  0.44764625  0.90280231  1  0.426769  0  0.104228  0.27029  0  4.055161  0
C  C22  1  0.38791994  0.55393833  0.81363130  1  -0.012779  0  -0.099646  -0.238825  0  3.984167  0
C  C23  1  0.61091109  0.55142617  0.18766312  1  0.064556  0  -0.099317  -0.240404  0  3.977129  0
C  C24  1  0.38894602  0.44526766  0.18588560  1  0.007837  0  -0.100509  -0.240268  0  3.984768  0
C  C25  1  0.50098433  0.26307158  0.49915663  1  1.538888  0  0.21593  0.596433  0  4.162772  0
C  C26  1  0.60991351  0.44798046  0.81264428  1  0.090599  0  -0.099837  -0.240453  0  3.978619  0
C  C27  1  0.49846463  0.50126189  0.76788607  1  0.014993  0  -0.009422  0.029146  0  3.983322  0
C  C28  1  0.49956906  0.49812645  0.23205238  1  0.042241  0  -0.009518  0.028804  0  3.982884  0
C  C29  1  0.50027816  0.50022165  0.95197652  1  0.111409  0  -0.021916  -0.123258  0  4.037628  0
C  C30  1  0.50057389  0.49924735  0.04791787  1  0.065056  0  -0.022571  -0.123645  0  4.037554  0
C  C31  1  0.50103518  0.12719901  0.49959642  1  0.007377  0  -0.012892  -0.020641  0  3.955677  0
C  C32  1  0.50149847  0.87284883  0.50056574  1  0.024841  0  -0.014516  -0.025834  0  3.957578  0
C  C33  1  0.49787445  0.50159069  0.67026558  1  1.593895  0  0.216722  0.59607  0  4.155056  0
C  C34  1  0.49836613  0.49801973  0.32969094  1  1.597946  0  0.21753  0.597379  0  4.154077  0
C  C35  1  0.92644573  0.42487970  0.44729388  1  0.531807  0  0.083269  0.066238  0  3.856329  0
C  C36  1  0.07264166  0.57565178  0.55267161  1  0.59441  0  0.083801  0.065916  0  3.85772  0
C  C37  1  0.92753573  0.57532675  0.55308192  1  0.420312  0  0.082805  0.06449  0  3.857147  0
C  C38  1  0.07154154  0.42515954  0.44698565  1  0.445598  0  0.083118  0.064669  0  3.858583  0
C  C39  1  0.62563193  0.93736486  0.51473118  1  -0.105722  0  -0.084993  -0.093143  0  3.981581  0
N  N40  1  0.14283769  0.50053928  0.49962946  1  -1.200637  0  -0.290494  -0.140704  0  3.500659  0
N  N41  1  0.85629878  0.49997594  0.50037250  1  -1.161914  0  -0.290636  -0.142022  0  3.501755  0
O  O42  1  0.38630560  0.68338042  0.48508129  1  -1.164616  0  -0.320794  -0.552353  0  2.321741  0
O  O43  1  0.61715013  0.31588495  0.48539186  1  -1.163763  0  -0.320123  -0.554876  0  2.324592  0
O  O44  1  0.38488885  0.31618131  0.51263850  1  -1.161681  0  -0.320739  -0.551847  0  2.315908  0
O  O45  1  0.61713269  0.68391302  0.51707449  1  -1.167509  0  -0.320597  -0.5547  0  2.326379  0
O  O46  1  0.38269801  0.52496327  0.63231766  1  -1.167049  0  -0.318988  -0.550838  0  2.306211  0
O  O47  1  0.61314023  0.52137191  0.36825989  1  -1.164493  0  -0.319134  -0.547938  0  2.305851  0
O  O48  1  0.38274334  0.47484577  0.36661678  1  -1.167967  0  -0.319655  -0.550562  0  2.307997  0
O  O49  1  0.61298792  0.47821588  0.63272853  1  -1.16291  0  -0.318791  -0.546302  0  2.308996  0
F  F50  1  0.28713242  0.60858643  0.94817447  1  -0.632051  0  -0.104266  -0.14281  0  1.324842  0
F  F51  1  0.71357278  0.60769046  0.05434381  1  -0.630016  0  -0.103807  -0.142762  0  1.32386  0
F  F52  1  0.28748917  0.39062831  0.05104862  1  -0.629026  0  -0.104261  -0.143092  0  1.324308  0
F  F53  1  0.71323889  0.39188017  0.94624850  1  -0.629326  0  -0.104167  -0.142909  0  1.324311  0
