# generated using pymatgen
data_ZnH22C28(NO5)2
_symmetry_space_group_name_H-M   'P 1'
_cell_length_a   10.08271308
_cell_length_b   10.91553294
_cell_length_c   23.68527272
_cell_angle_alpha   94.02434285
_cell_angle_beta   89.91727708
_cell_angle_gamma   89.71440309
_symmetry_Int_Tables_number   1
_chemical_formula_structural   ZnH22C28(NO5)2
_chemical_formula_sum   'Zn2 H44 C56 N4 O20'
_cell_volume   2600.29423852
_cell_formula_units_Z   2
loop_
 _symmetry_equiv_pos_site_id
 _symmetry_equiv_pos_as_xyz
  1  'x, y, z'
loop_
 _atom_site_type_symbol
 _atom_site_label
 _atom_site_symmetry_multiplicity
 _atom_site_fract_x
 _atom_site_fract_y
 _atom_site_fract_z
 _atom_site_occupancy
 _atom_site_pbe_bader_charge
 _atom_site_pbe_bader_spin_density
 _atom_site_pbe_cm5_charge
 _atom_site_pbe_ddec_charge
 _atom_site_pbe_ddec_spin_density
 _atom_site_pbe_ddec_sum_bond_order
 _atom_site_pbe_magmom
Zn  Zn0  1  0.35473302  0.50039474  0.50019526  1  1.296164  0  0.675292  0.844813  0  2.26987  0
Zn  Zn1  1  0.64792547  0.50047269  0.49892977  1  1.314043  0  0.680651  0.844513  0  2.314636  0
H  H2  1  0.46615793  0.19895676  0.92979304  1  0.107421  0  0.117239  0.120977  0  0.979758  0
H  H3  1  0.44107990  0.80331940  0.06931178  1  0.114791  0  0.116893  0.120096  0  0.979397  0
H  H4  1  0.49236005  0.18810702  0.03557930  1  0.121337  0  0.116452  0.119831  0  0.981604  0
H  H5  1  0.47645933  0.81558881  0.96406006  1  0.102551  0  0.116247  0.119475  0  0.981331  0
H  H6  1  0.70839312  0.80668597  0.19892451  1  0.620302  0  0.350111  0.382296  0  0.846325  0
H  H7  1  0.75072729  0.21202442  0.79709943  1  0.623357  0  0.349094  0.381341  0  0.84815  0
H  H8  1  0.69673192  0.72622521  0.31081305  1  0.06156  0  0.091827  0.135986  0  1.040307  0
H  H9  1  0.58879541  0.70283697  0.36813717  1  0.069568  0  0.098053  0.145538  0  0.993822  0
H  H10  1  0.72766763  0.60671101  0.35694137  1  0.04506  0  0.093292  0.136687  0  0.998286  0
H  H11  1  0.64823187  0.35250242  0.62045614  1  0.094283  0  0.090352  0.136311  0  1.053374  0
H  H12  1  0.75938780  0.33975479  0.67774382  1  0.04492  0  0.093164  0.131606  0  0.990266  0
H  H13  1  0.61762610  0.24647786  0.67264833  1  0.092564  0  0.099134  0.147728  0  0.982065  0
H  H14  1  0.40191979  0.28365452  0.37000802  1  0.062005  0  0.094341  0.137462  0  1.022424  0
H  H15  1  0.27239661  0.25821332  0.31942617  1  0.059286  0  0.093241  0.131992  0  1.003887  0
H  H16  1  0.42859096  0.19020371  0.30674895  1  0.056306  0  0.103216  0.151451  0  0.973819  0
H  H17  1  0.42679949  0.80967261  0.69197907  1  0.06916  0  0.102913  0.15101  0  0.973556  0
H  H18  1  0.40079265  0.71508006  0.62913174  1  0.041241  0  0.094262  0.136873  0  1.024247  0
H  H19  1  0.27215600  0.73939487  0.68044384  1  0.058211  0  0.093565  0.132906  0  1.002487  0
H  H20  1  0.24408118  0.15491057  0.19031028  1  0.616715  0  0.349494  0.382192  0  0.846716  0
H  H21  1  0.24494697  0.84489226  0.80961466  1  0.616722  0  0.349323  0.382083  0  0.847851  0
H  H22  1  0.75000176  0.18961323  0.55703618  1  0.06166  0  0.094511  0.142507  0  1.017121  0
H  H23  1  0.82899563  0.04802773  0.53584666  1  0.027481  0  0.086875  0.118623  0  1.017685  0
H  H24  1  0.80979294  0.16342677  0.48751767  1  0.028838  0  0.086699  0.121528  0  1.036372  0
H  H25  1  0.25917373  0.79393895  0.45826638  1  0.064177  0  0.093698  0.140629  0  1.003137  0
H  H26  1  0.20175264  0.85304401  0.52510272  1  0.012274  0  0.087273  0.1222  0  1.019341  0
H  H27  1  0.18327927  0.94147190  0.46564420  1  0.01032  0  0.086501  0.116927  0  1.014388  0
H  H28  1  0.73911591  0.80742927  0.43645269  1  0.070691  0  0.09416  0.141572  0  1.021285  0
H  H29  1  0.82334705  0.94578514  0.45706737  1  0.024131  0  0.086624  0.118803  0  1.018752  0
H  H30  1  0.80756131  0.82817090  0.50447272  1  0.041051  0  0.086865  0.122516  0  1.036695  0
H  H31  1  0.27038927  0.21582617  0.54888436  1  0.072557  0  0.093951  0.140721  0  1.003582  0
H  H32  1  0.20070126  0.15591036  0.48456149  1  0.032989  0  0.086544  0.120286  0  1.023508  0
H  H33  1  0.19113819  0.07050762  0.54532448  1  0.025565  0  0.087032  0.117541  0  1.012269  0
H  H34  1  0.75548458  0.68016464  0.56293491  1  0.11624  0  0.106223  0.1628  0  1.028988  0
H  H35  1  0.84834112  0.62562267  0.61904523  1  0.081354  0  0.111479  0.166401  0  0.953584  0
H  H36  1  0.90851647  0.75077615  0.58308336  1  0.045194  0  0.099513  0.135791  0  1.006379  0
H  H37  1  0.25036464  0.35665351  0.42324826  1  0.083962  0  0.10245  0.152414  0  1.07158  0
H  H38  1  0.11272198  0.25718005  0.41403551  1  0.065068  0  0.101078  0.138566  0  1.002778  0
H  H39  1  0.12304620  0.38873461  0.37481160  1  0.096486  0  0.109642  0.159922  0  0.959247  0
H  H40  1  0.75934232  0.32120964  0.43482995  1  0.095981  0  0.106312  0.163205  0  1.027791  0
H  H41  1  0.85060587  0.38044865  0.37951482  1  0.080933  0  0.111111  0.164733  0  0.957882  0
H  H42  1  0.91397315  0.25336918  0.41339721  1  0.062078  0  0.099835  0.137375  0  1.00669  0
H  H43  1  0.24662351  0.64739293  0.57586162  1  0.10622  0  0.102646  0.151699  0  1.070502  0
H  H44  1  0.10248857  0.73717729  0.59105955  1  0.053259  0  0.099887  0.136563  0  1.010018  0
H  H45  1  0.12793888  0.59970228  0.62488637  1  0.061344  0  0.110266  0.161558  0  0.957989  0
C  C46  1  0.50909406  0.26692858  0.50723265  1  1.527607  0  0.221833  0.602921  0  4.124162  0
C  C47  1  0.50413033  0.73421474  0.49262832  1  1.533996  0  0.22016  0.598659  0  4.131113  0
C  C48  1  0.49664510  0.48154125  0.38934821  1  1.578793  0  0.220759  0.614508  0  4.17373  0
C  C49  1  0.49787311  0.51821289  0.60978723  1  1.559503  0  0.218115  0.610383  0  4.183141  0
C  C50  1  0.49946438  0.62770049  0.88557153  1  1.332577  0  0.25125  0.457597  0  4.061196  0
C  C51  1  0.49660120  0.37627441  0.11427110  1  1.336003  0  0.251039  0.457604  0  4.062081  0
C  C52  1  0.45511250  0.40194362  0.87250601  1  1.348904  0  0.249658  0.453243  0  4.063173  0
C  C53  1  0.43852103  0.59988142  0.12660284  1  1.353345  0  0.249382  0.451932  0  4.064272  0
C  C54  1  0.46677617  0.39533563  0.93445181  1  0.032291  0  0.00381  -0.045855  0  3.966328  0
C  C55  1  0.45440465  0.60727185  0.06482851  1  -0.028768  0  0.003084  -0.045949  0  3.964496  0
C  C56  1  0.47072305  0.50479168  0.96987586  1  0.039157  0  0.011259  0.03945  0  3.993198  0
C  C57  1  0.46819707  0.49821145  0.02954439  1  0.041407  0  0.011642  0.042454  0  3.990056  0
C  C58  1  0.47762828  0.62069383  0.94703686  1  -0.021361  0  0.004265  -0.043572  0  3.959362  0
C  C59  1  0.47996043  0.38271168  0.05251755  1  -0.015641  0  0.00337  -0.048158  0  3.961865  0
C  C60  1  0.47045872  0.28218068  0.95796597  1  -0.050494  0  -0.060188  -0.068498  0  3.925753  0
C  C61  1  0.45311031  0.72043711  0.04129735  1  -0.01951  0  -0.060004  -0.068087  0  3.923881  0
C  C62  1  0.48217522  0.27603737  0.01683384  1  -0.027739  0  -0.059965  -0.067236  0  3.927808  0
C  C63  1  0.46995718  0.72725654  0.98265471  1  0.013691  0  -0.060419  -0.068822  0  3.926013  0
C  C64  1  0.56371602  0.56532922  0.23914503  1  0.063333  0  -0.007226  -0.157834  0  3.892452  0
C  C65  1  0.57625129  0.44037738  0.76021252  1  -0.022643  0  -0.008484  -0.163479  0  3.89899  0
C  C66  1  0.56840001  0.56689427  0.29862884  1  -0.033699  0  0.012331  0.167321  0  3.902869  0
C  C67  1  0.57606017  0.43470903  0.70046637  1  0.09037  0  0.012408  0.168666  0  3.899177  0
C  C68  1  0.49765072  0.47617440  0.32539197  1  -0.025525  0  -0.012888  -0.14827  0  3.886151  0
C  C69  1  0.50223175  0.52366222  0.67369155  1  0.035026  0  -0.012789  -0.14695  0  3.882893  0
C  C70  1  0.42771048  0.38252791  0.29493280  1  0.051686  0  0.010858  0.160727  0  3.911812  0
C  C71  1  0.43152814  0.61770140  0.70438537  1  0.020336  0  0.011733  0.164006  0  3.905719  0
C  C72  1  0.41078484  0.39159249  0.23613402  1  0.012559  0  -0.007914  -0.158688  0  3.900197  0
C  C73  1  0.41672549  0.61000359  0.76331241  1  0.006827  0  -0.008666  -0.161088  0  3.901793  0
C  C74  1  0.48021972  0.48141278  0.20866072  1  0.423375  0  0.109138  0.177215  0  3.954804  0
C  C75  1  0.49062413  0.52265966  0.79088098  1  0.385106  0  0.110092  0.17915  0  3.95735  0
C  C76  1  0.62869972  0.06268255  0.50650265  1  -0.052763  0  -0.004962  0.095745  0  3.902227  0
C  C77  1  0.38311556  0.93829681  0.49649212  1  0.022211  0  -0.005422  0.09695  0  3.908776  0
C  C78  1  0.62656957  0.93546449  0.49104436  1  0.016608  0  -0.004633  0.097958  0  3.898722  0
C  C79  1  0.38509471  0.06660808  0.50784537  1  -0.010953  0  -0.00582  0.094635  0  3.910932  0
C  C80  1  0.50416820  0.87192296  0.49066307  1  -0.032879  0  -0.018532  -0.155319  0  3.899677  0
C  C81  1  0.50778099  0.12949234  0.51008645  1  0.027822  0  -0.017015  -0.150066  0  3.897623  0
C  C82  1  0.92925914  0.57610335  0.53668551  1  0.553291  0  0.13393  0.226361  0  3.895502  0
C  C83  1  0.07081309  0.42809725  0.46140144  1  0.564769  0  0.133413  0.230939  0  3.89925  0
C  C84  1  0.93082702  0.42543259  0.46217819  1  0.463527  0  0.133923  0.225982  0  3.897649  0
C  C85  1  0.06919161  0.57127524  0.53867565  1  0.471653  0  0.133743  0.230779  0  3.898495  0
C  C86  1  0.65111354  0.64495914  0.20611161  1  1.510105  0  0.232978  0.596895  0  4.109524  0
C  C87  1  0.67155363  0.36682290  0.79263211  1  1.507363  0  0.230643  0.595215  0  4.114014  0
C  C88  1  0.65059173  0.65627818  0.33485200  1  -0.056048  0  -0.245425  -0.423978  0  3.951678  0
C  C89  1  0.65421189  0.33868353  0.66561266  1  -0.120941  0  -0.245634  -0.42289  0  3.953109  0
C  C90  1  0.37911722  0.27391012  0.32475361  1  -0.079703  0  -0.239153  -0.412532  0  3.940238  0
C  C91  1  0.37914340  0.72511249  0.67451007  1  -0.054374  0  -0.239792  -0.41411  0  3.939096  0
C  C92  1  0.31219399  0.31422347  0.20292930  1  1.516572  0  0.22888  0.592267  0  4.122832  0
C  C93  1  0.31622580  0.68614533  0.79659729  1  1.512041  0  0.229214  0.594257  0  4.123352  0
C  C94  1  0.76140227  0.11920460  0.52225344  1  -0.045477  0  -0.24796  -0.407002  0  3.982237  0
C  C95  1  0.24999605  0.87802801  0.48590819  1  -0.024214  0  -0.24549  -0.400523  0  3.983024  0
C  C96  1  0.75604747  0.87586874  0.47154767  1  -0.074275  0  -0.248447  -0.408388  0  3.982187  0
C  C97  1  0.25518907  0.13111042  0.52230052  1  -0.056517  0  -0.245233  -0.398705  0  3.983687  0
C  C98  1  0.85612027  0.66302757  0.57720825  1  -0.083157  0  -0.235633  -0.450685  0  3.945127  0
C  C99  1  0.14392111  0.35362316  0.41633655  1  -0.093691  0  -0.23753  -0.460318  0  3.965828  0
C  C100  1  0.85956929  0.34021767  0.42069244  1  -0.064849  0  -0.236472  -0.454585  0  3.947953  0
C  C101  1  0.14098557  0.64310391  0.58467618  1  -0.057575  0  -0.237396  -0.460327  0  3.968938  0
N  N102  1  0.48070672  0.51777669  0.85121521  1  -1.16121  0  -0.224737  -0.219492  0  3.582066  0
N  N103  1  0.47048913  0.48557923  0.14827102  1  -1.171079  0  -0.22497  -0.220561  0  3.584617  0
N  N104  1  0.13867675  0.49938592  0.50023125  1  -1.219308  0  -0.284031  -0.264308  0  3.367134  0
N  N105  1  0.86163819  0.50123646  0.49913058  1  -1.253585  0  -0.287722  -0.266418  0  3.38044  0
O  O106  1  0.40494670  0.31725381  0.48849333  1  -1.175242  0  -0.310916  -0.550158  0  2.4024  0
O  O107  1  0.61048411  0.67508151  0.47942007  1  -1.167879  0  -0.308664  -0.54266  0  2.421884  0
O  O108  1  0.40014779  0.68413879  0.51136762  1  -1.178171  0  -0.311505  -0.54957  0  2.402264  0
O  O109  1  0.61582187  0.32536958  0.51949134  1  -1.169198  0  -0.308406  -0.54179  0  2.40869  0
O  O110  1  0.38882586  0.51698850  0.41347292  1  -1.159713  0  -0.313466  -0.546961  0  2.292209  0
O  O111  1  0.60184832  0.54886978  0.58415141  1  -1.182234  0  -0.310608  -0.554752  0  2.36339  0
O  O112  1  0.38954250  0.48255680  0.58664714  1  -1.162814  0  -0.312986  -0.544717  0  2.290201  0
O  O113  1  0.60257787  0.45202329  0.41395023  1  -1.172709  0  -0.309738  -0.554259  0  2.363309  0
O  O114  1  0.53107790  0.72364958  0.86499167  1  -1.105341  0  -0.271334  -0.437531  0  2.096229  0
O  O115  1  0.53053010  0.28121437  0.13528548  1  -1.09845  0  -0.271069  -0.437207  0  2.096716  0
O  O116  1  0.42761720  0.31194765  0.84067477  1  -1.099994  0  -0.270575  -0.433449  0  2.087455  0
O  O117  1  0.40303174  0.68815074  0.15814543  1  -1.098581  0  -0.270634  -0.433439  0  2.088837  0
O  O118  1  0.71851725  0.60640180  0.16567889  1  -1.125476  0  -0.295479  -0.490752  0  2.053167  0
O  O119  1  0.64926921  0.76587507  0.22457256  1  -1.107511  0  -0.326605  -0.46663  0  2.235224  0
O  O120  1  0.73300788  0.40843798  0.83409892  1  -1.1237  0  -0.296867  -0.493181  0  2.056133  0
O  O121  1  0.68671560  0.24825206  0.77185605  1  -1.113967  0  -0.325916  -0.469344  0  2.240411  0
O  O122  1  0.23508221  0.35433548  0.16885317  1  -1.123755  0  -0.298135  -0.492431  0  2.056604  0
O  O123  1  0.31229079  0.19410072  0.21480657  1  -1.106325  0  -0.32565  -0.468548  0  2.242044  0
O  O124  1  0.23993197  0.64487020  0.83059208  1  -1.126799  0  -0.297884  -0.493528  0  2.057213  0
O  O125  1  0.31371254  0.80634266  0.78489997  1  -1.103429  0  -0.325247  -0.46827  0  2.243354  0
