# generated using pymatgen
data_CdH11C12N5Cl2O3
_symmetry_space_group_name_H-M   'P 1'
_cell_length_a   7.29635543
_cell_length_b   9.19171191
_cell_length_c   11.43759148
_cell_angle_alpha   83.26147423
_cell_angle_beta   89.14488005
_cell_angle_gamma   88.08974917
_symmetry_Int_Tables_number   1
_chemical_formula_structural   CdH11C12N5Cl2O3
_chemical_formula_sum   'Cd2 H22 C24 N10 Cl4 O6'
_cell_volume   761.30430657
_cell_formula_units_Z   2
loop_
 _symmetry_equiv_pos_site_id
 _symmetry_equiv_pos_as_xyz
  1  'x, y, z'
loop_
 _atom_site_type_symbol
 _atom_site_label
 _atom_site_symmetry_multiplicity
 _atom_site_fract_x
 _atom_site_fract_y
 _atom_site_fract_z
 _atom_site_occupancy
 _atom_site_hle17_bader_spin_density
 _atom_site_hle17_ddec_charge
 _atom_site_hle17_ddec_spin_density
 _atom_site_hle17_ddec_sum_bond_order
 _atom_site_hle17_magmom
 _atom_site_hse06_10hf_bader_spin_density
 _atom_site_hse06_10hf_ddec_charge
 _atom_site_hse06_10hf_ddec_spin_density
 _atom_site_hse06_10hf_ddec_sum_bond_order
 _atom_site_hse06_10hf_magmom
 _atom_site_hse06_bader_spin_density
 _atom_site_hse06_ddec_charge
 _atom_site_hse06_ddec_spin_density
 _atom_site_hse06_ddec_sum_bond_order
 _atom_site_hse06_magmom
 _atom_site_pbe_bader_spin_density
 _atom_site_pbe_cm5_charge
 _atom_site_pbe_ddec_charge
 _atom_site_pbe_ddec_spin_density
 _atom_site_pbe_ddec_sum_bond_order
 _atom_site_pbe_magmom
Cd  Cd0  1  0.24902714  0.42296838  0.49514473  1  0  0.913433  0  1.992165  0  0  0.738846  0  2.459173  0  0  0.784932  0  2.419361  0  0  0.597505  0.708794  0  2.484725  0
Cd  Cd1  1  0.75097490  0.57703165  0.50485577  1  0  0.913453  0  1.99216  0  0  0.738874  0  2.45916  0  0  0.784956  0  2.419352  0  0  0.597527  0.708824  0  2.484703  0
H  H2  1  0.48289083  0.42295550  0.27302222  1  0  0.262336  0  0.959666  0  0  0.239834  0  1.036675  0  0  0.246406  0  1.032818  0  0  0.294782  0.234833  0  1.039791  0
H  H3  1  0.51710989  0.57704235  0.72697763  1  0  0.262324  0  0.95968  0  0  0.23982  0  1.036703  0  0  0.246393  0  1.032843  0  0  0.294766  0.23482  0  1.039826  0
H  H4  1  0.07074868  0.23925858  0.72291509  1  0  0.077029  0  0.962514  0  0  0.081967  0  1.033691  0  0  0.084555  0  1.031128  0  0  0.103094  0.078317  0  1.038713  0
H  H5  1  0.92925036  0.76074694  0.27708056  1  0  0.077033  0  0.962452  0  0  0.08196  0  1.033624  0  0  0.084547  0  1.031061  0  0  0.103093  0.07831  0  1.038648  0
H  H6  1  0.01575195  0.97731813  0.80671429  1  0  0.114084  0  0.946288  0  0  0.119417  0  1.010764  0  0  0.123907  0  1.007765  0  0  0.109214  0.115777  0  1.013316  0
H  H7  1  0.98423885  0.02268854  0.19328227  1  0  0.114077  0  0.94612  0  0  0.119359  0  1.010675  0  0  0.123849  0  1.007677  0  0  0.109207  0.11572  0  1.01323  0
H  H8  1  0.11045406  0.77722291  0.68531917  1  0  0.104366  0  0.980291  0  0  0.111985  0  1.046123  0  0  0.114765  0  1.044044  0  0  0.093135  0.109046  0  1.049481  0
H  H9  1  0.88953967  0.22278045  0.31468202  1  0  0.104391  0  0.980296  0  0  0.111996  0  1.046129  0  0  0.114776  0  1.04405  0  0  0.093139  0.10906  0  1.049484  0
H  H10  1  0.26528604  0.84239817  0.49028950  1  0  0.108809  0  0.959477  0  0  0.114598  0  1.029828  0  0  0.117601  0  1.029461  0  0  0.096386  0.112569  0  1.02938  0
H  H11  1  0.73470920  0.15760080  0.50971208  1  0  0.10883  0  0.95942  0  0  0.11467  0  1.029699  0  0  0.117674  0  1.029331  0  0  0.096425  0.112643  0  1.02925  0
H  H12  1  0.38328582  0.03274477  0.33675175  1  0  0.113598  0  0.938713  0  0  0.12073  0  1.001442  0  0  0.124999  0  0.996616  0  0  0.12557  0.118989  0  1.002178  0
H  H13  1  0.61671621  0.96725417  0.66324622  1  0  0.113623  0  0.938728  0  0  0.120733  0  1.001473  0  0  0.125003  0  0.996644  0  0  0.125561  0.118989  0  1.002206  0
H  H14  1  0.66286475  0.55247790  0.17827808  1  0  0.135523  0  0.964048  0  0  0.140977  0  1.032491  0  0  0.144662  0  1.028779  0  0  0.107088  0.138259  0  1.035302  0
H  H15  1  0.33714158  0.44751882  0.82172616  1  0  0.135577  0  0.964026  0  0  0.141011  0  1.032494  0  0  0.144696  0  1.028784  0  0  0.107107  0.138298  0  1.035304  0
H  H16  1  0.83830997  0.43293894  0.83510074  1  0  0.128868  0  0.958037  0  0  0.130842  0  1.035184  0  0  0.134239  0  1.03139  0  0  0.117869  0.128079  0  1.038184  0
H  H17  1  0.16169208  0.56706109  0.16490063  1  0  0.128891  0  0.958007  0  0  0.130822  0  1.03519  0  0  0.13422  0  1.031394  0  0  0.11788  0.12806  0  1.03819  0
H  H18  1  0.72166485  0.19408407  0.83909432  1  0  0.109545  0  0.939059  0  0  0.130511  0  1.000786  0  0  0.130926  0  1.001092  0  0  0.104895  0.130082  0  1.000697  0
H  H19  1  0.27833440  0.80591707  0.16090524  1  0  0.109567  0  0.939105  0  0  0.130534  0  1.000829  0  0  0.130948  0  1.001136  0  0  0.104904  0.130105  0  1.000743  0
H  H20  1  0.52769939  0.15139587  0.93236098  1  0  0.128401  0  0.928222  0  0  0.145099  0  0.991898  0  0  0.146547  0  0.99085  0  0  0.112437  0.14392  0  0.992784  0
H  H21  1  0.47229993  0.84860418  0.06764044  1  0  0.128389  0  0.928222  0  0  0.145085  0  0.991907  0  0  0.146535  0  0.990856  0  0  0.112429  0.143907  0  0.992789  0
H  H22  1  0.75049606  0.08923809  0.98110866  1  0  0.123591  0  0.921955  0  0  0.138341  0  0.990344  0  0  0.140291  0  0.987723  0  0  0.112562  0.138634  0  0.988928  0
H  H23  1  0.24950460  0.91076085  0.01888934  1  0  0.123588  0  0.921877  0  0  0.138335  0  0.990278  0  0  0.140285  0  0.987658  0  0  0.112557  0.138634  0  0.988852  0
C  C24  1  0.11081356  0.14719814  0.67496247  1  0  0.143757  0  3.699773  0  0  0.113338  0  3.949348  0  0  0.120637  0  3.967154  0  0  0.049676  0.108446  0  3.939814  0
C  C25  1  0.88918282  0.85280521  0.32503430  1  0  0.143732  0  3.699636  0  0  0.113369  0  3.949137  0  0  0.120667  0  3.96694  0  0  0.049675  0.108478  0  3.939606  0
C  C26  1  0.08060343  0.00265661  0.72073116  1  0  -0.097926  0  3.687164  0  0  -0.113815  0  3.942224  0  0  -0.119652  0  3.960791  0  0  -0.07796  -0.110449  0  3.931  0
C  C27  1  0.91939023  0.99734675  0.27926654  1  0  -0.097803  0  3.686867  0  0  -0.113678  0  3.941898  0  0  -0.119516  0  3.960468  0  0  -0.077937  -0.110311  0  3.930678  0
C  C28  1  0.13499569  0.89138728  0.65357514  1  0  0.002582  0  3.693131  0  0  -0.019814  0  3.950022  0  0  -0.016045  0  3.967822  0  0  -0.07216  -0.022204  0  3.940046  0
C  C29  1  0.86499802  0.10861608  0.34642518  1  0  0.002471  0  3.693081  0  0  -0.019888  0  3.949936  0  0  -0.01612  0  3.967736  0  0  -0.072196  -0.022283  0  3.939968  0
C  C30  1  0.21987134  0.92722432  0.54444366  1  0  -0.139219  0  3.678527  0  0  -0.159679  0  3.930882  0  0  -0.167012  0  3.953454  0  0  -0.081491  -0.155151  0  3.916297  0
C  C31  1  0.78012515  0.07277683  0.45555507  1  0  -0.139252  0  3.678435  0  0  -0.159769  0  3.930753  0  0  -0.167102  0  3.953324  0  0  -0.081514  -0.155237  0  3.916167  0
C  C32  1  0.24733552  0.07493588  0.50471211  1  0  0.199449  0  3.810492  0  0  0.200974  0  4.053174  0  0  0.20581  0  4.076023  0  0  0.113199  0.197795  0  4.037673  0
C  C33  1  0.75266239  0.92506307  0.49528593  1  0  0.199495  0  3.810308  0  0  0.201057  0  4.052949  0  0  0.205894  0  4.075797  0  0  0.113192  0.197879  0  4.037447  0
C  C34  1  0.34183619  0.11699138  0.39232981  1  0  0.02764  0  3.623035  0  0  -0.018468  0  3.892315  0  0  -0.00965  0  3.900768  0  0  0.061839  -0.024415  0  3.885752  0
C  C35  1  0.65816314  0.88300647  0.60766919  1  0  0.027544  0  3.623076  0  0  -0.01857  0  3.892354  0  0  -0.009755  0  3.900812  0  0  0.061829  -0.024514  0  3.885784  0
C  C36  1  0.53466391  0.24631404  0.17434237  1  0  0.491205  0  3.865856  0  0  0.444024  0  4.156542  0  0  0.472513  0  4.158507  0  0  0.238166  0.425055  0  4.155319  0
C  C37  1  0.46533820  0.75368379  0.82565833  1  0  0.491229  0  3.865725  0  0  0.44403  0  4.15644  0  0  0.47252  0  4.158406  0  0  0.238196  0.425057  0  4.155218  0
C  C38  1  0.63561260  0.34935812  0.09127901  1  0  -0.010443  0  3.701968  0  0  -0.017138  0  3.95609  0  0  -0.022165  0  3.978527  0  0  0.073489  -0.014295  0  3.941789  0
C  C39  1  0.36439231  0.65063861  0.90872262  1  0  -0.010415  0  3.701997  0  0  -0.017117  0  3.956131  0  0  -0.022143  0  3.978567  0  0  0.073487  -0.014269  0  3.941835  0
C  C40  1  0.68511080  0.49154284  0.10344904  1  0  -0.166228  0  3.719295  0  0  -0.20857  0  3.994257  0  0  -0.206276  0  4.013251  0  0  -0.096475  -0.210407  0  3.982448  0
C  C41  1  0.31489404  0.50845608  0.89655326  1  0  -0.166314  0  3.71931  0  0  -0.208657  0  3.994263  0  0  -0.206368  0  4.013254  0  0  -0.096503  -0.210503  0  3.982467  0
C  C42  1  0.77493893  0.54389609  0.99788274  1  0  0.005817  0  3.791632  0  0  -0.016556  0  4.068873  0  0  -0.025873  0  4.093369  0  0  0.055038  -0.011437  0  4.05296  0
C  C43  1  0.22506453  0.45610394  0.00212036  1  0  0.005774  0  3.791716  0  0  -0.016573  0  4.068864  0  0  -0.025878  0  4.093345  0  0  0.054991  -0.011452  0  4.052949  0
C  C44  1  0.77997079  0.43338720  0.92297529  1  0  -0.00602  0  3.572505  0  0  -0.072312  0  3.857776  0  0  -0.062541  0  3.871586  0  0  0.030886  -0.077006  0  3.847529  0
C  C45  1  0.22002993  0.56661174  0.07702620  1  0  -0.006059  0  3.572691  0  0  -0.0723  0  3.857925  0  0  -0.062531  0  3.871729  0  0  0.030857  -0.077001  0  3.847686  0
C  C46  1  0.67268135  0.17866825  0.93045539  1  0  -0.170643  0  3.590202  0  0  -0.276864  0  3.842059  0  0  -0.272833  0  3.849162  0  0  -0.128072  -0.279954  0  3.836852  0
C  C47  1  0.32732070  0.82133178  0.06954598  1  0  -0.170622  0  3.590176  0  0  -0.276852  0  3.842057  0  0  -0.272818  0  3.849154  0  0  -0.128049  -0.279941  0  3.836849  0
N  N48  1  0.19080574  0.18192299  0.56988685  1  0  -0.359701  0  3.285314  0  0  -0.283898  0  3.534086  0  0  -0.304214  0  3.556483  0  0  -0.334481  -0.270304  0  3.519026  0
N  N49  1  0.80919208  0.81807816  0.43011011  1  0  -0.359733  0  3.285156  0  0  -0.283989  0  3.533954  0  0  -0.304302  0  3.556348  0  0  -0.334494  -0.270397  0  3.518899  0
N  N50  1  0.37636934  0.25416863  0.36567938  1  0  -0.128457  0  3.327497  0  0  -0.077398  0  3.601782  0  0  -0.086319  0  3.62136  0  0  -0.21608  -0.072267  0  3.58855  0
N  N51  1  0.62363137  0.74582922  0.63431959  1  0  -0.12837  0  3.32742  0  0  -0.077285  0  3.60167  0  0  -0.086204  0  3.621248  0  0  -0.216045  -0.072153  0  3.588437  0
N  N52  1  0.46854774  0.31257808  0.27063362  1  0  -0.286938  0  3.443602  0  0  -0.233614  0  3.685887  0  0  -0.255875  0  3.704279  0  0  -0.288701  -0.218305  0  3.673415  0
N  N53  1  0.53145300  0.68741977  0.72936711  1  0  -0.2869  0  3.443438  0  0  -0.233582  0  3.685725  0  0  -0.255849  0  3.704122  0  0  -0.288693  -0.218277  0  3.673266  0
N  N54  1  0.69612017  0.31641307  0.98026845  1  0  0.012734  0  3.525258  0  0  0.109994  0  3.737818  0  0  0.096508  0  3.767302  0  0  -0.225469  0.11796  0  3.718779  0
N  N55  1  0.30388192  0.68358587  0.01973302  1  0  0.01274  0  3.525321  0  0  0.110004  0  3.737847  0  0  0.096519  0  3.767333  0  0  -0.225453  0.11797  0  3.718813  0
N  N56  1  0.84745728  0.68582681  0.97187764  1  0  0.474292  0  4.010404  0  0  0.531848  0  4.269716  0  0  0.554213  0  4.277911  0  0  0.041734  0.517374  0  4.263367  0
N  N57  1  0.15254344  0.31417213  0.02812385  1  0  0.474235  0  4.010356  0  0  0.531815  0  4.269602  0  0  0.554177  0  4.277797  0  0  0.041769  0.517357  0  4.263227  0
Cl  Cl58  1  0.95760125  0.47319583  0.35110884  1  0  -0.528764  0  1.060286  0  0  -0.463693  0  1.358054  0  0  -0.481484  0  1.336326  0  0  -0.274737  -0.450609  0  1.374799  0
Cl  Cl59  1  0.04239805  0.52680421  0.64889170  1  0  -0.528739  0  1.060274  0  0  -0.463666  0  1.358034  0  0  -0.481455  0  1.336306  0  0  -0.274725  -0.450581  0  1.374781  0
Cl  Cl60  1  0.43408698  0.62364305  0.37041536  1  0  -0.549878  0  0.96757  0  0  -0.484939  0  1.239506  0  0  -0.501832  0  1.218812  0  0  -0.286561  -0.472578  0  1.250564  0
Cl  Cl61  1  0.56591782  0.37635587  0.62958432  1  0  -0.549901  0  0.967603  0  0  -0.484961  0  1.23954  0  0  -0.501847  0  1.218834  0  0  -0.286564  -0.472598  0  1.250596  0
O  O62  1  0.50787860  0.11684731  0.16218920  1  0  -0.491502  0  1.913107  0  0  -0.445649  0  2.121259  0  0  -0.465879  0  2.118171  0  0  -0.271024  -0.432263  0  2.12208  0
O  O63  1  0.49212483  0.88315162  0.83781050  1  0  -0.491564  0  1.913002  0  0  -0.445703  0  2.121165  0  0  -0.465932  0  2.118074  0  0  -0.271063  -0.432317  0  2.121985  0
O  O64  1  0.91909903  0.71849072  0.87296624  1  0  -0.364252  0  1.778378  0  0  -0.354306  0  1.98502  0  0  -0.367074  0  1.983312  0  0  -0.1371  -0.344978  0  1.985732  0
O  O65  1  0.08089895  0.28150824  0.12703530  1  0  -0.364204  0  1.778325  0  0  -0.354245  0  1.984915  0  0  -0.367016  0  1.98321  0  0  -0.137068  -0.344938  0  1.985635  0
O  O66  1  0.83551827  0.77086745  0.04967489  1  0  -0.37711  0  1.720405  0  0  -0.366641  0  1.913557  0  0  -0.378823  0  1.909501  0  0  -0.148256  -0.357339  0  1.913515  0
O  O67  1  0.16448520  0.22913148  0.95032656  1  0  -0.377065  0  1.72039  0  0  -0.366609  0  1.91353  0  0  -0.37879  0  1.90948  0  0  -0.148285  -0.35731  0  1.913476  0
