# generated using pymatgen
data_Na4H18C12O17
_symmetry_space_group_name_H-M   'P 1'
_cell_length_a   8.71703426
_cell_length_b   10.62230507
_cell_length_c   10.99610000
_cell_angle_alpha   68.40735182
_cell_angle_beta   79.67207447
_cell_angle_gamma   81.77458243
_symmetry_Int_Tables_number   1
_chemical_formula_structural   Na4H18C12O17
_chemical_formula_sum   'Na8 H36 C24 O34'
_cell_volume   928.07892380
_cell_formula_units_Z   2
loop_
 _symmetry_equiv_pos_site_id
 _symmetry_equiv_pos_as_xyz
  1  'x, y, z'
loop_
 _atom_site_type_symbol
 _atom_site_label
 _atom_site_symmetry_multiplicity
 _atom_site_fract_x
 _atom_site_fract_y
 _atom_site_fract_z
 _atom_site_occupancy
 _atom_site_hle17_bader_spin_density
 _atom_site_hle17_ddec_charge
 _atom_site_hle17_ddec_spin_density
 _atom_site_hle17_ddec_sum_bond_order
 _atom_site_hle17_magmom
 _atom_site_hse06_10hf_bader_spin_density
 _atom_site_hse06_10hf_ddec_charge
 _atom_site_hse06_10hf_ddec_spin_density
 _atom_site_hse06_10hf_ddec_sum_bond_order
 _atom_site_hse06_10hf_magmom
 _atom_site_hse06_bader_spin_density
 _atom_site_hse06_ddec_charge
 _atom_site_hse06_ddec_spin_density
 _atom_site_hse06_ddec_sum_bond_order
 _atom_site_hse06_magmom
 _atom_site_pbe_bader_charge
 _atom_site_pbe_bader_spin_density
 _atom_site_pbe_cm5_charge
 _atom_site_pbe_ddec_charge
 _atom_site_pbe_ddec_spin_density
 _atom_site_pbe_ddec_sum_bond_order
 _atom_site_pbe_magmom
Na  Na0  1  0.08242020  0.07986905  0.68560036  1  0  0.909055  0  0.365295  0  0  0.86335  0  0.518785  0  0  0.874107  0  0.497173  0  0.889288  0  0.668471  0.855347  0  0.534461  0
Na  Na1  1  0.91757828  0.92013050  0.31440011  1  0  0.909057  0  0.365284  0  0  0.863334  0  0.518799  0  0  0.874093  0  0.497183  0  0.889287  0  0.668457  0.85533  0  0.534475  0
Na  Na2  1  0.33826901  0.86342505  0.85914167  1  0  0.892265  0  0.404143  0  0  0.856412  0  0.552127  0  0  0.86532  0  0.531308  0  0.874338  0  0.703248  0.849606  0  0.567375  0
Na  Na3  1  0.66173044  0.13657654  0.14085794  1  0  0.892268  0  0.404156  0  0  0.856406  0  0.552146  0  0  0.865319  0  0.531326  0  0.874326  0  0.703251  0.849595  0  0.567404  0
Na  Na4  1  0.63020739  0.67857450  0.08937510  1  0  0.910151  0  0.372261  0  0  0.869163  0  0.519984  0  0  0.878911  0  0.499649  0  0.888206  0  0.685344  0.862005  0  0.534668  0
Na  Na5  1  0.36979215  0.32142607  0.91062485  1  0  0.910153  0  0.372273  0  0  0.869166  0  0.519995  0  0  0.878914  0  0.499659  0  0.888206  0  0.68534  0.862013  0  0.534669  0
Na  Na6  1  0.73153766  0.20047483  0.79724724  1  0  0.89848  0  0.388624  0  0  0.850274  0  0.546137  0  0  0.861295  0  0.524483  0  0.882255  0  0.696629  0.841994  0  0.562072  0
Na  Na7  1  0.26846198  0.79952472  0.20275306  1  0  0.898481  0  0.388623  0  0  0.850277  0  0.546135  0  0  0.861296  0  0.524483  0  0.882254  0  0.696629  0.841994  0  0.562067  0
H  H8  1  0.33902422  0.06083379  0.93188840  1  0  0.406328  0  0.905844  0  0  0.377237  0  0.968219  0  0  0.388645  0  0.951345  0  0.626383  0  0.290078  0.369189  0  0.98011  0
H  H9  1  0.66097533  0.93916678  0.06811155  1  0  0.406267  0  0.905916  0  0  0.377166  0  0.968308  0  0  0.388577  0  0.951431  0  0.626385  0  0.290047  0.369119  0  0.980198  0
H  H10  1  0.16120953  0.05024114  0.97152855  1  0  0.419817  0  0.860933  0  0  0.391994  0  0.930752  0  0  0.402575  0  0.914666  0  0.616525  0  0.307404  0.384419  0  0.942294  0
H  H11  1  0.83879001  0.94975942  0.02847140  1  0  0.419819  0  0.860918  0  0  0.392003  0  0.930736  0  0  0.402587  0  0.914645  0  0.616517  0  0.307406  0.384427  0  0.942278  0
H  H12  1  0.69180592  0.89137947  0.82369684  1  0  0.438352  0  0.849102  0  0  0.412987  0  0.903627  0  0  0.421703  0  0.890762  0  0.639324  0  0.309331  0.406661  0  0.913054  0
H  H13  1  0.30819606  0.10862008  0.17630222  1  0  0.438351  0  0.849095  0  0  0.413001  0  0.903598  0  0  0.421717  0  0.890733  0  0.639343  0  0.309343  0.406677  0  0.913021  0
H  H14  1  0.61783177  0.77362888  0.80418736  1  0  0.41792  0  0.879408  0  0  0.387604  0  0.943789  0  0  0.397704  0  0.928625  0  0.616219  0  0.295149  0.380323  0  0.954737  0
H  H15  1  0.38216894  0.22637168  0.19581243  1  0  0.417924  0  0.879417  0  0  0.387605  0  0.94379  0  0  0.397705  0  0.928626  0  0.616217  0  0.295144  0.380324  0  0.954737  0
H  H16  1  0.05763440  0.79808900  0.76927162  1  0  0.426076  0  0.878925  0  0  0.395256  0  0.943044  0  0  0.405915  0  0.927269  0  0.664362  0  0.290064  0.387668  0  0.954282  0
H  H17  1  0.94236641  0.20191055  0.23072760  1  0  0.426093  0  0.8789  0  0  0.395266  0  0.943028  0  0  0.405923  0  0.927256  0  0.664296  0  0.290075  0.387678  0  0.954264  0
H  H18  1  0.01165701  0.80186476  0.91102224  1  0  0.428145  0  0.870433  0  0  0.403578  0  0.924417  0  0  0.413165  0  0.91031  0  0.633893  0  0.295406  0.396747  0  0.934511  0
H  H19  1  0.98834380  0.19813479  0.08897698  1  0  0.428136  0  0.870441  0  0  0.403573  0  0.924416  0  0  0.41316  0  0.91031  0  0.633868  0  0.295404  0.396742  0  0.93451  0
H  H20  1  0.56443276  0.38925761  0.61498702  1  0  0.373806  0  0.917973  0  0  0.348548  0  0.993041  0  0  0.359159  0  0.980901  0  0.643401  0  0.296719  0.341108  0  1.001578  0
H  H21  1  0.43556921  0.61074194  0.38501295  1  0  0.373803  0  0.917996  0  0  0.348536  0  0.993082  0  0  0.359152  0  0.980935  0  0.643395  0  0.296712  0.341096  0  1.001618  0
H  H22  1  0.57559301  0.08586291  0.46351040  1  0  0.137364  0  0.930789  0  0  0.148152  0  0.993441  0  0  0.151418  0  0.991502  0  0.106974  0  0.117295  0.145765  0  0.994931  0
H  H23  1  0.42440537  0.91413765  0.53648972  1  0  0.137356  0  0.930793  0  0  0.148124  0  0.993471  0  0  0.151389  0  0.991536  0  0.106895  0  0.117287  0.145738  0  0.994959  0
H  H24  1  0.71172869  0.20812490  0.40545405  1  0  0.133107  0  0.927945  0  0  0.146655  0  0.986055  0  0  0.149441  0  0.985084  0  0.086727  0  0.11964  0.144654  0  0.9868  0
H  H25  1  0.28826978  0.79187465  0.59454733  1  0  0.133072  0  0.927961  0  0  0.146628  0  0.986067  0  0  0.149413  0  0.985095  0  0.086698  0  0.119621  0.144626  0  0.986811  0
H  H26  1  0.34161021  0.39005218  0.50973990  1  0  0.132328  0  0.92873  0  0  0.145145  0  0.986985  0  0  0.148053  0  0.98524  0  0.070919  0  0.110689  0.14258  0  0.989087  0
H  H27  1  0.65839050  0.60994838  0.49025989  1  0  0.132339  0  0.928739  0  0  0.14516  0  0.986997  0  0  0.14807  0  0.985253  0  0.070918  0  0.110697  0.142595  0  0.989099  0
H  H28  1  0.33458688  0.24565894  0.46549590  1  0  0.128727  0  0.945975  0  0  0.136107  0  1.01332  0  0  0.139783  0  1.011224  0  0.073965  0  0.106269  0.133299  0  1.015247  0
H  H29  1  0.66541393  0.75434062  0.53450424  1  0  0.128712  0  0.945975  0  0  0.136085  0  1.013343  0  0  0.13976  0  1.011248  0  0.073952  0  0.106257  0.133276  0  1.01527  0
H  H30  1  0.90631567  0.87196216  0.58369144  1  0  0.389562  0  0.918095  0  0  0.352081  0  1.005857  0  0  0.366659  0  0.991485  0  0.638957  0  0.295305  0.341899  0  1.015693  0
H  H31  1  0.09368504  0.12803841  0.41630835  1  0  0.389553  0  0.918108  0  0  0.352061  0  1.005884  0  0  0.366638  0  0.991513  0  0.638954  0  0.295288  0.341879  0  1.015719  0
H  H32  1  0.91577379  0.38612198  0.61448410  1  0  0.374405  0  0.924544  0  0  0.349095  0  0.999406  0  0  0.359655  0  0.987367  0  0.636294  0  0.296532  0.341683  0  1.007924  0
H  H33  1  0.08422692  0.61387859  0.38551569  1  0  0.374413  0  0.924541  0  0  0.34911  0  0.999391  0  0  0.35967  0  0.987352  0  0.636288  0  0.296536  0.341698  0  1.007909  0
H  H34  1  0.91891284  0.53958680  0.90703514  1  0  0.142707  0  0.917039  0  0  0.154209  0  0.977099  0  0  0.157668  0  0.975002  0  0.095886  0  0.117512  0.151681  0  0.978715  0
H  H35  1  0.08108807  0.46041173  0.09296534  1  0  0.142704  0  0.917035  0  0  0.154205  0  0.977094  0  0  0.157664  0  0.974997  0  0.095912  0  0.11751  0.151676  0  0.97871  0
H  H36  1  0.78593798  0.60103227  0.79170693  1  0  0.129061  0  0.943101  0  0  0.141209  0  1.00474  0  0  0.144259  0  1.00326  0  0.098322  0  0.113654  0.139035  0  1.005768  0
H  H37  1  0.21406283  0.39896728  0.20829320  1  0  0.129048  0  0.943102  0  0  0.14119  0  1.00475  0  0  0.144246  0  1.003265  0  0.098313  0  0.113651  0.139017  0  1.005778  0
H  H38  1  0.14957719  0.48066833  0.61028881  1  0  0.130997  0  0.929682  0  0  0.143169  0  0.989371  0  0  0.146076  0  0.987612  0  0.065316  0  0.110316  0.140558  0  0.991537  0
H  H39  1  0.85042362  0.51933123  0.38971133  1  0  0.130977  0  0.929687  0  0  0.143155  0  0.989378  0  0  0.146062  0  0.987621  0  0.065318  0  0.11032  0.140544  0  0.991544  0
H  H40  1  0.15760465  0.53857275  0.74201483  1  0  0.127561  0  0.937599  0  0  0.135508  0  1.005405  0  0  0.139233  0  1.002964  0  0.063722  0  0.108839  0.132461  0  1.007922  0
H  H41  1  0.84239509  0.46142578  0.25798491  1  0  0.127539  0  0.937598  0  0  0.135496  0  1.005407  0  0  0.139222  0  1.002965  0  0.063779  0  0.108841  0.132449  0  1.007925  0
H  H42  1  0.58853663  0.41018583  0.12988144  1  0  0.386386  0  0.922104  0  0  0.35106  0  1.0069  0  0  0.36556  0  0.992458  0  0.634795  0  0.295874  0.340893  0  1.016789  0
H  H43  1  0.41146292  0.58981474  0.87011851  1  0  0.386413  0  0.922045  0  0  0.351056  0  1.006888  0  0  0.365559  0  0.99245  0  0.634727  0  0.295879  0.34089  0  1.016776  0
C  C44  1  0.76175954  0.04443119  0.57583907  1  0  0.758567  0  3.732022  0  0  0.712221  0  4.02916  0  0  0.745256  0  4.019343  0  1.543838  0  0.245121  0.68965  0  4.035535  0
C  C45  1  0.23824010  0.95556836  0.42416214  1  0  0.758641  0  3.731907  0  0  0.712295  0  4.029049  0  0  0.745329  0  4.019233  0  1.543691  0  0.245159  0.689725  0  4.035422  0
C  C46  1  0.64385238  0.14389130  0.49590527  1  0  -0.356553  0  3.634328  0  0  -0.397288  0  3.868303  0  0  -0.404842  0  3.875507  0  -0.065151  0  -0.156685  -0.391893  0  3.863285  0
C  C47  1  0.35614736  0.85610723  0.50409629  1  0  -0.356535  0  3.634357  0  0  -0.397268  0  3.868365  0  0  -0.404816  0  3.875555  0  -0.065025  0  -0.156676  -0.391871  0  3.86334  0
C  C48  1  0.53624209  0.23670320  0.55965845  1  0  0.261737  0  3.596393  0  0  0.263827  0  3.837372  0  0  0.267412  0  3.849655  0  0.54085  0  0.071329  0.261165  0  3.828801  0
C  C49  1  0.46375629  0.76329737  0.44034167  1  0  0.261725  0  3.596461  0  0  0.263831  0  3.837432  0  0  0.267418  0  3.849716  0  0.540848  0  0.071323  0.261169  0  3.828859  0
C  C50  1  0.41139598  0.31765844  0.46762681  1  0  -0.364951  0  3.606646  0  0  -0.407427  0  3.844381  0  0  -0.414417  0  3.849434  0  -0.043622  0  -0.16555  -0.40228  0  3.841149  0
C  C51  1  0.58860473  0.68234213  0.53237298  1  0  -0.364953  0  3.606652  0  0  -0.407442  0  3.844368  0  0  -0.414434  0  3.849425  0  -0.043619  0  -0.165558  -0.402294  0  3.841136  0
C  C52  1  0.48452362  0.39502996  0.32906727  1  0  0.755176  0  3.746325  0  0  0.708314  0  4.043364  0  0  0.741433  0  4.034855  0  1.543255  0  0.230011  0.685753  0  4.048792  0
C  C53  1  0.51547709  0.60497060  0.67093160  1  0  0.755206  0  3.74631  0  0  0.70838  0  4.0433  0  0  0.741497  0  4.034792  0  1.543249  0  0.23005  0.685817  0  4.048729  0
C  C54  1  0.44329758  0.14976324  0.69264723  1  0  0.628291  0  3.867636  0  0  0.585116  0  4.163145  0  0  0.615608  0  4.156835  0  1.585251  0  0.208255  0.564536  0  4.166683  0
C  C55  1  0.55669953  0.85023835  0.30735270  1  0  0.628201  0  3.867798  0  0  0.585023  0  4.163308  0  0  0.615512  0  4.157005  0  1.585082  0  0.208221  0.564442  0  4.166845  0
C  C56  1  0.72184315  0.42688512  0.95241119  1  0  0.767312  0  3.73288  0  0  0.723085  0  4.029461  0  0  0.756319  0  4.01895  0  1.539589  0  0.243019  0.700282  0  4.036378  0
C  C57  1  0.27815639  0.57311545  0.04758877  1  0  0.76728  0  3.732932  0  0  0.723132  0  4.029391  0  0  0.756339  0  4.018917  0  1.539594  0  0.243082  0.700328  0  4.03631  0
C  C58  1  0.84666704  0.50773266  0.85333391  1  0  -0.357475  0  3.638609  0  0  -0.399083  0  3.872795  0  0  -0.407105  0  3.88032  0  -0.060679  0  -0.16105  -0.393369  0  3.867637  0
C  C59  1  0.15333260  0.49226689  0.14666639  1  0  -0.357407  0  3.638643  0  0  -0.399032  0  3.872855  0  0  -0.407052  0  3.880386  0  -0.060681  0  -0.161039  -0.393318  0  3.867697  0
C  C60  1  0.94808041  0.43844812  0.76293262  1  0  0.262519  0  3.594432  0  0  0.263036  0  3.840102  0  0  0.266652  0  3.852474  0  0.532276  0  0.070852  0.260328  0  3.831593  0
C  C61  1  0.05191913  0.56155244  0.23706733  1  0  0.262474  0  3.594472  0  0  0.262954  0  3.840229  0  0  0.266569  0  3.852603  0  0.532271  0  0.070857  0.260246  0  3.831721  0
C  C62  1  0.08102545  0.52953573  0.67717863  1  0  -0.361069  0  3.605513  0  0  -0.404767  0  3.849222  0  0  -0.411538  0  3.854216  0  -0.032599  0  -0.162644  -0.399762  0  3.846223  0
C  C63  1  0.91897536  0.47046382  0.32282241  1  0  -0.360943  0  3.605493  0  0  -0.404683  0  3.849252  0  0  -0.411453  0  3.854248  0  -0.032648  0  -0.162634  -0.399677  0  3.846251  0
C  C64  1  0.01622025  0.66967261  0.59590108  1  0  0.750565  0  3.743515  0  0  0.700539  0  4.044281  0  0  0.733945  0  4.035548  0  1.549492  0  0.231621  0.677838  0  4.04973  0
C  C65  1  0.98377930  0.33032795  0.40409979  1  0  0.750465  0  3.743617  0  0  0.700472  0  4.044338  0  0  0.733876  0  4.035607  0  1.549568  0  0.231549  0.677773  0  4.049787  0
C  C66  1  0.02532288  0.29969209  0.85096441  1  0  0.610647  0  3.883841  0  0  0.568781  0  4.178308  0  0  0.598824  0  4.173104  0  1.567153  0  0.206497  0.548544  0  4.180964  0
C  C67  1  0.97467793  0.70030746  0.14903573  1  0  0.610655  0  3.883834  0  0  0.568803  0  4.178297  0  0  0.598845  0  4.173093  0  1.567132  0  0.206501  0.548565  0  4.180954  0
O  O68  1  0.26124203  0.99911861  0.99533935  1  0  -0.894355  0  1.780357  0  0  -0.853051  0  1.953735  0  0  -0.868338  0  1.919614  0  -1.283633  0  -0.670588  -0.84201  0  1.97769  0
O  O69  1  0.73875878  0.00088094  0.00466078  1  0  -0.894298  0  1.780406  0  0  -0.852988  0  1.95379  0  0  -0.868283  0  1.919665  0  -1.283624  0  -0.670556  -0.841949  0  1.977747  0
O  O70  1  0.61728308  0.82157064  0.86565007  1  0  -0.895071  0  1.780965  0  0  -0.855146  0  1.949122  0  0  -0.86973  0  1.917484  0  -1.271482  0  -0.681138  -0.844768  0  1.971871  0
O  O71  1  0.38271637  0.17843095  0.13434863  1  0  -0.895078  0  1.780999  0  0  -0.855169  0  1.949132  0  0  -0.869753  0  1.917495  0  -1.27149  0  -0.681151  -0.844791  0  1.971879  0
O  O72  1  0.08571446  0.83926162  0.82922196  1  0  -0.928506  0  1.731185  0  0  -0.88775  0  1.900918  0  0  -0.902778  0  1.867456  0  -1.3363  0  -0.699167  -0.87683  0  1.924637  0
O  O73  1  0.91428508  0.16073894  0.17077708  1  0  -0.928513  0  1.731173  0  0  -0.887755  0  1.900911  0  0  -0.902783  0  1.867453  0  -1.336203  0  -0.699178  -0.876836  0  1.924638  0
O  O74  1  0.83018862  0.95620341  0.52110719  1  0  -0.622971  0  2.115248  0  0  -0.572785  0  2.36114  0  0  -0.596502  0  2.346492  0  -1.199373  0  -0.370164  -0.556287  0  2.370736  0
O  O75  1  0.16981093  0.04379716  0.47889277  1  0  -0.622993  0  2.115226  0  0  -0.5728  0  2.361115  0  0  -0.596518  0  2.346468  0  -1.199233  0  -0.370169  -0.556304  0  2.370711  0
O  O76  1  0.79282504  0.04369657  0.68263170  1  0  -0.68027  0  1.957216  0  0  -0.634638  0  2.193002  0  0  -0.654071  0  2.179173  0  -1.214008  0  -0.370185  -0.62119  0  2.202788  0
O  O77  1  0.20717460  0.95630299  0.31736770  1  0  -0.680293  0  1.957146  0  0  -0.634665  0  2.192932  0  0  -0.6541  0  2.179113  0  -1.214007  0  -0.370195  -0.621216  0  2.202715  0
O  O78  1  0.35916550  0.06538990  0.68621612  1  0  -0.734908  0  1.973526  0  0  -0.694057  0  2.224012  0  0  -0.715815  0  2.212638  0  -1.237667  0  -0.458165  -0.678796  0  2.231489  0
O  O79  1  0.64082908  0.93461372  0.31378346  1  0  -0.734848  0  1.97362  0  0  -0.693978  0  2.224075  0  0  -0.715739  0  2.212708  0  -1.237601  0  -0.458119  -0.678714  0  2.231551  0
O  O80  1  0.45749530  0.16903728  0.79795078  1  0  -0.729496  0  1.988266  0  0  -0.673737  0  2.217668  0  0  -0.69641  0  2.205068  0  -1.21773  0  -0.419991  -0.657762  0  2.225941  0
O  O81  1  0.54250551  0.83096227  0.20204936  1  0  -0.729494  0  1.988349  0  0  -0.673729  0  2.217752  0  0  -0.696402  0  2.205158  0  -1.217608  0  -0.420007  -0.657753  0  2.226025  0
O  O82  1  0.53026679  0.51079005  0.30030060  1  0  -0.652904  0  1.96254  0  0  -0.60585  0  2.19943  0  0  -0.628079  0  2.189019  0  -1.194723  0  -0.344012  -0.590745  0  2.207237  0
O  O83  1  0.46973392  0.48921052  0.69969919  1  0  -0.652961  0  1.962528  0  0  -0.605906  0  2.19938  0  0  -0.628131  0  2.188966  0  -1.194715  0  -0.344052  -0.590804  0  2.207195  0
O  O84  1  0.50148241  0.33423377  0.24307978  1  0  -0.680351  0  1.996886  0  0  -0.615245  0  2.223936  0  0  -0.641627  0  2.212057  0  -1.210906  0  -0.331543  -0.596418  0  2.231535  0
O  O85  1  0.49851840  0.66576578  0.75691945  1  0  -0.680341  0  1.996876  0  0  -0.615237  0  2.223941  0  0  -0.641621  0  2.212061  0  -1.210831  0  -0.331534  -0.596412  0  2.231542  0
O  O86  1  0.63150591  0.32364316  0.57774462  1  0  -0.599933  0  2.08878  0  0  -0.562239  0  2.322612  0  0  -0.577392  0  2.312729  0  -1.176443  0  -0.427698  -0.551357  0  2.329802  0
O  O87  1  0.36849490  0.67635639  0.42225552  1  0  -0.599898  0  2.088795  0  0  -0.562194  0  2.322621  0  0  -0.577352  0  2.312729  0  -1.176442  0  -0.427674  -0.551311  0  2.32981  0
O  O88  1  0.66947455  0.47411460  0.04846150  1  0  -0.629074  0  2.127207  0  0  -0.581482  0  2.372345  0  0  -0.604549  0  2.356278  0  -1.196721  0  -0.384744  -0.565397  0  2.383149  0
O  O89  1  0.33052616  0.52588597  0.95153738  1  0  -0.629092  0  2.127231  0  0  -0.58151  0  2.372371  0  0  -0.604572  0  2.356319  0  -1.196742  0  -0.384783  -0.565426  0  2.383173  0
O  O90  1  0.67080002  0.32581960  0.94632467  1  0  -0.702083  0  1.953268  0  0  -0.6637  0  2.200815  0  0  -0.682902  0  2.187321  0  -1.208874  0  -0.42184  -0.650449  0  2.210382  0
O  O91  1  0.32919953  0.67418096  0.05367528  1  0  -0.702084  0  1.953229  0  0  -0.663737  0  2.200741  0  0  -0.682927  0  2.187258  0  -1.208863  0  -0.421883  -0.650487  0  2.210308  0
O  O92  1  0.09893802  0.30416285  0.93910451  1  0  -0.702493  0  1.962017  0  0  -0.652053  0  2.193133  0  0  -0.675232  0  2.182686  0  -1.216404  0  -0.392697  -0.635658  0  2.199994  0
O  O93  1  0.90106152  0.69583772  0.06089544  1  0  -0.702497  0  1.96201  0  0  -0.652061  0  2.193123  0  0  -0.67524  0  2.182675  0  -1.216398  0  -0.392704  -0.635659  0  2.199975  0
O  O94  1  0.00676606  0.19179546  0.83318588  1  0  -0.72801  0  1.959582  0  0  -0.676337  0  2.194304  0  0  -0.698263  0  2.181843  0  -1.219309  0  -0.431416  -0.660911  0  2.202499  0
O  O95  1  0.99323592  0.80820409  0.16681318  1  0  -0.728021  0  1.959583  0  0  -0.676324  0  2.194258  0  0  -0.698249  0  2.181796  0  -1.219295  0  -0.431416  -0.660897  0  2.202453  0
O  O96  1  0.98556860  0.69611917  0.48126100  1  0  -0.64805  0  1.969274  0  0  -0.601275  0  2.209533  0  0  -0.623496  0  2.198923  0  -1.199912  0  -0.338514  -0.586163  0  2.217287  0
O  O97  1  0.01443221  0.30388038  0.51873823  1  0  -0.64801  0  1.969356  0  0  -0.60123  0  2.209578  0  0  -0.62345  0  2.198967  0  -1.200004  0  -0.338467  -0.586115  0  2.217325  0
O  O98  1  0.98906716  0.76026945  0.65269313  1  0  -0.650647  0  2.055459  0  0  -0.57748  0  2.275331  0  0  -0.6052  0  2.265028  0  -1.192262  0  -0.312786  -0.558055  0  2.281942  0
O  O99  1  0.01093365  0.23973010  0.34730700  1  0  -0.650654  0  2.055472  0  0  -0.57746  0  2.275297  0  0  -0.605178  0  2.264997  0  -1.192248  0  -0.312774  -0.558039  0  2.281913  0
O  O100  1  0.84988312  0.42054782  0.68215913  1  0  -0.60822  0  2.092925  0  0  -0.568323  0  2.326476  0  0  -0.583466  0  2.316541  0  -1.169991  0  -0.43588  -0.557572  0  2.333915  0
O  O101  1  0.15011653  0.57945173  0.31784117  1  0  -0.608234  0  2.092946  0  0  -0.568327  0  2.326505  0  0  -0.583469  0  2.31657  0  -1.169988  0  -0.435891  -0.557576  0  2.333944  0
