# generated using pymatgen
data_DyH6C8NO6
_symmetry_space_group_name_H-M   'P 1'
_cell_length_a   4.54003308
_cell_length_b   14.01329432
_cell_length_c   16.24037404
_cell_angle_alpha   89.99998133
_cell_angle_beta   90.00014128
_cell_angle_gamma   94.82495600
_symmetry_Int_Tables_number   1
_chemical_formula_structural   DyH6C8NO6
_chemical_formula_sum   'Dy4 H24 C32 N4 O24'
_cell_volume   1029.56448547
_cell_formula_units_Z   4
loop_
 _symmetry_equiv_pos_site_id
 _symmetry_equiv_pos_as_xyz
  1  'x, y, z'
loop_
 _atom_site_type_symbol
 _atom_site_label
 _atom_site_symmetry_multiplicity
 _atom_site_fract_x
 _atom_site_fract_y
 _atom_site_fract_z
 _atom_site_occupancy
 _atom_site_hle17_bader_spin_density
 _atom_site_hle17_ddec_charge
 _atom_site_hle17_ddec_spin_density
 _atom_site_hle17_ddec_sum_bond_order
 _atom_site_hle17_magmom
 _atom_site_hse06_10hf_bader_spin_density
 _atom_site_hse06_10hf_ddec_charge
 _atom_site_hse06_10hf_ddec_spin_density
 _atom_site_hse06_10hf_ddec_sum_bond_order
 _atom_site_hse06_10hf_magmom
 _atom_site_hse06_bader_spin_density
 _atom_site_hse06_ddec_charge
 _atom_site_hse06_ddec_spin_density
 _atom_site_hse06_ddec_sum_bond_order
 _atom_site_hse06_magmom
 _atom_site_pbe_bader_spin_density
 _atom_site_pbe_cm5_charge
 _atom_site_pbe_ddec_charge
 _atom_site_pbe_ddec_spin_density
 _atom_site_pbe_ddec_sum_bond_order
 _atom_site_pbe_magmom
Dy  Dy0  1  0.75665382  0.50234783  0.09049380  1  0  2.288214  0  1.635966  0  0  2.152872  0  2.086917  0  0  2.200247  0  2.045047  0  0  1.477731  2.115992  0  2.120848  0
Dy  Dy1  1  0.74334679  0.99765023  0.59049329  1  0  2.288231  0  1.635968  0  0  2.152881  0  2.086967  0  0  2.200272  0  2.045064  0  0  1.477787  2.116008  0  2.120886  0
Dy  Dy2  1  0.24334563  0.49765204  0.90950677  1  0  2.288215  0  1.635933  0  0  2.152877  0  2.086896  0  0  2.200238  0  2.045044  0  0  1.477735  2.116025  0  2.120778  0
Dy  Dy3  1  0.25665486  0.00234964  0.40950667  1  0  2.288212  0  1.635962  0  0  2.15288  0  2.086932  0  0  2.200268  0  2.04504  0  0  1.477765  2.116004  0  2.120859  0
H  H4  1  0.61711114  0.28210784  0.32425194  1  0  0.115503  0  0.930884  0  0  0.124402  0  0.991906  0  0  0.128953  0  0.987854  0  0  0.11317  0.121001  0  0.995015  0
H  H5  1  0.88287381  0.21789160  0.82424607  1  0  0.115507  0  0.930947  0  0  0.124422  0  0.991939  0  0  0.128978  0  0.987886  0  0  0.113166  0.12102  0  0.995048  0
H  H6  1  0.38288831  0.71789203  0.67574801  1  0  0.115498  0  0.930883  0  0  0.124396  0  0.99191  0  0  0.128948  0  0.987856  0  0  0.11317  0.120996  0  0.995018  0
H  H7  1  0.11712565  0.78210827  0.17575389  1  0  0.115503  0  0.93096  0  0  0.12442  0  0.991949  0  0  0.128976  0  0.987897  0  0  0.113161  0.121019  0  0.995058  0
H  H8  1  0.12148972  0.30523103  0.54923119  1  0  0.120667  0  0.916072  0  0  0.129294  0  0.976459  0  0  0.134233  0  0.971531  0  0  0.116413  0.125606  0  0.980247  0
H  H9  1  0.37851566  0.19476781  0.04922988  1  0  0.120642  0  0.916146  0  0  0.12928  0  0.976522  0  0  0.134221  0  0.971593  0  0  0.116399  0.125588  0  0.980308  0
H  H10  1  0.87850974  0.69476884  0.45076753  1  0  0.120619  0  0.916079  0  0  0.12928  0  0.976435  0  0  0.134219  0  0.971507  0  0  0.116407  0.125593  0  0.980223  0
H  H11  1  0.62148581  0.80523134  0.95077007  1  0  0.120638  0  0.91613  0  0  0.129269  0  0.97652  0  0  0.134208  0  0.971594  0  0  0.116404  0.12558  0  0.980305  0
H  H12  1  0.26926187  0.52004149  0.36132359  1  0  0.111315  0  0.947435  0  0  0.114022  0  1.019932  0  0  0.119268  0  1.014299  0  0  0.109751  0.110164  0  1.024125  0
H  H13  1  0.23073590  0.97995809  0.86132062  1  0  0.111383  0  0.947496  0  0  0.114067  0  1.02001  0  0  0.11931  0  1.014379  0  0  0.109788  0.110208  0  1.024203  0
H  H14  1  0.73073577  0.47995982  0.63867759  1  0  0.111297  0  0.947441  0  0  0.114007  0  1.019931  0  0  0.119251  0  1.014301  0  0  0.109764  0.110148  0  1.024124  0
H  H15  1  0.76926375  0.02004250  0.13867810  1  0  0.111396  0  0.947481  0  0  0.114077  0  1.019996  0  0  0.11932  0  1.014365  0  0  0.1098  0.110217  0  1.024189  0
H  H16  1  0.32298574  0.57575275  0.20551623  1  0  0.458417  0  0.836821  0  0  0.425952  0  0.901814  0  0  0.437539  0  0.884753  0  0  0.309462  0.417803  0  0.913787  0
H  H17  1  0.17701268  0.92424613  0.70551570  1  0  0.458367  0  0.836877  0  0  0.425879  0  0.901903  0  0  0.437466  0  0.884843  0  0  0.309453  0.41773  0  0.913876  0
H  H18  1  0.67700931  0.42424713  0.79448495  1  0  0.458374  0  0.836873  0  0  0.425887  0  0.901897  0  0  0.437472  0  0.884841  0  0  0.309444  0.417739  0  0.913869  0
H  H19  1  0.82299137  0.07575445  0.29448549  1  0  0.458391  0  0.836855  0  0  0.425901  0  0.901884  0  0  0.437489  0  0.884823  0  0  0.309447  0.417752  0  0.913857  0
H  H20  1  0.62514212  0.64401919  0.21357772  1  0  0.446308  0  0.796255  0  0  0.433636  0  0.839921  0  0  0.44133  0  0.831599  0  0  0.340243  0.428115  0  0.84594  0
H  H21  1  0.87485757  0.85597958  0.71357796  1  0  0.446291  0  0.796265  0  0  0.43362  0  0.839932  0  0  0.441315  0  0.831607  0  0  0.340241  0.428099  0  0.845947  0
H  H22  1  0.37485715  0.35597997  0.78642285  1  0  0.446318  0  0.796241  0  0  0.433645  0  0.839908  0  0  0.44134  0  0.831585  0  0  0.340245  0.428124  0  0.845924  0
H  H23  1  0.12514189  0.14402029  0.28642200  1  0  0.446291  0  0.796265  0  0  0.433621  0  0.83993  0  0  0.441316  0  0.831606  0  0  0.340237  0.428101  0  0.845944  0
H  H24  1  0.75796751  0.60053057  0.94456648  1  0  0.424018  0  0.872603  0  0  0.401912  0  0.923208  0  0  0.411728  0  0.908487  0  0  0.305863  0.394992  0  0.933589  0
H  H25  1  0.74203239  0.89946960  0.44456440  1  0  0.424011  0  0.872623  0  0  0.4019  0  0.923236  0  0  0.411721  0  0.908507  0  0  0.305866  0.39498  0  0.933617  0
H  H26  1  0.24202955  0.39946859  0.05543409  1  0  0.423963  0  0.872684  0  0  0.401852  0  0.923297  0  0  0.41167  0  0.908574  0  0  0.305856  0.394932  0  0.933678  0
H  H27  1  0.25796927  0.10053026  0.55543556  1  0  0.424016  0  0.872602  0  0  0.401908  0  0.92321  0  0  0.411727  0  0.908486  0  0  0.305868  0.394988  0  0.93359  0
C  C28  1  0.93587397  0.40489986  0.33399750  1  0  -0.060005  0  3.75613  0  0  -0.033326  0  3.990548  0  0  -0.044386  0  4.015432  0  0  -0.013212  -0.026264  0  3.973841  0
C  C29  1  0.56412266  0.09510172  0.83399329  1  0  -0.059822  0  3.755957  0  0  -0.033202  0  3.990425  0  0  -0.04426  0  4.015307  0  0  -0.013264  -0.02614  0  3.973713  0
C  C30  1  0.06412788  0.59510073  0.66600245  1  0  -0.05995  0  3.756027  0  0  -0.033271  0  3.990443  0  0  -0.04433  0  4.015329  0  0  -0.013162  -0.026208  0  3.973736  0
C  C31  1  0.43587699  0.90489886  0.16600605  1  0  -0.059777  0  3.755964  0  0  -0.033133  0  3.990412  0  0  -0.04419  0  4.015297  0  0  -0.013202  -0.026075  0  3.973703  0
C  C32  1  0.78427174  0.32018433  0.36277882  1  0  -0.030166  0  3.643572  0  0  -0.07052  0  3.893343  0  0  -0.066703  0  3.911643  0  0  -0.060342  -0.072687  0  3.88102  0
C  C33  1  0.71571155  0.17981583  0.86277407  1  0  -0.030238  0  3.643399  0  0  -0.070556  0  3.893121  0  0  -0.066748  0  3.91143  0  0  -0.060316  -0.072722  0  3.880798  0
C  C34  1  0.21572571  0.67981626  0.63722114  1  0  -0.030174  0  3.64355  0  0  -0.070529  0  3.893318  0  0  -0.066713  0  3.911617  0  0  -0.060356  -0.072696  0  3.880996  0
C  C35  1  0.28428571  0.82018405  0.13722527  1  0  -0.030288  0  3.643707  0  0  -0.07062  0  3.893438  0  0  -0.066815  0  3.91175  0  0  -0.060359  -0.072784  0  3.881114  0
C  C36  1  0.85051585  0.28388763  0.44004492  1  0  -0.061796  0  3.733726  0  0  -0.039516  0  3.974724  0  0  -0.049519  0  3.998054  0  0  -0.010717  -0.033269  0  3.959189  0
C  C37  1  0.64947568  0.21611609  0.94004320  1  0  -0.06182  0  3.733594  0  0  -0.039547  0  3.974631  0  0  -0.049555  0  3.997969  0  0  -0.010765  -0.0333  0  3.959094  0
C  C38  1  0.14948600  0.71611295  0.55995503  1  0  -0.061765  0  3.733693  0  0  -0.039473  0  3.974694  0  0  -0.049474  0  3.998023  0  0  -0.0107  -0.033226  0  3.959159  0
C  C39  1  0.35051976  0.78388522  0.05995860  1  0  -0.061738  0  3.733698  0  0  -0.039449  0  3.974731  0  0  -0.049455  0  3.998068  0  0  -0.010683  -0.033203  0  3.959194  0
C  C40  1  0.06669583  0.33299047  0.48897578  1  0  -0.073877  0  3.621389  0  0  -0.115197  0  3.878225  0  0  -0.11292  0  3.895074  0  0  -0.056834  -0.116357  0  3.86692  0
C  C41  1  0.43330038  0.16700905  0.98897365  1  0  -0.073765  0  3.621488  0  0  -0.115107  0  3.878306  0  0  -0.112832  0  3.89516  0  0  -0.056778  -0.116259  0  3.866992  0
C  C42  1  0.93330363  0.66700940  0.51102356  1  0  -0.073846  0  3.62136  0  0  -0.1152  0  3.878212  0  0  -0.112925  0  3.895063  0  0  -0.056835  -0.11636  0  3.866907  0
C  C43  1  0.56669907  0.83299082  0.01102568  1  0  -0.073824  0  3.621461  0  0  -0.115181  0  3.878317  0  0  -0.112905  0  3.89517  0  0  -0.056841  -0.116334  0  3.867004  0
C  C44  1  0.21681630  0.41793623  0.46050911  1  0  0.137161  0  3.825352  0  0  0.145681  0  4.083138  0  0  0.142065  0  4.110251  0  0  0.084004  0.147882  0  4.064783  0
C  C45  1  0.28317784  0.08206473  0.96050690  1  0  0.137088  0  3.825425  0  0  0.14565  0  4.083181  0  0  0.142033  0  4.110294  0  0  0.084008  0.14785  0  4.064823  0
C  C46  1  0.78318354  0.58206508  0.53949023  1  0  0.137137  0  3.825292  0  0  0.145653  0  4.083096  0  0  0.142036  0  4.110204  0  0  0.083999  0.147853  0  4.064745  0
C  C47  1  0.71681941  0.91793514  0.03949243  1  0  0.137041  0  3.825469  0  0  0.14561  0  4.083214  0  0  0.141988  0  4.110328  0  0  0.083988  0.14781  0  4.064858  0
C  C48  1  0.15110311  0.45398087  0.38275287  1  0  -0.08339  0  3.646031  0  0  -0.12246  0  3.898508  0  0  -0.120527  0  3.917261  0  0  -0.063143  -0.123368  0  3.885822  0
C  C49  1  0.34888556  0.04601867  0.88274887  1  0  -0.083474  0  3.64596  0  0  -0.122541  0  3.898464  0  0  -0.120612  0  3.917223  0  0  -0.063159  -0.123452  0  3.885786  0
C  C50  1  0.84889434  0.54601972  0.61724831  1  0  -0.083307  0  3.645933  0  0  -0.122378  0  3.898404  0  0  -0.120444  0  3.917155  0  0  -0.063129  -0.123287  0  3.885719  0
C  C51  1  0.65111169  0.95398120  0.11724985  1  0  -0.08348  0  3.646027  0  0  -0.122539  0  3.898519  0  0  -0.120612  0  3.917283  0  0  -0.063171  -0.123451  0  3.885846  0
C  C52  1  0.86956880  0.44148389  0.25058621  1  0  0.653872  0  3.918727  0  0  0.60813  0  4.206214  0  0  0.642432  0  4.198306  0  0  0.201043  0.584991  0  4.210549  0
C  C53  1  0.63042594  0.05851340  0.75058452  1  0  0.653574  0  3.919079  0  0  0.607895  0  4.206487  0  0  0.642197  0  4.198588  0  0  0.20102  0.584757  0  4.210821  0
C  C54  1  0.13043305  0.55851669  0.74941374  1  0  0.653713  0  3.918833  0  0  0.607987  0  4.206303  0  0  0.642288  0  4.1984  0  0  0.200963  0.584848  0  4.210641  0
C  C55  1  0.36957352  0.94148647  0.24941543  1  0  0.653679  0  3.918879  0  0  0.607959  0  4.206347  0  0  0.642259  0  4.198446  0  0  0.201061  0.584824  0  4.21068  0
C  C56  1  0.70020450  0.19051836  0.46791062  1  0  0.71727  0  3.850266  0  0  0.67053  0  4.138851  0  0  0.706166  0  4.128004  0  0  0.236705  0.646426  0  4.145156  0
C  C57  1  0.79979291  0.30948177  0.96790774  1  0  0.717361  0  3.85009  0  0  0.670565  0  4.138744  0  0  0.706203  0  4.127898  0  0  0.23673  0.646462  0  4.145049  0
C  C58  1  0.29979476  0.80948080  0.53208933  1  0  0.717271  0  3.850248  0  0  0.670504  0  4.138866  0  0  0.706139  0  4.128018  0  0  0.236693  0.6464  0  4.145172  0
C  C59  1  0.20020674  0.69051881  0.03209160  1  0  0.717415  0  3.850016  0  0  0.6706  0  4.138702  0  0  0.706237  0  4.127858  0  0  0.236752  0.646497  0  4.145008  0
N  N60  1  0.43246221  0.46215396  0.51415327  1  0  -0.154934  0  3.020815  0  0  -0.133819  0  3.308192  0  0  -0.133888  0  3.319015  0  0  -0.146367  -0.133662  0  3.300993  0
N  N61  1  0.06754085  0.03784561  0.01415240  1  0  -0.154906  0  3.020881  0  0  -0.133803  0  3.308263  0  0  -0.133867  0  3.319079  0  0  -0.146356  -0.133645  0  3.301063  0
N  N62  1  0.56753725  0.53784591  0.48584730  1  0  -0.154851  0  3.020783  0  0  -0.133727  0  3.308155  0  0  -0.13379  0  3.318972  0  0  -0.146315  -0.133571  0  3.300956  0
N  N63  1  0.93245861  0.96215426  0.98584694  1  0  -0.154802  0  3.020812  0  0  -0.133691  0  3.30818  0  0  -0.133747  0  3.318991  0  0  -0.146307  -0.133534  0  3.30098  0
O  O64  1  0.67642923  0.39601946  0.20528486  1  0  -0.678246  0  1.91437  0  0  -0.634755  0  2.139405  0  0  -0.65772  0  2.129395  0  0  -0.38059  -0.618513  0  2.145818  0
O  O65  1  0.82357373  0.10397711  0.70528267  1  0  -0.678175  0  1.914482  0  0  -0.634697  0  2.139494  0  0  -0.657673  0  2.12949  0  0  -0.380619  -0.618456  0  2.145904  0
O  O66  1  0.32357482  0.60398112  0.79471510  1  0  -0.678173  0  1.914535  0  0  -0.634689  0  2.139562  0  0  -0.657657  0  2.129554  0  0  -0.380538  -0.618451  0  2.145973  0
O  O67  1  0.17642573  0.89602276  0.29471667  1  0  -0.678196  0  1.914482  0  0  -0.634709  0  2.139511  0  0  -0.657679  0  2.129503  0  0  -0.380615  -0.618467  0  2.145921  0
O  O68  1  0.00733036  0.51979115  0.22435006  1  0  -0.736665  0  2.05705  0  0  -0.677138  0  2.289651  0  0  -0.702825  0  2.277621  0  0  -0.374313  -0.658892  0  2.297271  0
O  O69  1  0.49266803  0.98020700  0.72434849  1  0  -0.73654  0  2.057315  0  0  -0.677006  0  2.289873  0  0  -0.702696  0  2.277845  0  0  -0.374254  -0.658761  0  2.297494  0
O  O70  1  0.99267149  0.48020943  0.77564990  1  0  -0.736668  0  2.057013  0  0  -0.677135  0  2.289613  0  0  -0.702822  0  2.277585  0  0  -0.374335  -0.658892  0  2.297231  0
O  O71  1  0.50733344  0.01979215  0.27565023  1  0  -0.736635  0  2.057133  0  0  -0.67709  0  2.28971  0  0  -0.702776  0  2.27768  0  0  -0.374322  -0.658845  0  2.297329  0
O  O72  1  0.47925919  0.15518323  0.42632222  1  0  -0.725192  0  2.032594  0  0  -0.67453  0  2.288656  0  0  -0.700695  0  2.279373  0  0  -0.399505  -0.655906  0  2.294306  0
O  O73  1  0.02073886  0.34481702  0.92631914  1  0  -0.72526  0  2.032474  0  0  -0.674575  0  2.288563  0  0  -0.700702  0  2.279216  0  0  -0.399517  -0.655955  0  2.294209  0
O  O74  1  0.52073787  0.84481593  0.57367773  1  0  -0.725169  0  2.032597  0  0  -0.674492  0  2.288668  0  0  -0.700662  0  2.279394  0  0  -0.399496  -0.655868  0  2.294317  0
O  O75  1  0.97926059  0.65518286  0.07368143  1  0  -0.725283  0  2.032475  0  0  -0.674582  0  2.288568  0  0  -0.700711  0  2.279219  0  0  -0.399521  -0.655958  0  2.294217  0
O  O76  1  0.80381261  0.15113035  0.53128051  1  0  -0.737708  0  2.036794  0  0  -0.681885  0  2.279015  0  0  -0.706961  0  2.267213  0  0  -0.383302  -0.663979  0  2.286456  0
O  O77  1  0.69618940  0.34886840  0.03127841  1  0  -0.737733  0  2.036704  0  0  -0.681907  0  2.278942  0  0  -0.706977  0  2.267139  0  0  -0.383297  -0.664  0  2.286381  0
O  O78  1  0.19618684  0.84886952  0.46871945  1  0  -0.73776  0  2.036782  0  0  -0.681937  0  2.279018  0  0  -0.707006  0  2.267214  0  0  -0.383324  -0.66403  0  2.286461  0
O  O79  1  0.30381226  0.65113147  0.96872154  1  0  -0.737799  0  2.036679  0  0  -0.681967  0  2.278935  0  0  -0.707039  0  2.267134  0  0  -0.383339  -0.664063  0  2.286374  0
O  O80  1  0.50062515  0.60542348  0.17555516  1  0  -0.896245  0  1.880941  0  0  -0.851787  0  2.079364  0  0  -0.870806  0  2.053349  0  0  -0.628892  -0.837968  0  2.097311  0
O  O81  1  0.99937381  0.89457386  0.67555424  1  0  -0.896186  0  1.880953  0  0  -0.851716  0  2.079436  0  0  -0.87073  0  2.053405  0  0  -0.628882  -0.837898  0  2.09738  0
O  O82  1  0.49937210  0.39457639  0.82444480  1  0  -0.896196  0  1.880957  0  0  -0.851718  0  2.079419  0  0  -0.870737  0  2.053405  0  0  -0.628863  -0.837904  0  2.097362  0
O  O83  1  0.00063005  0.10542601  0.32444571  1  0  -0.896192  0  1.88093  0  0  -0.851734  0  2.079419  0  0  -0.870742  0  2.053385  0  0  -0.628874  -0.837916  0  2.097363  0
O  O84  1  0.75185940  0.53057095  0.94437622  1  0  -1.234544  0  1.831355  0  0  -1.171538  0  2.054731  0  0  -1.197055  0  2.031179  0  0  -0.777214  -1.152155  0  2.070707  0
O  O85  1  0.74814270  0.96942922  0.44437351  1  0  -1.234559  0  1.831375  0  0  -1.171534  0  2.054749  0  0  -1.197092  0  2.031239  0  0  -0.777232  -1.152147  0  2.070731  0
O  O86  1  0.24814427  0.46942820  0.05562620  1  0  -1.234512  0  1.831458  0  0  -1.17147  0  2.054771  0  0  -1.197029  0  2.031292  0  0  -0.777216  -1.152085  0  2.07075  0
O  O87  1  0.25186336  0.03057064  0.55562583  1  0  -1.234551  0  1.831352  0  0  -1.171548  0  2.054769  0  0  -1.197057  0  2.031169  0  0  -0.777232  -1.152161  0  2.07075  0
