# generated using pymatgen
data_Cd2H22C21(N3O7)2
_symmetry_space_group_name_H-M   'P 1'
_cell_length_a   10.20450209
_cell_length_b   10.39189904
_cell_length_c   15.97914856
_cell_angle_alpha   84.93325201
_cell_angle_beta   79.63733885
_cell_angle_gamma   60.59392062
_symmetry_Int_Tables_number   1
_chemical_formula_structural   Cd2H22C21(N3O7)2
_chemical_formula_sum   'Cd4 H44 C42 N12 O28'
_cell_volume   1452.10134509
_cell_formula_units_Z   2
loop_
 _symmetry_equiv_pos_site_id
 _symmetry_equiv_pos_as_xyz
  1  'x, y, z'
loop_
 _atom_site_type_symbol
 _atom_site_label
 _atom_site_symmetry_multiplicity
 _atom_site_fract_x
 _atom_site_fract_y
 _atom_site_fract_z
 _atom_site_occupancy
 _atom_site_pbe_bader_spin_density
 _atom_site_pbe_cm5_charge
 _atom_site_pbe_ddec_charge
 _atom_site_pbe_ddec_spin_density
 _atom_site_pbe_ddec_sum_bond_order
 _atom_site_pbe_magmom
Cd  Cd0  1  0.15027094  0.23249170  0.01862249  1  0  0.765933  0.99854  0  2.084747  0
Cd  Cd1  1  0.61724221  0.23249006  0.48137785  1  0  0.765942  0.998598  0  2.084712  0
Cd  Cd2  1  0.84972835  0.76750831  0.98137787  1  0  0.765951  0.99856  0  2.084755  0
Cd  Cd3  1  0.38276162  0.76750885  0.51862144  1  0  0.765939  0.998568  0  2.084757  0
H  H4  1  0.47487949  0.93955453  0.08640960  1  0  0.145809  0.131511  0  1.047663  0
H  H5  1  0.58557040  0.93955304  0.41359315  1  0  0.145823  0.131517  0  1.047632  0
H  H6  1  0.52511770  0.06044769  0.91359025  1  0  0.145813  0.131502  0  1.047681  0
H  H7  1  0.41442933  0.06044808  0.58640585  1  0  0.145843  0.131537  0  1.04761  0
H  H8  1  0.06629384  0.20063704  0.24945896  1  0  0.140633  0.113274  0  0.982993  0
H  H9  1  0.73307422  0.20062789  0.25054114  1  0  0.140657  0.113317  0  0.983035  0
H  H10  1  0.93370478  0.79936628  0.75054129  1  0  0.140643  0.113312  0  0.983019  0
H  H11  1  0.26692961  0.79937101  0.74945815  1  0  0.140625  0.113317  0  0.983008  0
H  H12  1  0.55075227  0.80465838  0.30362748  1  0  0.137614  0.122769  0  1.014463  0
H  H13  1  0.64459205  0.80465648  0.19637606  1  0  0.137625  0.122802  0  1.014502  0
H  H14  1  0.44924702  0.19534163  0.69637163  1  0  0.137609  0.122744  0  1.014501  0
H  H15  1  0.35540614  0.19534574  0.80362368  1  0  0.137611  0.122786  0  1.014479  0
H  H16  1  0.64240383  0.56167778  0.18799184  1  0  0.109983  0.126013  0  1.014714  0
H  H17  1  0.79591226  0.56166911  0.31200484  1  0  0.110042  0.126099  0  1.01465  0
H  H18  1  0.35759501  0.43832112  0.81200864  1  0  0.110012  0.126046  0  1.014636  0
H  H19  1  0.20409012  0.43832869  0.68799655  1  0  0.110062  0.126125  0  1.014599  0
H  H20  1  0.23495972  0.55618083  0.15251429  1  0  0.104177  0.116549  0  1.035542  0
H  H21  1  0.20885190  0.55618015  0.34748381  1  0  0.10416  0.116458  0  1.035656  0
H  H22  1  0.76503957  0.44381918  0.84748482  1  0  0.104173  0.116529  0  1.035598  0
H  H23  1  0.79114684  0.44382097  0.65251655  1  0  0.104152  0.116466  0  1.035641  0
H  H24  1  0.67238558  0.24718137  0.01792419  1  0  0.106933  0.119334  0  1.026233  0
H  H25  1  0.08043357  0.24718393  0.48207640  1  0  0.106927  0.119342  0  1.026236  0
H  H26  1  0.32761581  0.75281643  0.98207668  1  0  0.106925  0.119331  0  1.026239  0
H  H27  1  0.91956881  0.75281387  0.51792311  1  0  0.106942  0.119342  0  1.026237  0
H  H28  1  0.24291160  0.74551911  0.21995018  1  0  0.336762  0.362404  0  0.880749  0
H  H29  1  0.01156262  0.74551089  0.28004208  1  0  0.336818  0.36253  0  0.880558  0
H  H30  1  0.75708648  0.25448531  0.78004819  1  0  0.336786  0.362449  0  0.880771  0
H  H31  1  0.98843667  0.25448912  0.71995703  1  0  0.336846  0.362546  0  0.880556  0
H  H32  1  0.08000769  0.33765548  0.84720187  1  0  0.304342  0.393434  0  0.91932  0
H  H33  1  0.58234622  0.33765389  0.65279968  1  0  0.304368  0.393498  0  0.919193  0
H  H34  1  0.91999215  0.66234342  0.15279724  1  0  0.304357  0.39342  0  0.919331  0
H  H35  1  0.41765561  0.66234502  0.34720108  1  0  0.304389  0.393508  0  0.919183  0
H  H36  1  0.12708334  0.44512055  0.88192901  1  0  0.288054  0.393533  0  0.949024  0
H  H37  1  0.42780473  0.44511920  0.61807330  1  0  0.28812  0.39358  0  0.948973  0
H  H38  1  0.87291639  0.55488056  0.11807062  1  0  0.288085  0.393577  0  0.948968  0
H  H39  1  0.57219710  0.55487971  0.38192684  1  0  0.288116  0.393591  0  0.948974  0
H  H40  1  0.38371210  0.92779448  0.96631089  1  0  0.282577  0.377656  0  0.974929  0
H  H41  1  0.68849274  0.92779399  0.53368906  1  0  0.282547  0.37762  0  0.974988  0
H  H42  1  0.61628718  0.07220553  0.03368947  1  0  0.282528  0.377543  0  0.975061  0
H  H43  1  0.31150809  0.07220491  0.46631057  1  0  0.282559  0.37762  0  0.974987  0
H  H44  1  0.28939228  0.99347453  0.88982985  1  0  0.281035  0.345171  0  1.013  0
H  H45  1  0.71713341  0.99347225  0.61016951  1  0  0.28104  0.345211  0  1.012951  0
H  H46  1  0.71060645  0.00652659  0.11017114  1  0  0.28101  0.345124  0  1.013066  0
H  H47  1  0.28286633  0.00652886  0.38982949  1  0  0.281026  0.345163  0  1.013014  0
C  C48  1  0.38888083  0.99353255  0.14129082  1  0  0.171525  0.118196  0  3.868422  0
C  C49  1  0.61759069  0.99353009  0.35871018  1  0  0.171517  0.118248  0  3.868306  0
C  C50  1  0.61111780  0.00647077  0.85870755  1  0  0.171506  0.118137  0  3.868575  0
C  C51  1  0.38240860  0.00646992  0.64128831  1  0  0.171516  0.118249  0  3.868152  0
C  C52  1  0.18391379  0.12144635  0.22624809  1  0  0.156641  0.155732  0  3.9634  0
C  C53  1  0.69464438  0.12144278  0.27375422  1  0  0.156594  0.155658  0  3.963576  0
C  C54  1  0.81608495  0.87855476  0.77375165  1  0  0.15661  0.155604  0  3.963513  0
C  C55  1  0.30535834  0.87855833  0.72624632  1  0  0.15661  0.15564  0  3.963539  0
C  C56  1  0.56295964  0.87408340  0.25000173  1  0  0.064612  -0.048385  0  3.851302  0
C  C57  1  0.43704109  0.12591772  0.74999778  1  0  0.064643  -0.048314  0  3.851262  0
C  C58  1  0.67343555  0.39885068  0.10009532  1  0  -0.017037  -0.013692  0  3.987548  0
C  C59  1  0.92771425  0.39884372  0.39990418  1  0  -0.016996  -0.013636  0  3.987424  0
C  C60  1  0.32656429  0.60114822  0.89990630  1  0  -0.017046  -0.013577  0  3.987294  0
C  C61  1  0.07228714  0.60115408  0.60009607  1  0  -0.017037  -0.013678  0  3.987436  0
C  C62  1  0.58701965  0.51528386  0.15818650  1  0  -0.089704  -0.191692  0  3.904154  0
C  C63  1  0.89769192  0.51527746  0.34181235  1  0  -0.089807  -0.191851  0  3.904033  0
C  C64  1  0.41298229  0.48471283  0.84181375  1  0  -0.089742  -0.191778  0  3.904036  0
C  C65  1  0.10231002  0.48471923  0.65818852  1  0  -0.089793  -0.191861  0  3.904003  0
C  C66  1  0.42954429  0.57300363  0.17555547  1  0  0.072932  0.297805  0  4.071596  0
C  C67  1  0.99744547  0.57299757  0.32444112  1  0  0.072882  0.29782  0  4.071444  0
C  C68  1  0.57045610  0.42699417  0.82444427  1  0  0.072951  0.297841  0  4.071771  0
C  C69  1  0.00255282  0.42700244  0.67555936  1  0  0.072899  0.297884  0  4.071457  0
C  C70  1  0.35803505  0.51247757  0.13896539  1  0  -0.095073  -0.223525  0  3.962462  0
C  C71  1  0.12948240  0.51247505  0.36103251  1  0  -0.094985  -0.223279  0  3.962385  0
C  C72  1  0.64196423  0.48752244  0.86103435  1  0  -0.095062  -0.223498  0  3.962546  0
C  C73  1  0.87051832  0.48752607  0.63896888  1  0  -0.094985  -0.223312  0  3.96242  0
C  C74  1  0.44540296  0.39230311  0.08336111  1  0  -0.017525  -0.007916  0  3.988907  0
C  C75  1  0.16228943  0.39230332  0.41663777  1  0  -0.017548  -0.007985  0  3.988924  0
C  C76  1  0.55459632  0.60769690  0.91663988  1  0  -0.017541  -0.007961  0  3.98896  0
C  C77  1  0.83771241  0.60769559  0.58336112  1  0  -0.017526  -0.007974  0  3.98889  0
C  C78  1  0.60260552  0.33750390  0.06282490  1  0  -0.082652  -0.129627  0  3.940898  0
C  C79  1  0.05989117  0.33750158  0.43717414  1  0  -0.082664  -0.129686  0  3.940906  0
C  C80  1  0.39739443  0.66249279  0.93717746  1  0  -0.082631  -0.129642  0  3.940862  0
C  C81  1  0.94011011  0.66249842  0.56282537  1  0  -0.082675  -0.129659  0  3.940895  0
C  C82  1  0.84160694  0.34147988  0.07628338  1  0  0.196276  0.565435  0  4.21282  0
C  C83  1  0.81691406  0.34147386  0.42371724  1  0  0.196271  0.565497  0  4.212657  0
C  C84  1  0.15839445  0.65851791  0.92371749  1  0  0.196249  0.565379  0  4.212857  0
C  C85  1  0.18309197  0.65852063  0.57628392  1  0  0.196324  0.565494  0  4.212746  0
C  C86  1  0.36752632  0.32394107  0.04765241  1  0  0.200836  0.569712  0  4.210052  0
C  C87  1  0.30853234  0.32394088  0.45234847  1  0  0.200959  0.569904  0  4.209776  0
C  C88  1  0.63247441  0.67606004  0.95234772  1  0  0.200915  0.569808  0  4.209963  0
C  C89  1  0.69146949  0.67605802  0.54764916  1  0  0.200905  0.569845  0  4.209836  0
N  N90  1  0.24205679  0.09177740  0.14199670  1  0  -0.338489  -0.326017  0  3.419691  0
N  N91  1  0.66617291  0.09177355  0.35800532  1  0  -0.338519  -0.326101  0  3.419686  0
N  N92  1  0.75794084  0.90822592  0.85800367  1  0  -0.338462  -0.325917  0  3.419651  0
N  N93  1  0.33382793  0.90822535  0.64199431  1  0  -0.338512  -0.326079  0  3.419645  0
N  N94  1  0.28661723  0.04562267  0.27720577  1  0  -0.209383  -0.243397  0  3.180254  0
N  N95  1  0.66776537  0.04561990  0.22279699  1  0  -0.209369  -0.243354  0  3.180345  0
N  N96  1  0.71338294  0.95437954  0.72279437  1  0  -0.209361  -0.243341  0  3.180242  0
N  N97  1  0.33223735  0.95438121  0.77720354  1  0  -0.209304  -0.243299  0  3.180282  0
N  N98  1  0.41679696  0.96512879  0.22177015  1  0  -0.135812  0.117998  0  3.775118  0
N  N99  1  0.61807810  0.96512964  0.27823255  1  0  -0.135822  0.117955  0  3.775158  0
N  N100  1  0.58320322  0.03487343  0.77822936  1  0  -0.135859  0.117967  0  3.775251  0
N  N101  1  0.38192052  0.03487369  0.72176645  1  0  -0.135897  0.117869  0  3.775029  0
O  O102  1  0.91432606  0.24902765  0.01584026  1  0  -0.326791  -0.533398  0  2.152943  0
O  O103  1  0.83665077  0.24902325  0.48416044  1  0  -0.326822  -0.533456  0  2.15287  0
O  O104  1  0.08567168  0.75097346  0.98415959  1  0  -0.326814  -0.533432  0  2.152939  0
O  O105  1  0.16335371  0.75097234  0.51584083  1  0  -0.32683  -0.533432  0  2.152996  0
O  O106  1  0.90804631  0.38630189  0.11826620  1  0  -0.336199  -0.594375  0  2.226755  0
O  O107  1  0.70564877  0.38630034  0.38173464  1  0  -0.336188  -0.594414  0  2.226702  0
O  O108  1  0.09195243  0.61369922  0.88173541  1  0  -0.336155  -0.594336  0  2.226831  0
O  O109  1  0.29435461  0.61369746  0.61826727  1  0  -0.33624  -0.594451  0  2.226687  0
O  O110  1  0.44821090  0.19796533  0.01161816  1  0  -0.325218  -0.586053  0  2.269572  0
O  O111  1  0.35382493  0.19796216  0.48838268  1  0  -0.325273  -0.586125  0  2.269523  0
O  O112  1  0.55178419  0.80203910  0.98838244  1  0  -0.325262  -0.586114  0  2.269525  0
O  O113  1  0.64617635  0.80203785  0.51161684  1  0  -0.325256  -0.586104  0  2.269596  0
O  O114  1  0.22249072  0.39367657  0.05693033  1  0  -0.326386  -0.546532  0  2.228797  0
O  O115  1  0.38383106  0.39367700  0.44307071  1  0  -0.326442  -0.546642  0  2.228659  0
O  O116  1  0.77751001  0.60632454  0.94306981  1  0  -0.326434  -0.546587  0  2.228781  0
O  O117  1  0.61616922  0.60632301  0.55692954  1  0  -0.326414  -0.546606  0  2.228631  0
O  O118  1  0.34716500  0.69213863  0.23148231  1  0  -0.353599  -0.470274  0  2.301012  0
O  O119  1  0.96069082  0.69212879  0.26851443  1  0  -0.353602  -0.470437  0  2.300997  0
O  O120  1  0.65283373  0.30786249  0.76851680  1  0  -0.353599  -0.470306  0  2.301115  0
O  O121  1  0.03930637  0.30787342  0.73148542  1  0  -0.353644  -0.470469  0  2.301043  0
O  O122  1  0.15092269  0.33858178  0.88066331  1  0  -0.576846  -0.755229  0  2.080533  0
O  O123  1  0.51050445  0.33858112  0.61933636  1  0  -0.576945  -0.755338  0  2.080418  0
O  O124  1  0.84907814  0.66141713  0.11933506  1  0  -0.576897  -0.755247  0  2.080477  0
O  O125  1  0.48949739  0.66141779  0.38066252  1  0  -0.576961  -0.755351  0  2.080427  0
O  O126  1  0.28507584  0.00934184  0.95075461  1  0  -0.603648  -0.779144  0  2.159358  0
O  O127  1  0.70557754  0.00934278  0.54924576  1  0  -0.603615  -0.779159  0  2.159359  0
O  O128  1  0.71492455  0.99065596  0.04924638  1  0  -0.603578  -0.778998  0  2.159445  0
O  O129  1  0.29441920  0.99065833  0.45075421  1  0  -0.60362  -0.779101  0  2.159372  0
