# generated using pymatgen
data_MgH6C15NO5
_symmetry_space_group_name_H-M   'P 1'
_cell_length_a   6.84344736
_cell_length_b   39.59122756
_cell_length_c   39.59151589
_cell_angle_alpha   119.67248439
_cell_angle_beta   93.29968950
_cell_angle_gamma   93.29937957
_symmetry_Int_Tables_number   1
_chemical_formula_structural   MgH6C15NO5
_chemical_formula_sum   'Mg6 H36 C90 N6 O30'
_cell_volume   9258.96720128
_cell_formula_units_Z   6
loop_
 _symmetry_equiv_pos_site_id
 _symmetry_equiv_pos_as_xyz
  1  'x, y, z'
loop_
 _atom_site_type_symbol
 _atom_site_label
 _atom_site_symmetry_multiplicity
 _atom_site_fract_x
 _atom_site_fract_y
 _atom_site_fract_z
 _atom_site_occupancy
 _atom_site_pbe_bader_charge
 _atom_site_pbe_bader_spin_density
 _atom_site_pbe_cm5_charge
 _atom_site_pbe_ddec_charge
 _atom_site_pbe_ddec_spin_density
 _atom_site_pbe_ddec_sum_bond_order
 _atom_site_pbe_magmom
Mg  Mg0  1  0.20422375  0.67017111  0.30867256  1  1.683338  0  0.910569  1.410873  0  1.327333  0
Mg  Mg1  1  0.89554801  0.69138953  0.36152245  1  1.68105  0  0.910633  1.411108  0  1.327038  0
Mg  Mg2  1  0.53413233  0.63853763  0.32988774  1  1.68355  0  0.910669  1.41131  0  1.326751  0
Mg  Mg3  1  0.79577723  0.32982905  0.69132762  1  1.683335  0  0.910605  1.410876  0  1.327331  0
Mg  Mg4  1  0.10445283  0.30861034  0.63847783  1  1.681052  0  0.910651  1.411118  0  1.327  0
Mg  Mg5  1  0.46586836  0.36146195  0.67011215  1  1.683576  0  0.910641  1.411254  0  1.326837  0
H  H6  1  0.98806037  0.06454750  0.55381749  1  0.089296  0  0.112037  0.113288  0  1.007187  0
H  H7  1  0.22468826  0.97254261  0.45282454  1  0.059936  0  0.107403  0.10579  0  1.008446  0
H  H8  1  0.51223816  0.01774801  0.46191030  1  0.105433  0  0.115986  0.119442  0  0.974155  0
H  H9  1  0.88244277  0.14829357  0.58400420  1  0.14746  0  0.105126  0.11669  0  1.02722  0
H  H10  1  0.05258235  0.21446370  0.62427184  1  0.082745  0  0.110018  0.130342  0  0.999108  0
H  H11  1  0.33835148  0.19833620  0.58370646  1  0.109341  0  0.113229  0.126996  0  1.004589  0
H  H12  1  0.43429034  0.44618710  0.51074423  1  0.089719  0  0.112312  0.113522  0  1.006522  0
H  H13  1  0.77203493  0.54713726  0.51971291  1  0.064041  0  0.107135  0.105304  0  1.008406  0
H  H14  1  0.05036016  0.53807300  0.55587603  1  0.100749  0  0.115905  0.119558  0  0.974091  0
H  H15  1  0.29842559  0.41599321  0.56432570  1  0.114725  0  0.105045  0.117043  0  1.026558  0
H  H16  1  0.42825702  0.37571798  0.59022929  1  0.08922  0  0.110103  0.130573  0  0.999068  0
H  H17  1  0.75442259  0.41625612  0.61460383  1  0.1352  0  0.113392  0.127506  0  1.004049  0
H  H18  1  0.92356708  0.48924937  0.93542932  1  0.096448  0  0.112112  0.11354  0  1.006617  0
H  H19  1  0.25224122  0.48027502  0.02741438  1  0.095704  0  0.107123  0.105416  0  1.008508  0
H  H20  1  0.49454083  0.44414968  0.98221124  1  0.105765  0  0.115963  0.119849  0  0.974232  0
H  H21  1  0.73408540  0.43568168  0.85163384  1  0.108338  0  0.105064  0.116888  0  1.026411  0
H  H22  1  0.83801877  0.40976924  0.78544248  1  0.125036  0  0.110281  0.130886  0  0.998585  0
H  H23  1  0.13989311  0.38537735  0.80164486  1  0.129591  0  0.113411  0.127101  0  1.004319  0
H  H24  1  0.01193900  0.93545237  0.44618278  1  0.0893  0  0.112053  0.113278  0  1.007227  0
H  H25  1  0.77531418  0.02745755  0.54717565  1  0.059937  0  0.10739  0.105785  0  1.00839  0
H  H26  1  0.48776560  0.98225186  0.53809002  1  0.105472  0  0.115936  0.119355  0  0.974205  0
H  H27  1  0.11755821  0.85170659  0.41599548  1  0.147484  0  0.105124  0.116679  0  1.027199  0
H  H28  1  0.94741849  0.78553617  0.37572820  1  0.082748  0  0.110037  0.130379  0  0.999088  0
H  H29  1  0.66164935  0.80166367  0.41629257  1  0.109336  0  0.113221  0.126979  0  1.004544  0
H  H30  1  0.56570875  0.55381219  0.48925474  1  0.089772  0  0.1123  0.113499  0  1.006507  0
H  H31  1  0.22796459  0.45286290  0.48028802  1  0.064265  0  0.10713  0.105275  0  1.008434  0
H  H32  1  0.94963921  0.46192687  0.44412576  1  0.100698  0  0.11591  0.119548  0  0.974098  0
H  H33  1  0.70157349  0.58400608  0.43567378  1  0.11477  0  0.105015  0.117007  0  1.026576  0
H  H34  1  0.57174235  0.62428189  0.40977073  1  0.089297  0  0.110103  0.130561  0  0.999064  0
H  H35  1  0.24557342  0.58374288  0.38539572  1  0.135224  0  0.113412  0.127505  0  1.004058  0
H  H36  1  0.07642937  0.51075050  0.06457041  1  0.096477  0  0.11211  0.113581  0  1.006546  0
H  H37  1  0.74776005  0.51972573  0.97258559  1  0.09569  0  0.107084  0.105333  0  1.008422  0
H  H38  1  0.50546044  0.55585107  0.01778872  1  0.105736  0  0.11594  0.119823  0  0.974188  0
H  H39  1  0.26591719  0.56431878  0.14836625  1  0.108351  0  0.105058  0.116893  0  1.02643  0
H  H40  1  0.16198221  0.59023093  0.21455770  1  0.125047  0  0.110228  0.130795  0  0.998554  0
H  H41  1  0.86010685  0.61462369  0.19835549  1  0.129597  0  0.113411  0.127114  0  1.004274  0
C  C42  1  0.31309670  0.11974150  0.56786922  1  1.333165  0  0.252899  0.441525  0  4.084429  0
C  C43  1  0.26194514  0.07794942  0.53794602  1  -0.05029  0  -0.008538  -0.048527  0  4.04865  0
C  C44  1  0.09979057  0.05318445  0.53354259  1  0.004761  0  -0.064922  -0.109552  0  3.907414  0
C  C45  1  0.08440896  0.01401250  0.50270702  1  -0.013758  0  0.005841  0.072497  0  3.953391  0
C  C46  1  0.23421793  0.00236537  0.47714871  1  -0.047286  0  -0.075355  -0.115117  0  3.932595  0
C  C47  1  0.39791968  0.02764012  0.48183883  1  0.015181  0  -0.069815  -0.072067  0  3.977049  0
C  C48  1  0.41077629  0.06563710  0.51293953  1  -0.007727  0  -0.010403  -0.058419  0  4.034669  0
C  C49  1  0.56483356  0.09887113  0.52640142  1  1.346953  0  0.246568  0.434715  0  4.098318  0
C  C50  1  0.59701657  0.16877147  0.58127266  1  0.269289  0  0.075792  0.159339  0  4.052828  0
C  C51  1  0.79957106  0.17349533  0.59260910  1  -0.031585  0  -0.078714  -0.113688  0  3.974976  0
C  C52  1  0.89567719  0.21067074  0.61532924  1  0.023754  0  -0.102055  -0.198355  0  3.957692  0
C  C53  1  0.79536596  0.24447515  0.62834337  1  0.589932  0  0.097144  0.365427  0  4.077685  0
C  C54  1  0.58914579  0.23931077  0.61630836  1  -0.021522  0  -0.039152  -0.194216  0  3.961246  0
C  C55  1  0.49466290  0.20138570  0.59265056  1  0.031696  0  -0.079511  -0.143991  0  3.967812  0
C  C56  1  0.46766204  0.27218317  0.62747628  1  1.526104  0  0.239443  0.67918  0  4.117933  0
C  C57  1  0.74520277  0.43213566  0.55191277  1  1.328616  0  0.253219  0.446729  0  4.085907  0
C  C58  1  0.72410145  0.46203169  0.53999935  1  -0.060576  0  -0.008349  -0.048015  0  4.046837  0
C  C59  1  0.56633652  0.46643910  0.51963935  1  -0.008526  0  -0.065109  -0.109748  0  3.906984  0
C  C60  1  0.58174422  0.49727283  0.51129449  1  -0.008273  0  0.005731  0.072416  0  3.951412  0
C  C61  1  0.75718662  0.52281334  0.52520860  1  0.024314  0  -0.074892  -0.114449  0  3.931522  0
C  C62  1  0.91617118  0.51813422  0.54581500  1  -0.076374  0  -0.070098  -0.072606  0  3.977389  0
C  C63  1  0.89792563  0.48703175  0.55269857  1  0.015249  0  -0.010106  -0.057455  0  4.034599  0
C  C64  1  0.03847755  0.47359084  0.57249375  1  1.345825  0  0.246659  0.438937  0  4.099687  0
C  C65  1  0.01576239  0.41872000  0.58753483  1  0.362213  0  0.075939  0.163262  0  4.056388  0
C  C66  1  0.20692939  0.40737751  0.58091105  1  -0.029  0  -0.078974  -0.113093  0  3.97362  0
C  C67  1  0.28023269  0.38463989  0.59535546  1  0.020377  0  -0.102501  -0.199727  0  3.958165  0
C  C68  1  0.16684208  0.37159294  0.61610254  1  0.59608  0  0.097147  0.365975  0  4.078428  0
C  C69  1  0.97262327  0.38362320  0.62296406  1  0.005018  0  -0.038572  -0.193752  0  3.96135  0
C  C70  1  0.90184413  0.40732019  0.60873300  1  -0.074481  0  -0.079661  -0.143883  0  3.966317  0
C  C71  1  0.84008823  0.37246341  0.64468605  1  1.500851  0  0.238725  0.678376  0  4.120144  0
C  C72  1  0.19338239  0.44808968  0.88020857  1  1.349022  0  0.252133  0.444569  0  4.08725  0
C  C73  1  0.18415939  0.45999099  0.92201511  1  -0.044246  0  -0.007848  -0.046905  0  4.045032  0
C  C74  1  0.04675005  0.48036020  0.94679191  1  -0.015011  0  -0.06517  -0.110612  0  3.906751  0
C  C75  1  0.07048807  0.48870985  0.98597466  1  0.032241  0  0.005463  0.072434  0  3.950312  0
C  C76  1  0.23201853  0.47480070  0.99760164  1  -0.024619  0  -0.074582  -0.1139  0  3.931387  0
C  C77  1  0.37043468  0.45420566  0.97231640  1  -0.066068  0  -0.07019  -0.073276  0  3.978331  0
C  C78  1  0.34533803  0.44729921  0.93432054  1  0.004719  0  -0.010651  -0.058162  0  4.034738  0
C  C79  1  0.46604940  0.42750216  0.90107623  1  1.330772  0  0.246346  0.438585  0  4.099487  0
C  C80  1  0.42825535  0.41243820  0.83116316  1  0.2896  0  0.076152  0.163753  0  4.055354  0
C  C81  1  0.62603911  0.41907675  0.82642817  1  0.039993  0  -0.078752  -0.113385  0  3.973444  0
C  C82  1  0.68489136  0.40463562  0.78924698  1  -0.023464  0  -0.102714  -0.199858  0  3.95765  0
C  C83  1  0.55073002  0.38384920  0.75545872  1  0.538441  0  0.097259  0.366152  0  4.076993  0
C  C84  1  0.34965963  0.37700122  0.76063474  1  -0.09075  0  -0.038671  -0.193703  0  3.961372  0
C  C85  1  0.29318106  0.39123929  0.79856520  1  0.061171  0  -0.079781  -0.143735  0  3.966597  0
C  C86  1  0.19538530  0.35528191  0.72776097  1  1.534063  0  0.238104  0.677366  0  4.119935  0
C  C87  1  0.68689886  0.88025954  0.43213134  1  1.333184  0  0.252919  0.441597  0  4.084294  0
C  C88  1  0.73805116  0.92205016  0.46205333  1  -0.050335  0  -0.008494  -0.048456  0  4.048528  0
C  C89  1  0.90020880  0.94681543  0.46645693  1  0.004769  0  -0.064915  -0.109465  0  3.907267  0
C  C90  1  0.91559158  0.98598679  0.49729297  1  0.010027  0  0.005798  0.072375  0  3.953358  0
C  C91  1  0.76578583  0.99763450  0.52285160  1  -0.04676  0  -0.075413  -0.115241  0  3.932424  0
C  C92  1  0.60208087  0.97235917  0.51816092  1  0.014656  0  -0.069685  -0.071781  0  3.976843  0
C  C93  1  0.58922176  0.93436307  0.48706037  1  -0.007629  0  -0.010392  -0.058515  0  4.034705  0
C  C94  1  0.43517328  0.90112903  0.47359781  1  1.346715  0  0.246541  0.434743  0  4.098254  0
C  C95  1  0.40298441  0.83122870  0.41872651  1  0.269001  0  0.075828  0.159402  0  4.052687  0
C  C96  1  0.20042992  0.82650483  0.40739007  1  -0.03132  0  -0.078761  -0.113719  0  3.974862  0
C  C97  1  0.10432218  0.78932913  0.38467028  1  0.023762  0  -0.102027  -0.198351  0  3.957579  0
C  C98  1  0.20463341  0.75552472  0.37165640  1  0.589934  0  0.097098  0.365377  0  4.077645  0
C  C99  1  0.41085373  0.76068939  0.38369156  1  -0.021524  0  -0.039156  -0.1943  0  3.961333  0
C  C100  1  0.50533662  0.79861447  0.40734834  1  0.031724  0  -0.079494  -0.143921  0  3.967704  0
C  C101  1  0.53233894  0.72781699  0.37252364  1  1.526114  0  0.239464  0.679245  0  4.117863  0
C  C102  1  0.25479427  0.56786246  0.44808686  1  1.328519  0  0.253292  0.446782  0  4.085815  0
C  C103  1  0.27589485  0.53796789  0.46000075  1  -0.060515  0  -0.008396  -0.048072  0  4.047017  0
C  C104  1  0.43366256  0.53356018  0.48036013  1  -0.008597  0  -0.065101  -0.109712  0  3.906905  0
C  C105  1  0.41825516  0.50272704  0.48870553  1  0.032913  0  0.005732  0.072428  0  3.951463  0
C  C106  1  0.24281422  0.47718653  0.47479244  1  0.024034  0  -0.074849  -0.114408  0  3.931493  0
C  C107  1  0.08382498  0.48186507  0.45418571  1  -0.076382  0  -0.07014  -0.072569  0  3.977188  0
C  C108  1  0.10207242  0.51296841  0.44730209  1  0.015327  0  -0.010091  -0.057531  0  4.034551  0
C  C109  1  0.96151539  0.52640786  0.42750614  1  1.345809  0  0.246662  0.439052  0  4.099711  0
C  C110  1  0.98423494  0.58127870  0.41246485  1  0.36262  0  0.075904  0.163255  0  4.056492  0
C  C111  1  0.79306823  0.59262177  0.41908841  1  -0.029016  0  -0.07898  -0.113126  0  3.973656  0
C  C112  1  0.71976814  0.61535998  0.40464483  1  0.02024  0  -0.102456  -0.19962  0  3.958194  0
C  C113  1  0.83315861  0.62840664  0.38389735  1  0.596078  0  0.097147  0.365974  0  4.078439  0
C  C114  1  0.02737581  0.61637609  0.37703592  1  0.004953  0  -0.038614  -0.193909  0  3.961335  0
C  C115  1  0.09815495  0.59267910  0.39126673  1  -0.074477  0  -0.079662  -0.143863  0  3.966301  0
C  C116  1  0.15991246  0.62753617  0.35531409  1  1.501027  0  0.238883  0.678749  0  4.119891  0
C  C117  1  0.80662064  0.55191165  0.11979171  1  1.34896  0  0.252224  0.444729  0  4.087085  0
C  C118  1  0.81584203  0.54001005  0.07798500  1  -0.044259  0  -0.007803  -0.046987  0  4.045224  0
C  C119  1  0.95324801  0.51963996  0.05320799  1  -0.01482  0  -0.065175  -0.110598  0  3.906776  0
C  C120  1  0.92950998  0.51129031  0.01402499  1  0.00514  0  0.005483  0.072405  0  3.950205  0
C  C121  1  0.76797982  0.52520004  0.00239855  1  -0.024646  0  -0.07459  -0.113816  0  3.931398  0
C  C122  1  0.62956820  0.54579538  0.02768347  1  -0.066076  0  -0.070124  -0.073168  0  3.978526  0
C  C123  1  0.65466354  0.55270212  0.06567947  1  0.004754  0  -0.010701  -0.058253  0  4.034839  0
C  C124  1  0.53394910  0.57249888  0.09892385  1  1.330951  0  0.246303  0.438487  0  4.099552  0
C  C125  1  0.57174461  0.58756284  0.16883719  1  0.289567  0  0.076176  0.163761  0  4.055456  0
C  C126  1  0.37396202  0.58092371  0.17357191  1  0.040013  0  -0.07873  -0.113405  0  3.973466  0
C  C127  1  0.31510962  0.59536455  0.21075346  1  -0.023449  0  -0.102688  -0.199755  0  3.957596  0
C  C128  1  0.44927242  0.61615097  0.24454148  1  0.538429  0  0.097184  0.366036  0  4.07708  0
C  C129  1  0.65034150  0.62299924  0.23936584  1  -0.090781  0  -0.038697  -0.193721  0  3.961541  0
C  C130  1  0.70681582  0.60876146  0.20143472  1  0.061181  0  -0.079779  -0.143753  0  3.966616  0
C  C131  1  0.80461568  0.64471825  0.27223922  1  1.534071  0  0.238162  0.677466  0  4.11996  0
N  N132  1  0.49526602  0.13080996  0.55907867  1  -1.183078  0  -0.233611  -0.205265  0  3.588849  0
N  N133  1  0.93620523  0.44091638  0.57175968  1  -1.17398  0  -0.233678  -0.220307  0  3.606818  0
N  N134  1  0.36447175  0.42822032  0.86913292  1  -1.188649  0  -0.233801  -0.21955  0  3.608473  0
N  N135  1  0.50473350  0.86919020  0.44092125  1  -1.183106  0  -0.233608  -0.205291  0  3.588861  0
N  N136  1  0.06379532  0.55908291  0.42824032  1  -1.174327  0  -0.233717  -0.220316  0  3.606982  0
N  N137  1  0.63552996  0.57178130  0.13086724  1  -1.188559  0  -0.233843  -0.219508  0  3.608351  0
O  O138  1  0.71177009  0.73348328  0.38610110  1  -1.245938  0  -0.35407  -0.640971  0  2.145453  0
O  O139  1  0.45222546  0.69291310  0.34802681  1  -1.30605  0  -0.401047  -0.768065  0  2.415397  0
O  O140  1  0.10268648  0.72054774  0.34872203  1  -1.312178  0  -0.449291  -0.779241  0  2.317106  0
O  O141  1  0.22146834  0.14080757  0.59504340  1  -1.10737  0  -0.25668  -0.410181  0  2.112264  0
O  O142  1  0.72158050  0.09955095  0.51328620  1  -1.103487  0  -0.269013  -0.418748  0  2.076686  0
O  O143  1  0.32576801  0.61395584  0.34738480  1  -1.24038  0  -0.353543  -0.640791  0  2.146632  0
O  O144  1  0.10417742  0.65201246  0.34488783  1  -1.296767  0  -0.401279  -0.768113  0  2.415968  0
O  O145  1  0.75408959  0.65134533  0.37185801  1  -1.315426  0  -0.449279  -0.779611  0  2.316934  0
O  O146  1  0.62633278  0.40499392  0.54584566  1  -1.106781  0  -0.256595  -0.410417  0  2.11201  0
O  O147  1  0.20827750  0.48671155  0.58629924  1  -1.103317  0  -0.269345  -0.418793  0  2.075295  0
O  O148  1  0.97840521  0.65261327  0.26656532  1  -1.237365  0  -0.353206  -0.640159  0  2.145655  0
O  O149  1  0.75936528  0.65516125  0.30714810  1  -1.303557  0  -0.400947  -0.767342  0  2.415344  0
O  O150  1  0.38233339  0.62823458  0.27952751  1  -1.31086  0  -0.449166  -0.779254  0  2.317392  0
O  O151  1  0.08059135  0.45418344  0.85914516  1  -1.104748  0  -0.255926  -0.409335  0  2.11128  0
O  O152  1  0.62211183  0.41369848  0.90038779  1  -1.101669  0  -0.268652  -0.418225  0  2.07467  0
O  O153  1  0.28823075  0.26651659  0.61389894  1  -1.245927  0  -0.354056  -0.64094  0  2.145471  0
O  O154  1  0.54777684  0.30708677  0.65197324  1  -1.306063  0  -0.401057  -0.768067  0  2.415439  0
O  O155  1  0.89731289  0.27945213  0.65127825  1  -1.312171  0  -0.449317  -0.779284  0  2.317131  0
O  O156  1  0.77853528  0.85919201  0.40495576  1  -1.107328  0  -0.256681  -0.410229  0  2.112078  0
O  O157  1  0.27841609  0.90044921  0.48671444  1  -1.103456  0  -0.269065  -0.41884  0  2.076384  0
O  O158  1  0.67423283  0.38604403  0.65261523  1  -1.240261  0  -0.353547  -0.640706  0  2.146679  0
O  O159  1  0.89582342  0.34798742  0.65511245  1  -1.2968  0  -0.401132  -0.767851  0  2.41588  0
O  O160  1  0.24591271  0.34865454  0.62814229  1  -1.315483  0  -0.449294  -0.779638  0  2.316931  0
O  O161  1  0.37367787  0.59500508  0.45415252  1  -1.106706  0  -0.256641  -0.410472  0  2.111779  0
O  O162  1  0.79171997  0.51328745  0.41370058  1  -1.103422  0  -0.269267  -0.418776  0  2.075567  0
O  O163  1  0.02159548  0.34738631  0.73343482  1  -1.237361  0  -0.353178  -0.640095  0  2.14565  0
O  O164  1  0.24063541  0.34483833  0.69285204  1  -1.303548  0  -0.400938  -0.767323  0  2.415382  0
O  O165  1  0.61766745  0.37176529  0.72047253  1  -1.31086  0  -0.449217  -0.779305  0  2.317479  0
O  O166  1  0.91941022  0.54581789  0.14085485  1  -1.104706  0  -0.255926  -0.409354  0  2.111234  0
O  O167  1  0.37788813  0.58630256  0.09961256  1  -1.101896  0  -0.268634  -0.418184  0  2.074704  0
