# generated using pymatgen
data_CdH8C12(IN2)2
_symmetry_space_group_name_H-M   'P 1'
_cell_length_a   4.09288096
_cell_length_b   7.51561291
_cell_length_c   12.38609764
_cell_angle_alpha   97.02038933
_cell_angle_beta   99.64277650
_cell_angle_gamma   89.98376126
_symmetry_Int_Tables_number   1
_chemical_formula_structural   CdH8C12(IN2)2
_chemical_formula_sum   'Cd1 H8 C12 I2 N4'
_cell_volume   372.72408523
_cell_formula_units_Z   1
loop_
 _symmetry_equiv_pos_site_id
 _symmetry_equiv_pos_as_xyz
  1  'x, y, z'
loop_
 _atom_site_type_symbol
 _atom_site_label
 _atom_site_symmetry_multiplicity
 _atom_site_fract_x
 _atom_site_fract_y
 _atom_site_fract_z
 _atom_site_occupancy
 _atom_site_hle17_bader_spin_density
 _atom_site_hle17_ddec_charge
 _atom_site_hle17_ddec_spin_density
 _atom_site_hle17_ddec_sum_bond_order
 _atom_site_hle17_magmom
 _atom_site_hse06_10hf_bader_spin_density
 _atom_site_hse06_10hf_ddec_charge
 _atom_site_hse06_10hf_ddec_spin_density
 _atom_site_hse06_10hf_ddec_sum_bond_order
 _atom_site_hse06_10hf_magmom
 _atom_site_hse06_bader_spin_density
 _atom_site_hse06_ddec_charge
 _atom_site_hse06_ddec_spin_density
 _atom_site_hse06_ddec_sum_bond_order
 _atom_site_hse06_magmom
 _atom_site_pbe_bader_spin_density
 _atom_site_pbe_cm5_charge
 _atom_site_pbe_ddec_charge
 _atom_site_pbe_ddec_spin_density
 _atom_site_pbe_ddec_sum_bond_order
 _atom_site_pbe_magmom
Cd  Cd0  1  0.47427025  0.49998421  0.99998014  1  0  0.719182  0  2.133953  0  0  0.571161  0  2.561991  0  0  0.620799  0  2.529772  0  0  0.468604  0.536535  0  2.584183  0
H  H1  1  0.27780976  0.46206030  0.55360575  1  0  0.10311  0  0.972492  0  0  0.112428  0  1.036548  0  0  0.114946  0  1.036855  0  0  0.105431  0.110611  0  1.036453  0
H  H2  1  0.72058104  0.53806771  0.44648613  1  0  0.104657  0  0.972005  0  0  0.11346  0  1.036485  0  0  0.115978  0  1.036761  0  0  0.105635  0.111679  0  1.036371  0
H  H3  1  0.29222198  0.00948574  0.71352463  1  0  0.127765  0  0.946164  0  0  0.133343  0  1.013035  0  0  0.137403  0  1.010136  0  0  0.108287  0.130331  0  1.015452  0
H  H4  1  0.58388044  0.99034592  0.28640477  1  0  0.126959  0  0.946968  0  0  0.132633  0  1.013884  0  0  0.136736  0  1.010973  0  0  0.108752  0.129595  0  1.016296  0
H  H5  1  0.39196885  0.88468207  0.89426286  1  0  0.080469  0  0.966029  0  0  0.083324  0  1.041755  0  0  0.086871  0  1.037574  0  0  0.09631  0.080502  0  1.045208  0
H  H6  1  0.50252932  0.11512976  0.10563296  1  0  0.080784  0  0.964995  0  0  0.083901  0  1.040478  0  0  0.087453  0  1.036298  0  0  0.096528  0.081068  0  1.043951  0
H  H7  1  0.37776128  0.36168081  0.74085253  1  0  0.082156  0  0.960423  0  0  0.086374  0  1.033015  0  0  0.089546  0  1.029298  0  0  0.10305  0.083897  0  1.036048  0
H  H8  1  0.63464876  0.63833082  0.25918997  1  0  0.081447  0  0.960318  0  0  0.085569  0  1.032927  0  0  0.088847  0  1.029075  0  0  0.102877  0.083029  0  1.036007  0
C  C9  1  0.30185712  0.55995116  0.62684732  1  0  -0.14854  0  3.704701  0  0  -0.168882  0  3.949103  0  0  -0.175372  0  3.970259  0  0  -0.07868  -0.164478  0  3.934792  0
C  C10  1  0.67413324  0.44011496  0.37318605  1  0  -0.152782  0  3.706026  0  0  -0.172989  0  3.95042  0  0  -0.179492  0  3.971572  0  0  -0.079633  -0.168607  0  3.936098  0
C  C11  1  0.31050670  0.86567023  0.71598767  1  0  -0.112753  0  3.639148  0  0  -0.134044  0  3.882559  0  0  -0.139463  0  3.901036  0  0  -0.064906  -0.130662  0  3.870396  0
C  C12  1  0.59851803  0.13420644  0.28396922  1  0  -0.110707  0  3.638564  0  0  -0.132041  0  3.881623  0  0  -0.137505  0  3.900065  0  0  -0.06594  -0.128634  0  3.869509  0
C  C13  1  0.27825457  0.74466143  0.61897238  1  0  0.070427  0  3.858208  0  0  0.088079  0  4.085403  0  0  0.090431  0  4.104963  0  0  0.018777  0.086699  0  4.072034  0
C  C14  1  0.66104164  0.25533926  0.38100601  1  0  0.071718  0  3.858284  0  0  0.089901  0  4.084664  0  0  0.092241  0  4.104245  0  0  0.019752  0.088511  0  4.071318  0
C  C15  1  0.22236886  0.80442038  0.51244817  1  0  0.265396  0  3.722916  0  0  0.252149  0  3.992714  0  0  0.262237  0  4.009418  0  0  0.19321  0.24534  0  3.981263  0
C  C16  1  0.70995148  0.19575255  0.48756778  1  0  0.263159  0  3.725485  0  0  0.249648  0  3.995261  0  0  0.259741  0  4.01197  0  0  0.191496  0.242841  0  3.983822  0
C  C17  1  0.36545079  0.79596226  0.81657676  1  0  0.144533  0  3.673315  0  0  0.114589  0  3.923497  0  0  0.12161  0  3.940426  0  0  0.049406  0.110005  0  3.912098  0
C  C18  1  0.55277843  0.20384437  0.18337252  1  0  0.143341  0  3.671935  0  0  0.113045  0  3.922513  0  0  0.120054  0  3.939452  0  0  0.049142  0.108451  0  3.911115  0
C  C19  1  0.35629731  0.50361581  0.73089564  1  0  0.137116  0  3.706531  0  0  0.106412  0  3.957937  0  0  0.113173  0  3.975699  0  0  0.044683  0.101929  0  3.945964  0
C  C20  1  0.62526891  0.49634277  0.26912305  1  0  0.141199  0  3.703219  0  0  0.110938  0  3.95401  0  0  0.117647  0  3.971715  0  0  0.046034  0.106503  0  3.942064  0
I  I21  1  0.93227429  0.23264025  0.91499162  1  0  -0.44101  0  1.231054  0  0  -0.39211  0  1.583355  0  0  -0.414773  0  1.562929  0  0  -0.202918  -0.375454  0  1.598722  0
I  I22  1  0.01804996  0.76741918  0.08507831  1  0  -0.441512  0  1.230149  0  0  -0.392691  0  1.582443  0  0  -0.415385  0  1.562087  0  0  -0.203214  -0.37602  0  1.597759  0
N  N23  1  0.38749828  0.61940582  0.82370515  1  0  -0.291979  0  3.255238  0  0  -0.214024  0  3.501371  0  0  -0.233184  0  3.523306  0  0  -0.31698  -0.200988  0  3.486016  0
N  N24  1  0.56569323  0.38046752  0.17629220  1  0  -0.29328  0  3.252544  0  0  -0.215567  0  3.499219  0  0  -0.234736  0  3.521144  0  0  -0.317299  -0.202513  0  3.483857  0
N  N25  1  0.17692966  0.84755585  0.42381191  1  0  -0.376202  0  2.559783  0  0  -0.353122  0  2.782055  0  0  -0.363709  0  2.796037  0  0  -0.289858  -0.34591  0  2.772557  0
N  N26  1  0.74914569  0.15286014  0.57623245  1  0  -0.374653  0  2.562216  0  0  -0.351486  0  2.784469  0  0  -0.362092  0  2.798467  0  0  -0.288545  -0.344259  0  2.774976  0
