# generated using pymatgen
data_CdH9C14SN3Cl2O
_symmetry_space_group_name_H-M   'P 1'
_cell_length_a   7.66858214
_cell_length_b   13.11558120
_cell_length_c   16.91100000
_cell_angle_alpha   111.93008189
_cell_angle_beta   90.00000000
_cell_angle_gamma   90.00000000
_symmetry_Int_Tables_number   1
_chemical_formula_structural   CdH9C14SN3Cl2O
_chemical_formula_sum   'Cd4 H36 C56 S4 N12 Cl8 O4'
_cell_volume   1577.79839515
_cell_formula_units_Z   4
loop_
 _symmetry_equiv_pos_site_id
 _symmetry_equiv_pos_as_xyz
  1  'x, y, z'
loop_
 _atom_site_type_symbol
 _atom_site_label
 _atom_site_symmetry_multiplicity
 _atom_site_fract_x
 _atom_site_fract_y
 _atom_site_fract_z
 _atom_site_occupancy
 _atom_site_hle17_bader_spin_density
 _atom_site_hle17_ddec_charge
 _atom_site_hle17_ddec_spin_density
 _atom_site_hle17_ddec_sum_bond_order
 _atom_site_hle17_magmom
 _atom_site_hse06_10hf_bader_spin_density
 _atom_site_hse06_10hf_ddec_charge
 _atom_site_hse06_10hf_ddec_spin_density
 _atom_site_hse06_10hf_ddec_sum_bond_order
 _atom_site_hse06_10hf_magmom
 _atom_site_hse06_bader_spin_density
 _atom_site_hse06_ddec_charge
 _atom_site_hse06_ddec_spin_density
 _atom_site_hse06_ddec_sum_bond_order
 _atom_site_hse06_magmom
 _atom_site_pbe_bader_charge
 _atom_site_pbe_bader_spin_density
 _atom_site_pbe_cm5_charge
 _atom_site_pbe_ddec_charge
 _atom_site_pbe_ddec_spin_density
 _atom_site_pbe_ddec_sum_bond_order
 _atom_site_pbe_magmom
Cd  Cd0  1  0.67850352  0.56312469  0.46762676  1  0  1.015438  0  1.915497  0  0  0.838743  0  2.374242  0  0  0.884468  0  2.333522  0  1.202267  0  0.744099  0.806768  0  2.401766  0
Cd  Cd1  1  0.17850366  0.43687600  0.03237462  1  0  1.015464  0  1.915484  0  0  0.838778  0  2.374221  0  0  0.884501  0  2.333501  0  1.202253  0  0.74411  0.806801  0  2.401746  0
Cd  Cd2  1  0.32149750  0.43687435  0.53237237  1  0  1.015448  0  1.915458  0  0  0.838757  0  2.374189  0  0  0.88448  0  2.33347  0  1.20224  0  0.744093  0.80678  0  2.401712  0
Cd  Cd3  1  0.82149215  0.56312551  0.96762523  1  0  1.015462  0  1.915454  0  0  0.838782  0  2.374178  0  0  0.884505  0  2.333461  0  1.202315  0  0.744113  0.806807  0  2.401704  0
H  H4  1  0.78483870  0.03934561  0.32051494  1  0  0.117302  0  0.95828  0  0  0.126238  0  1.023921  0  0  0.129279  0  1.021725  0  0.109782  0  0.100572  0.124074  0  1.025483  0
H  H5  1  0.28484405  0.96065261  0.17948395  1  0  0.11733  0  0.958329  0  0  0.126256  0  1.023981  0  0  0.129292  0  1.021792  0  0.109611  0  0.100596  0.124092  0  1.025544  0
H  H6  1  0.21515451  0.96065343  0.67948596  1  0  0.117342  0  0.958338  0  0  0.126264  0  1.024003  0  0  0.129302  0  1.021809  0  0.109625  0  0.100574  0.124096  0  1.025569  0
H  H7  1  0.71516349  0.03934808  0.82051388  1  0  0.11725  0  0.958413  0  0  0.126194  0  1.024051  0  0  0.129234  0  1.021855  0  0.109648  0  0.100564  0.124029  0  1.025614  0
H  H8  1  0.51920941  0.20151002  0.17586214  1  0  0.105184  0  0.956816  0  0  0.114135  0  1.022681  0  0  0.117186  0  1.020861  0  0.085332  0  0.098416  0.111929  0  1.024  0
H  H9  1  0.01920955  0.79849396  0.32414079  1  0  0.105147  0  0.956867  0  0  0.114147  0  1.022683  0  0  0.117198  0  1.020865  0  0.085337  0  0.098397  0.111922  0  1.024023  0
H  H10  1  0.48079422  0.79849314  0.82413996  1  0  0.105195  0  0.956806  0  0  0.114173  0  1.022649  0  0  0.117223  0  1.020832  0  0.085332  0  0.098416  0.111965  0  1.02397  0
H  H11  1  0.98079278  0.20150755  0.67586024  1  0  0.105229  0  0.956847  0  0  0.114215  0  1.022666  0  0  0.117277  0  1.020835  0  0.085288  0  0.098422  0.111986  0  1.024011  0
H  H12  1  0.42505771  0.37596386  0.23251959  1  0  0.065873  0  0.914724  0  0  0.078628  0  0.978316  0  0  0.081028  0  0.975048  0  0.091141  0  0.110411  0.076806  0  0.980792  0
H  H13  1  0.92505888  0.62403929  0.26748132  1  0  0.065879  0  0.914684  0  0  0.078643  0  0.978274  0  0  0.081044  0  0.975003  0  0.091173  0  0.110422  0.076819  0  0.980752  0
H  H14  1  0.57494331  0.62403929  0.76748132  1  0  0.065889  0  0.914722  0  0  0.078659  0  0.978302  0  0  0.081061  0  0.975031  0  0.09117  0  0.110413  0.076838  0  0.980779  0
H  H15  1  0.07494606  0.37596222  0.73251853  1  0  0.065874  0  0.914763  0  0  0.078651  0  0.97833  0  0  0.081051  0  0.975063  0  0.091092  0  0.110407  0.076831  0  0.98081  0
H  H16  1  0.29317675  0.60054699  0.35819546  1  0  0.098491  0  0.904536  0  0  0.115806  0  0.964551  0  0  0.115962  0  0.964479  0  0.114473  0  0.112962  0.115611  0  0.964689  0
H  H17  1  0.79317531  0.39945534  0.14180640  1  0  0.098484  0  0.904501  0  0  0.115816  0  0.964505  0  0  0.115975  0  0.964432  0  0.1145  0  0.112971  0.11562  0  0.964646  0
H  H18  1  0.70682297  0.39945452  0.64180675  1  0  0.098524  0  0.904515  0  0  0.115834  0  0.964526  0  0  0.11599  0  0.964454  0  0.114565  0  0.112992  0.115639  0  0.964666  0
H  H19  1  0.20682702  0.60054535  0.85819498  1  0  0.09852  0  0.904497  0  0  0.115823  0  0.964511  0  0  0.115981  0  0.964437  0  0.114472  0  0.112987  0.115626  0  0.964651  0
H  H20  1  0.39282229  0.55404241  0.25540347  1  0  0.085746  0  0.949847  0  0  0.100407  0  1.015037  0  0  0.100977  0  1.01525  0  0.081202  0  0.104689  0.099971  0  1.014892  0
H  H21  1  0.89282346  0.44595993  0.24459957  1  0  0.085775  0  0.949736  0  0  0.100396  0  1.014981  0  0  0.100964  0  1.015199  0  0.08114  0  0.10467  0.099959  0  1.014837  0
H  H22  1  0.60717613  0.44595993  0.74459780  1  0  0.085761  0  0.949779  0  0  0.100388  0  1.015014  0  0  0.100959  0  1.015225  0  0.081179  0  0.10468  0.099953  0  1.014869  0
H  H23  1  0.10717887  0.55404076  0.75540063  1  0  0.085746  0  0.949812  0  0  0.100378  0  1.015029  0  0  0.100948  0  1.015243  0  0.081145  0  0.104663  0.099941  0  1.014885  0
H  H24  1  0.39855608  0.74835810  0.26643146  1  0  0.107349  0  0.978307  0  0  0.11682  0  1.041211  0  0  0.118417  0  1.043476  0  0.097842  0  0.100656  0.115624  0  1.039887  0
H  H25  1  0.89855594  0.25164176  0.23356968  1  0  0.107287  0  0.978345  0  0  0.116757  0  1.041266  0  0  0.118353  0  1.043533  0  0.097793  0  0.100644  0.115563  0  1.03994  0
H  H26  1  0.60144625  0.25164094  0.73356826  1  0  0.10727  0  0.97839  0  0  0.116774  0  1.041266  0  0  0.118371  0  1.043531  0  0.097822  0  0.100631  0.115578  0  1.039941  0
H  H27  1  0.10144639  0.74835810  0.76643264  1  0  0.107325  0  0.978322  0  0  0.1168  0  1.041223  0  0  0.118397  0  1.043488  0  0.097785  0  0.100657  0.115606  0  1.039894  0
H  H28  1  0.54813523  0.93000134  0.32634337  1  0  0.090269  0  0.955706  0  0  0.100829  0  1.017738  0  0  0.103034  0  1.016208  0  0.090006  0  0.100378  0.099213  0  1.018836  0
H  H29  1  0.04813536  0.06999935  0.17365801  1  0  0.090241  0  0.955711  0  0  0.100782  0  1.017759  0  0  0.102987  0  1.016229  0  0.089979  0  0.100354  0.099167  0  1.018856  0
H  H30  1  0.45186580  0.06999771  0.67365694  1  0  0.0902  0  0.955709  0  0  0.100742  0  1.017765  0  0  0.102947  0  1.016234  0  0.090001  0  0.100319  0.099127  0  1.018863  0
H  H31  1  0.95186696  0.93000052  0.82634372  1  0  0.09016  0  0.955745  0  0  0.100727  0  1.017775  0  0  0.102932  0  1.016245  0  0.090022  0  0.100337  0.099111  0  1.018873  0
H  H32  1  0.76466156  0.96362798  0.44609411  1  0  0.095364  0  0.976539  0  0  0.098721  0  1.047597  0  0  0.102399  0  1.046229  0  0.087155  0  0.095193  0.096108  0  1.048681  0
H  H33  1  0.26466170  0.03637188  0.05390762  1  0  0.095318  0  0.97655  0  0  0.09869  0  1.047606  0  0  0.102369  0  1.046238  0  0.087157  0  0.095173  0.096078  0  1.048689  0
H  H34  1  0.23533685  0.03637352  0.55390751  1  0  0.095355  0  0.976544  0  0  0.098701  0  1.047631  0  0  0.102379  0  1.046262  0  0.087185  0  0.09518  0.096089  0  1.048714  0
H  H35  1  0.73534063  0.96362716  0.94609387  1  0  0.095338  0  0.976548  0  0  0.098707  0  1.047616  0  0  0.102386  0  1.046247  0  0.087162  0  0.095179  0.096097  0  1.0487  0
H  H36  1  0.82414192  0.80868338  0.49612833  1  0  0.062216  0  0.984131  0  0  0.065725  0  1.061347  0  0  0.068397  0  1.058772  0  0.083715  0  0.095069  0.063732  0  1.0633  0
H  H37  1  0.32413945  0.19131731  0.00387424  1  0  0.06224  0  0.984152  0  0  0.065758  0  1.06135  0  0  0.068432  0  1.058772  0  0.083625  0  0.095077  0.063764  0  1.063306  0
H  H38  1  0.17585389  0.19131895  0.50387471  1  0  0.062214  0  0.984135  0  0  0.0657  0  1.061373  0  0  0.068371  0  1.058798  0  0.083601  0  0.095032  0.063706  0  1.063327  0
H  H39  1  0.67585897  0.80868173  0.99612667  1  0  0.062173  0  0.984152  0  0  0.06569  0  1.061366  0  0  0.068364  0  1.058789  0  0.083621  0  0.095051  0.063697  0  1.06332  0
C  C40  1  0.56312757  0.30097624  0.30872473  1  0  -0.084547  0  3.793457  0  0  -0.064063  0  4.039703  0  0  -0.074652  0  4.065243  0  -0.018442  0  -0.03512  -0.057136  0  4.022455  0
C  C41  1  0.06313031  0.69902198  0.19127298  1  0  -0.084604  0  3.793462  0  0  -0.064058  0  4.039718  0  0  -0.07464  0  4.065252  0  -0.018459  0  -0.035094  -0.057119  0  4.022433  0
C  C42  1  0.43687085  0.69902362  0.69127345  1  0  -0.084676  0  3.793483  0  0  -0.064163  0  4.039789  0  0  -0.074728  0  4.065294  0  -0.018453  0  -0.035148  -0.05723  0  4.022527  0
C  C43  1  0.93687462  0.30097624  0.80872296  1  0  -0.084393  0  3.7933  0  0  -0.064016  0  4.039678  0  0  -0.07459  0  4.065195  0  -0.018463  0  -0.035094  -0.057082  0  4.022402  0
C  C44  1  0.62342033  0.30453025  0.39044839  1  0  0.28559  0  3.85601  0  0  0.25879  0  4.116432  0  0  0.274653  0  4.133184  0  0.797789  0  0.080476  0.248143  0  4.104802  0
C  C45  1  0.12342568  0.69547126  0.10955086  1  0  0.285639  0  3.855841  0  0  0.258719  0  4.116367  0  0  0.274581  0  4.133119  0  0.797639  0  0.080451  0.248072  0  4.10474  0
C  C46  1  0.37657548  0.69547126  0.60955146  1  0  0.285735  0  3.855823  0  0  0.258807  0  4.116355  0  0  0.274663  0  4.133104  0  0.797383  0  0.080482  0.24816  0  4.104724  0
C  C47  1  0.87658056  0.30452696  0.89044566  1  0  0.285352  0  3.856225  0  0  0.258623  0  4.1166  0  0  0.274483  0  4.133352  0  0.797683  0  0.08039  0.247975  0  4.104975  0
C  C48  1  0.70328646  0.20581116  0.39031181  1  0  0.035458  0  3.740448  0  0  0.047105  0  4.014148  0  0  0.044116  0  4.035377  0  0.014881  0  -0.004123  0.048667  0  4.000033  0
C  C49  1  0.20328921  0.79419200  0.10968910  1  0  0.035625  0  3.740267  0  0  0.047332  0  4.013936  0  0  0.044347  0  4.03516  0  0.015022  0  -0.004118  0.04889  0  3.999822  0
C  C50  1  0.29671196  0.79419117  0.60969123  1  0  0.035619  0  3.740353  0  0  0.047382  0  4.013943  0  0  0.044395  0  4.035171  0  0.01524  0  -0.00406  0.048943  0  3.999824  0
C  C51  1  0.79671703  0.20581033  0.89030862  1  0  0.035477  0  3.740571  0  0  0.047107  0  4.014252  0  0  0.044116  0  4.035482  0  0.015122  0  -0.004157  0.048667  0  4.000141  0
C  C52  1  0.71817057  0.11110142  0.31762181  1  0  -0.17619  0  3.783407  0  0  -0.212089  0  4.040384  0  0  -0.210462  0  4.059057  0  0.090451  0  -0.106539  -0.212767  0  4.027684  0
C  C53  1  0.21817853  0.88890009  0.18237803  1  0  -0.17642  0  3.783716  0  0  -0.212325  0  4.040647  0  0  -0.210699  0  4.059321  0  0.090466  0  -0.106618  -0.213001  0  4.027948  0
C  C54  1  0.28182133  0.88890009  0.68237803  1  0  -0.176392  0  3.783773  0  0  -0.212314  0  4.040677  0  0  -0.210687  0  4.05935  0  0.090476  0  -0.106584  -0.212986  0  4.027978  0
C  C55  1  0.78182510  0.11109977  0.81762193  1  0  -0.176148  0  3.783599  0  0  -0.21205  0  4.040555  0  0  -0.210423  0  4.059227  0  0.090335  0  -0.106563  -0.212729  0  4.027861  0
C  C56  1  0.64776772  0.10933016  0.24071352  1  0  0.112569  0  3.844176  0  0  0.12491  0  4.118305  0  0  0.123866  0  4.140499  0  -0.077628  0  -0.010357  0.125214  0  4.103339  0
C  C57  1  0.14777438  0.89067217  0.25928361  1  0  0.112712  0  3.844214  0  0  0.125054  0  4.118334  0  0  0.12401  0  4.140531  0  -0.077558  0  -0.010339  0.125357  0  4.103365  0
C  C58  1  0.35222548  0.89067134  0.75928396  1  0  0.112684  0  3.844092  0  0  0.125024  0  4.118215  0  0  0.12398  0  4.140412  0  -0.077493  0  -0.010357  0.125327  0  4.103249  0
C  C59  1  0.85223186  0.10933016  0.74071470  1  0  0.112617  0  3.844183  0  0  0.124937  0  4.118332  0  0  0.123893  0  4.140531  0  -0.077613  0  -0.010347  0.125236  0  4.103369  0
C  C60  1  0.57126336  0.20268619  0.23620992  1  0  -0.154541  0  3.770866  0  0  -0.191966  0  4.02939  0  0  -0.189535  0  4.048162  0  0.015955  0  -0.101938  -0.193154  0  4.016536  0
C  C61  1  0.07126611  0.79731367  0.26378827  1  0  -0.154557  0  3.770825  0  0  -0.192043  0  4.029342  0  0  -0.189617  0  4.04812  0  0.016023  0  -0.101932  -0.193217  0  4.01649  0
C  C62  1  0.42873767  0.79731449  0.76378851  1  0  -0.154553  0  3.770792  0  0  -0.192009  0  4.029316  0  0  -0.189588  0  4.048089  0  0.015954  0  -0.10192  -0.193197  0  4.016459  0
C  C63  1  0.92873753  0.20268537  0.73620849  1  0  -0.154599  0  3.770817  0  0  -0.192018  0  4.029345  0  0  -0.189603  0  4.04811  0  0.016001  0  -0.101907  -0.193189  0  4.016504  0
C  C64  1  0.49050267  0.39518954  0.29460663  1  0  0.165617  0  3.701257  0  0  0.120288  0  3.96023  0  0  0.134796  0  3.971589  0  0.626899  0  0.078555  0.110551  0  3.952534  0
C  C65  1  0.99050253  0.60481279  0.20539464  1  0  0.165638  0  3.701128  0  0  0.12028  0  3.960106  0  0  0.134787  0  3.971459  0  0.626889  0  0.078528  0.110542  0  3.952411  0
C  C66  1  0.50949836  0.60481115  0.70539357  1  0  0.165615  0  3.701203  0  0  0.120248  0  3.960175  0  0  0.134749  0  3.97153  0  0.626946  0  0.078574  0.110508  0  3.952482  0
C  C67  1  0.00949980  0.39518543  0.79460367  1  0  0.16559  0  3.701024  0  0  0.120252  0  3.960061  0  0  0.134755  0  3.971415  0  0.626883  0  0.078531  0.110509  0  3.952375  0
C  C68  1  0.41961082  0.58087665  0.32428250  1  0  -0.060916  0  3.697616  0  0  -0.11958  0  3.948377  0  0  -0.116507  0  3.959912  0  0.286851  0  -0.060281  -0.121439  0  3.94031  0
C  C69  1  0.91961459  0.41912485  0.17571853  1  0  -0.061024  0  3.697502  0  0  -0.119663  0  3.94828  0  0  -0.116599  0  3.95983  0  0.286937  0  -0.060327  -0.121522  0  3.940214  0
C  C70  1  0.58038760  0.41912568  0.67571877  1  0  -0.060972  0  3.697574  0  0  -0.119602  0  3.948324  0  0  -0.116529  0  3.959858  0  0.286786  0  -0.060333  -0.121461  0  3.940254  0
C  C71  1  0.08038774  0.58087665  0.82428191  1  0  -0.061008  0  3.697643  0  0  -0.119583  0  3.948354  0  0  -0.116512  0  3.959891  0  0.286944  0  -0.060308  -0.121442  0  3.940288  0
C  C72  1  0.52367177  0.68665528  0.35355751  1  0  0.25124  0  3.70227  0  0  0.249601  0  3.94998  0  0  0.257827  0  3.969585  0  0.495394  0  0.124078  0.244185  0  3.936576  0
C  C73  1  0.02367452  0.31334541  0.14644447  1  0  0.25121  0  3.702094  0  0  0.249532  0  3.94987  0  0  0.257759  0  3.969477  0  0.495443  0  0.124071  0.244116  0  3.936466  0
C  C74  1  0.47632534  0.31334870  0.64644483  1  0  0.25123  0  3.702086  0  0  0.249525  0  3.949907  0  0  0.25775  0  3.969514  0  0.49538  0  0.124079  0.24411  0  3.936505  0
C  C75  1  0.97632781  0.68665528  0.85355751  1  0  0.251192  0  3.702355  0  0  0.249471  0  3.950153  0  0  0.257697  0  3.96976  0  0.495369  0  0.124043  0.244055  0  3.93675  0
C  C76  1  0.49095386  0.76594650  0.31864386  1  0  -0.163042  0  3.714032  0  0  -0.180597  0  3.961142  0  0  -0.189029  0  3.98424  0  -0.04198  0  -0.089086  -0.175233  0  3.945734  0
C  C77  1  0.99095242  0.23405336  0.18135787  1  0  -0.162868  0  3.71391  0  0  -0.180417  0  3.961023  0  0  -0.188848  0  3.984122  0  -0.042098  0  -0.089009  -0.175055  0  3.945617  0
C  C78  1  0.50904717  0.23405501  0.68135598  1  0  -0.162977  0  3.713843  0  0  -0.180538  0  3.960962  0  0  -0.188969  0  3.98406  0  -0.041956  0  -0.089067  -0.175176  0  3.945557  0
C  C79  1  0.00904861  0.76594568  0.81864363  1  0  -0.162972  0  3.713913  0  0  -0.18051  0  3.961051  0  0  -0.188943  0  3.984149  0  -0.042044  0  -0.089052  -0.175146  0  3.945642  0
C  C80  1  0.57575963  0.86684452  0.35190108  1  0  0.006183  0  3.72693  0  0  -0.012418  0  3.974462  0  0  -0.008233  0  3.993209  0  -0.009915  0  -0.069418  -0.014854  0  3.961605  0
C  C81  1  0.07576107  0.13315616  0.14810030  1  0  0.006194  0  3.726841  0  0  -0.012384  0  3.974377  0  0  -0.008199  0  3.993124  0  -0.009863  0  -0.069424  -0.014822  0  3.961523  0
C  C82  1  0.42423618  0.13315616  0.64809912  1  0  0.006268  0  3.72676  0  0  -0.012311  0  3.974292  0  0  -0.008126  0  3.993039  0  -0.009898  0  -0.069345  -0.014748  0  3.961438  0
C  C83  1  0.92424387  0.86684288  0.85190061  1  0  0.006342  0  3.726692  0  0  -0.012253  0  3.974222  0  0  -0.008068  0  3.992967  0  -0.009955  0  -0.069389  -0.01469  0  3.961368  0
C  C84  1  0.69611043  0.88560006  0.41784579  1  0  -0.131903  0  3.754044  0  0  -0.141181  0  4.000977  0  0  -0.149296  0  4.023243  0  -0.020594  0  -0.092943  -0.135993  0  3.986006  0
C  C85  1  0.19610926  0.11440145  0.08215524  1  0  -0.131951  0  3.754006  0  0  -0.141249  0  4.000941  0  0  -0.149365  0  4.023208  0  -0.020537  0  -0.092972  -0.136061  0  3.98597  0
C  C86  1  0.30388929  0.11440145  0.58215405  1  0  -0.131947  0  3.754034  0  0  -0.141233  0  4.000978  0  0  -0.149347  0  4.023244  0  -0.020536  0  -0.092977  -0.136043  0  3.986003  0
C  C87  1  0.80389307  0.88559842  0.91784472  1  0  -0.131986  0  3.753979  0  0  -0.141304  0  4.000941  0  0  -0.149419  0  4.023206  0  -0.020391  0  -0.09298  -0.136112  0  3.98596  0
C  C88  1  0.72741087  0.80104851  0.44682384  1  0  0.118424  0  3.742822  0  0  0.089741  0  3.993963  0  0  0.096475  0  4.012582  0  0.486601  0  0.03487  0.085418  0  3.981284  0
C  C89  1  0.22741101  0.19895383  0.05317743  1  0  0.118405  0  3.742799  0  0  0.089719  0  3.993949  0  0  0.096453  0  4.012567  0  0.486712  0  0.034874  0.085395  0  3.981273  0
C  C90  1  0.27258494  0.19895629  0.55317932  1  0  0.118436  0  3.742761  0  0  0.089781  0  3.993916  0  0  0.096517  0  4.012533  0  0.48643  0  0.034928  0.08546  0  3.981237  0
C  C91  1  0.77259002  0.80104522  0.94682230  1  0  0.118516  0  3.742764  0  0  0.089824  0  3.993915  0  0  0.096558  0  4.012532  0  0.486171  0  0.03491  0.085502  0  3.981238  0
C  C92  1  0.96895357  0.58156954  0.60512065  1  0  0.308266  0  3.969344  0  0  0.290686  0  4.268497  0  0  0.311977  0  4.283524  0  0.594187  0  0.149169  0.276223  0  4.258001  0
C  C93  1  0.46895110  0.41842786  0.89488037  1  0  0.308416  0  3.968947  0  0  0.290845  0  4.268099  0  0  0.312137  0  4.283117  0  0.594361  0  0.14925  0.27638  0  4.257619  0
C  C94  1  0.03104224  0.41843115  0.39488310  1  0  0.308339  0  3.969297  0  0  0.290759  0  4.268433  0  0  0.312051  0  4.283455  0  0.59463  0  0.149231  0.276296  0  4.257944  0
C  C95  1  0.53104993  0.58157036  0.10512030  1  0  0.308263  0  3.969214  0  0  0.290679  0  4.26838  0  0  0.311971  0  4.283408  0  0.594143  0  0.14917  0.276216  0  4.257886  0
S  S96  1  0.83755900  0.68121412  0.60866350  1  0  -0.320978  0  2.222314  0  0  -0.286103  0  2.556779  0  0  -0.30562  0  2.553833  0  0.067141  0  -0.128174  -0.272488  0  2.558519  0
S  S97  1  0.33754610  0.31877506  0.89133455  1  0  -0.321141  0  2.222028  0  0  -0.286277  0  2.556494  0  0  -0.305788  0  2.553533  0  0.066881  0  -0.128233  -0.272633  0  2.558177  0
S  S98  1  0.16244072  0.31877999  0.39133598  1  0  -0.321079  0  2.222062  0  0  -0.286224  0  2.556557  0  0  -0.305739  0  2.553602  0  0.066785  0  -0.128216  -0.27259  0  2.558265  0
S  S99  1  0.66244058  0.68121577  0.10866338  1  0  -0.320965  0  2.222355  0  0  -0.286103  0  2.556842  0  0  -0.305621  0  2.553898  0  0.067139  0  -0.128181  -0.272488  0  2.558579  0
N  N100  1  0.50133648  0.49581962  0.34661244  1  0  -0.315666  0  3.203421  0  0  -0.23792  0  3.471253  0  0  -0.256698  0  3.487243  0  -1.189194  0  -0.347356  -0.225334  0  3.460248  0
N  N101  1  0.00133923  0.50418354  0.15338847  1  0  -0.315588  0  3.203295  0  0  -0.237826  0  3.471109  0  0  -0.256599  0  3.487096  0  -1.189233  0  -0.347287  -0.225244  0  3.460108  0
N  N102  1  0.49866193  0.50418189  0.65338740  1  0  -0.315629  0  3.20339  0  0  -0.237831  0  3.471152  0  0  -0.256606  0  3.487142  0  -1.189272  0  -0.347316  -0.225245  0  3.46015  0
N  N103  1  0.99865788  0.49581468  0.84661043  1  0  -0.315602  0  3.203136  0  0  -0.237859  0  3.470942  0  0  -0.256636  0  3.486932  0  -1.189155  0  -0.347286  -0.225279  0  3.459946  0
N  N104  1  0.64214348  0.70458560  0.41588432  1  0  -0.366412  0  3.253663  0  0  -0.296574  0  3.514851  0  0  -0.315686  0  3.532656  0  -1.245992  0  -0.332961  -0.283543  0  3.502422  0
N  N105  1  0.14214362  0.29541509  0.08411647  1  0  -0.36634  0  3.2535  0  0  -0.296493  0  3.514705  0  0  -0.315603  0  3.532508  0  -1.24602  0  -0.332937  -0.283463  0  3.502278  0
N  N106  1  0.35785624  0.29541673  0.58411694  1  0  -0.36636  0  3.253524  0  0  -0.296522  0  3.51475  0  0  -0.315632  0  3.532553  0  -1.245768  0  -0.332944  -0.283493  0  3.502323  0
N  N107  1  0.85785610  0.70458313  0.91588302  1  0  -0.366356  0  3.253643  0  0  -0.296494  0  3.514852  0  0  -0.315604  0  3.532656  0  -1.245511  0  -0.332913  -0.283463  0  3.502423  0
N  N108  1  0.06430133  0.51082635  0.60589800  1  0  -0.538187  0  2.818983  0  0  -0.49111  0  3.090663  0  0  -0.510354  0  3.096321  0  -1.28538  0  -0.394797  -0.477968  0  3.086672  0
N  N109  1  0.56429988  0.48917188  0.89410385  1  0  -0.5382  0  2.818968  0  0  -0.491115  0  3.09063  0  0  -0.510368  0  3.096301  0  -1.285296  0  -0.394798  -0.477979  0  3.086645  0
N  N110  1  0.93570100  0.48916941  0.39410195  1  0  -0.538134  0  2.819157  0  0  -0.491054  0  3.090835  0  0  -0.510291  0  3.096476  0  -1.28547  0  -0.39479  -0.477917  0  3.086853  0
N  N111  1  0.43569462  0.51082470  0.10589871  1  0  -0.538179  0  2.818807  0  0  -0.491103  0  3.090494  0  0  -0.510351  0  3.096155  0  -1.285306  0  -0.394789  -0.477962  0  3.086505  0
Cl  Cl112  1  0.78362596  0.20495224  0.48570609  1  0  -0.080493  0  1.391989  0  0  -0.062209  0  1.626792  0  0  -0.065933  0  1.623349  0  -0.22425  0  0.003966  -0.05939  0  1.629258  0
Cl  Cl113  1  0.28363522  0.79504762  0.01429446  1  0  -0.080516  0  1.391938  0  0  -0.062252  0  1.626752  0  0  -0.065971  0  1.623297  0  -0.224287  0  0.003976  -0.059433  0  1.629219  0
Cl  Cl114  1  0.21636725  0.79504844  0.51429470  1  0  -0.08057  0  1.391941  0  0  -0.062316  0  1.626717  0  0  -0.066036  0  1.623263  0  -0.224248  0  0.003938  -0.059496  0  1.629182  0
Cl  Cl115  1  0.71637624  0.20495224  0.98570550  1  0  -0.080476  0  1.391901  0  0  -0.062185  0  1.626704  0  0  -0.065914  0  1.623269  0  -0.224188  0  0.003993  -0.05937  0  1.62917  0
Cl  Cl116  1  0.66141301  0.98937071  0.15057265  1  0  -0.106996  0  1.352696  0  0  -0.088541  0  1.583084  0  0  -0.092482  0  1.579219  0  -0.236659  0  -0.00525  -0.085612  0  1.585855  0
Cl  Cl117  1  0.16141837  0.01063162  0.34942743  1  0  -0.107021  0  1.352636  0  0  -0.088569  0  1.583023  0  0  -0.092513  0  1.579165  0  -0.23668  0  -0.00525  -0.085644  0  1.585792  0
Cl  Cl118  1  0.33857889  0.01063244  0.84942885  1  0  -0.107049  0  1.352593  0  0  -0.088597  0  1.582981  0  0  -0.092542  0  1.579123  0  -0.236707  0  -0.005276  -0.085672  0  1.585751  0
Cl  Cl119  1  0.83858266  0.98936743  0.65056934  1  0  -0.107053  0  1.352618  0  0  -0.088591  0  1.583006  0  0  -0.092535  0  1.579148  0  -0.236729  0  -0.005274  -0.085661  0  1.585777  0
O  O120  1  0.60562304  0.38931441  0.46179909  1  0  -0.626716  0  2.152816  0  0  -0.552805  0  2.424023  0  0  -0.580358  0  2.417737  0  -1.168994  0  -0.355216  -0.533312  0  2.427506  0
O  O121  1  0.10562318  0.61068545  0.03820087  1  0  -0.626822  0  2.152844  0  0  -0.552866  0  2.424067  0  0  -0.580417  0  2.417788  0  -1.169038  0  -0.355233  -0.53337  0  2.427556  0
O  O122  1  0.39437538  0.61068710  0.53820076  1  0  -0.626778  0  2.152795  0  0  -0.552821  0  2.424023  0  0  -0.580373  0  2.417741  0  -1.168933  0  -0.355226  -0.533329  0  2.427507  0
O  O123  1  0.89437655  0.38931359  0.96179707  1  0  -0.626641  0  2.152804  0  0  -0.552757  0  2.423979  0  0  -0.580303  0  2.417697  0  -1.168891  0  -0.355173  -0.53326  0  2.427465  0
