# generated using pymatgen
data_Zn4H7C17ClO13
_symmetry_space_group_name_H-M   'P 1'
_cell_length_a   10.93344646
_cell_length_b   11.01070691
_cell_length_c   16.13653870
_cell_angle_alpha   90.24533125
_cell_angle_beta   98.46333577
_cell_angle_gamma   98.93399651
_symmetry_Int_Tables_number   1
_chemical_formula_structural   Zn4H7C17ClO13
_chemical_formula_sum   'Zn4 H7 C17 Cl1 O13'
_cell_volume   1897.39903354
_cell_formula_units_Z   1
loop_
 _symmetry_equiv_pos_site_id
 _symmetry_equiv_pos_as_xyz
  1  'x, y, z'
loop_
 _atom_site_type_symbol
 _atom_site_label
 _atom_site_symmetry_multiplicity
 _atom_site_fract_x
 _atom_site_fract_y
 _atom_site_fract_z
 _atom_site_occupancy
 _atom_site_pbe_bader_charge
 _atom_site_pbe_bader_spin_density
 _atom_site_pbe_cm5_charge
 _atom_site_pbe_ddec_charge
 _atom_site_pbe_ddec_spin_density
 _atom_site_pbe_ddec_sum_bond_order
 _atom_site_pbe_magmom
Zn  Zn0  1  0.40746217  0.59120390  0.56870199  1  1.312611  0  0.672796  0.963206  0  2.37075  0
Zn  Zn1  1  0.60646962  0.61986375  0.44018828  1  1.315072  0  0.675743  0.968917  0  2.350898  0
Zn  Zn2  1  0.37924239  0.38705827  0.41849607  1  1.318456  0  0.676741  0.975145  0  2.334309  0
Zn  Zn3  1  0.60090488  0.40238654  0.57242756  1  1.312835  0  0.671644  0.95259  0  2.393209  0
H  H4  1  0.59614205  0.40742057  0.01014192  1  0.099801  0  0.12411  0.128961  0  0.954237  0
H  H5  1  0.40507617  0.58903004  0.99022026  1  0.114207  0  0.129656  0.134617  0  0.945  0
H  H6  1  0.03390134  0.59506570  0.56698579  1  0.157797  0  0.130088  0.170224  0  0.956192  0
H  H7  1  0.39545279  0.98578684  0.43216505  1  0.09837  0  0.112715  0.142455  0  0.980302  0
H  H8  1  0.69643831  0.94450610  0.62599376  1  0.019341  0  0.095821  0.130664  0  0.991625  0
H  H9  1  0.72105221  0.08531252  0.57176151  1  0.078745  0  0.108379  0.1581  0  0.970846  0
H  H10  1  0.61665291  0.06926778  0.64551474  1  0.083553  0  0.107718  0.156748  0  0.971178  0
C  C11  1  0.83388410  0.52686934  0.51862183  1  1.624456  0  0.22941  0.667074  0  4.176625  0
C  C12  1  0.52597392  0.83237697  0.51675812  1  1.594352  0  0.234847  0.603663  0  4.164307  0
C  C13  1  0.47558518  0.16816790  0.48390934  1  1.536695  0  0.220773  0.657769  0  4.171743  0
C  C14  1  0.48122142  0.51508019  0.27557230  1  1.659153  0  0.236453  0.677787  0  4.24103  0
C  C15  1  0.51726892  0.48527681  0.72514989  1  1.651615  0  0.23042  0.678407  0  4.238179  0
C  C16  1  0.47550022  0.51991525  0.18577996  1  0.15478  0  -0.026228  -0.172408  0  3.904674  0
C  C17  1  0.46719619  0.52978238  0.02272381  1  0.042462  0  -0.050292  -0.042429  0  4.037664  0
C  C18  1  0.53411421  0.46660367  0.97760217  1  0.162039  0  -0.061591  -0.061817  0  4.056723  0
C  C19  1  0.65090602  0.01905696  0.59698377  1  -0.009237  0  -0.22784  -0.400772  0  3.937961  0
C  C20  1  0.52722544  0.47379368  0.89033262  1  -0.437681  0  -0.019094  0.019279  0  4.143194  0
C  C21  1  0.47265152  0.52379918  0.10994194  1  -0.353009  0  -0.009765  0.025757  0  4.111391  0
C  C22  1  0.52308827  0.47854248  0.81441263  1  0.143828  0  -0.043185  -0.199439  0  3.953277  0
C  C23  1  0.02326851  0.46146386  0.47272057  1  0.103877  0  0.002729  0.01376  0  4.00672  0
C  C24  1  0.97154707  0.53114388  0.52186672  1  -0.0376  0  -0.07352  -0.228916  0  3.838702  0
C  C25  1  0.46873056  0.03369000  0.47952207  1  0.049345  0  -0.104292  -0.313717  0  3.887026  0
C  C26  1  0.54514725  0.96979099  0.52899207  1  -0.104269  0  0.020962  0.126736  0  3.873331  0
C  C27  1  0.16308289  0.47128011  0.47965909  1  1.589098  0  0.227539  0.602029  0  4.186414  0
Cl  Cl28  1  0.93355259  0.35779325  0.39932410  1  -0.173736  0  -0.007857  -0.049317  0  1.463235  0
O  O29  1  0.49775756  0.50117979  0.49850524  1  -1.239732  0  -0.569617  -1.034681  0  2.523165  0
O  O30  1  0.56450683  0.59452872  0.31800008  1  -1.141363  0  -0.304787  -0.530605  0  2.272688  0
O  O31  1  0.58314193  0.41861885  0.69114601  1  -1.14814  0  -0.311151  -0.538219  0  2.276248  0
O  O32  1  0.40305911  0.43248822  0.30265302  1  -1.147012  0  -0.300647  -0.528367  0  2.269787  0
O  O33  1  0.44680137  0.55740882  0.68839367  1  -1.15239  0  -0.3136  -0.543993  0  2.275735  0
O  O34  1  0.44931693  0.77091244  0.55885450  1  -1.155367  0  -0.308023  -0.533514  0  2.307063  0
O  O35  1  0.55859780  0.22901533  0.53927907  1  -1.181503  0  -0.312903  -0.551125  0  2.366797  0
O  O36  1  0.78441378  0.60310289  0.47079005  1  -1.157715  0  -0.307547  -0.536918  0  2.289433  0
O  O37  1  0.20536796  0.40443025  0.42989791  1  -1.15072  0  -0.308344  -0.529371  0  2.355019  0
O  O38  1  0.78077640  0.44931405  0.56523791  1  -1.148176  0  -0.306926  -0.533547  0  2.297836  0
O  O39  1  0.22595173  0.54728348  0.53594637  1  -1.162847  0  -0.313828  -0.53908  0  2.341892  0
O  O40  1  0.59178140  0.79093621  0.46767667  1  -1.16087  0  -0.307099  -0.533231  0  2.305383  0
O  O41  1  0.39648741  0.21394797  0.43124168  1  -1.161118  0  -0.320405  -0.552422  0  2.279671  0
