# generated using pymatgen
data_Zn2H29C33N3O10
_symmetry_space_group_name_H-M   'P 1'
_cell_length_a   9.71057028
_cell_length_b   11.03602467
_cell_length_c   16.09581460
_cell_angle_alpha   89.84720651
_cell_angle_beta   89.83642992
_cell_angle_gamma   89.74681159
_symmetry_Int_Tables_number   1
_chemical_formula_structural   Zn2H29C33N3O10
_chemical_formula_sum   'Zn2 H29 C33 N3 O10'
_cell_volume   1724.89562016
_cell_formula_units_Z   1
loop_
 _symmetry_equiv_pos_site_id
 _symmetry_equiv_pos_as_xyz
  1  'x, y, z'
loop_
 _atom_site_type_symbol
 _atom_site_label
 _atom_site_symmetry_multiplicity
 _atom_site_fract_x
 _atom_site_fract_y
 _atom_site_fract_z
 _atom_site_occupancy
 _atom_site_pbe_bader_charge
 _atom_site_pbe_bader_spin_density
 _atom_site_pbe_cm5_charge
 _atom_site_pbe_ddec_charge
 _atom_site_pbe_ddec_spin_density
 _atom_site_pbe_ddec_sum_bond_order
 _atom_site_pbe_magmom
Zn  Zn0  1  0.63618681  0.50849099  0.49851063  1  1.264519  0  0.667516  0.805769  0  2.448169  0
Zn  Zn1  1  0.35280832  0.50901552  0.50564979  1  1.28727  0  0.665807  0.811442  0  2.438245  0
H  H2  1  0.66435298  0.63058895  0.93036389  1  0.034159  0  0.095285  0.100957  0  0.980811  0
H  H3  1  0.28415181  0.51598437  0.06874227  1  0.013974  0  0.094901  0.093347  0  0.991997  0
H  H4  1  0.38143333  0.64852847  0.07824529  1  0.051893  0  0.098908  0.101711  0  0.981105  0
H  H5  1  0.40635640  0.66406892  0.93382055  1  0.019747  0  0.096063  0.096688  0  0.974902  0
H  H6  1  0.29336055  0.54011862  0.92388553  1  0.031533  0  0.095328  0.095939  0  0.97575  0
H  H7  1  0.56904293  0.30094670  0.92599795  1  0.08527  0  0.106799  0.122733  0  0.992509  0
H  H8  1  0.72632146  0.48981590  0.07758003  1  0.038612  0  0.097179  0.06511  0  0.975887  0
H  H9  1  0.73124673  0.48115182  0.93488692  1  0.047563  0  0.096419  0.10603  0  0.981515  0
H  H10  1  0.38876498  0.32649809  0.93014565  1  0.026456  0  0.101616  0.115418  0  0.969875  0
H  H11  1  0.28111925  0.89932231  0.55250628  1  0.10835  0  0.100956  0.106423  0  1.000529  0
H  H12  1  0.28646912  0.12465755  0.55422854  1  0.098861  0  0.099673  0.105689  0  1.007824  0
H  H13  1  0.75990156  0.11363182  0.38818350  1  0.013345  0  0.099504  0.074002  0  0.95278  0
H  H14  1  0.75957771  0.88898154  0.39035828  1  0.008735  0  0.090498  0.096478  0  1.003305  0
H  H15  1  0.82487655  0.88822266  0.49419109  1  0.022704  0  0.093276  0.107721  0  0.987756  0
H  H16  1  0.11901291  0.43690222  0.62294345  1  0.148879  0  0.138936  0.121981  0  0.961413  0
H  H17  1  0.85852037  0.43907306  0.61904071  1  0.159085  0  0.136217  0.122906  0  0.981505  0
H  H18  1  0.87323105  0.54378317  0.30351192  1  0.112911  0  0.113991  0.140467  0  0.964805  0
H  H19  1  0.87195202  0.69224330  0.34687962  1  0.109876  0  0.110995  0.129943  0  0.980285  0
H  H20  1  0.13609319  0.54219314  0.30831408  1  0.102535  0  0.112272  0.139005  0  0.972751  0
H  H21  1  0.13340484  0.69095233  0.35158127  1  0.088109  0  0.115011  0.13967  0  0.958882  0
H  H22  1  0.96828613  0.11780176  0.47996064  1  0.008785  0  0.08437  0.113821  0  1.005897  0
H  H23  1  0.84674224  0.23129400  0.51049863  1  0.012191  0  0.080292  0.113833  0  1.049296  0
H  H24  1  0.86196475  0.09501103  0.56905051  1  -8.8e-05  0  0.084638  0.113481  0  1.003139  0
H  H25  1  0.76216351  0.70744210  0.06583323  1  0.022819  0  0.090239  0.122959  0  0.992909  0
H  H26  1  0.58332042  0.73670395  0.05898246  1  0.006819  0  0.08664  0.115287  0  1.010808  0
H  H27  1  0.65390107  0.67730388  0.15281920  1  0.010355  0  0.088037  0.123356  0  1.012125  0
H  H28  1  0.37237988  0.18906897  0.05974703  1  0.047964  0  0.099282  0.143175  0  0.975848  0
H  H29  1  0.37202766  0.28042037  0.15115509  1  0.068281  0  0.10038  0.148764  0  1.003432  0
H  H30  1  0.27386992  0.32441314  0.06223550  1  0.077075  0  0.098221  0.140333  0  0.995582  0
C  C31  1  0.48678499  0.74350608  0.50467970  1  1.550071  0  0.214593  0.599382  0  4.177273  0
C  C32  1  0.49439052  0.50440895  0.33877371  1  1.718997  0  0.219528  0.667747  0  4.24681  0
C  C33  1  0.49216229  0.27412807  0.50520836  1  1.546375  0  0.215917  0.597924  0  4.172895  0
C  C34  1  0.50425535  0.50286319  0.66523759  1  1.711242  0  0.21845  0.6787  0  4.236553  0
C  C35  1  0.64134199  0.54469560  0.05239380  1  0.048733  0  -0.082699  0.034016  0  3.794311  0
C  C36  1  0.38029192  0.55908409  0.04870160  1  -0.001057  0  -0.152516  -0.179316  0  3.851816  0
C  C37  1  0.38936148  0.56979331  0.95335079  1  -0.021579  0  -0.154085  -0.191978  0  3.859547  0
C  C38  1  0.50902920  0.49666489  0.75496725  1  -0.006577  0  -0.062084  -0.215929  0  3.999388  0
C  C39  1  0.50435417  0.48544241  0.08373012  1  0.174629  0  0.010607  0.079819  0  3.819654  0
C  C40  1  0.64650578  0.53958855  0.95609340  1  -0.064715  0  -0.156403  -0.240385  0  3.827843  0
C  C41  1  0.50983349  0.49080538  0.92058955  1  0.198587  0  0.001037  0.190634  0  3.902903  0
C  C42  1  0.48871958  0.35970466  0.95210739  1  -0.006385  0  -0.152631  -0.274796  0  3.823815  0
C  C43  1  0.49222841  0.35278716  0.04771329  1  0.200166  0  0.085806  0.15686  0  3.634584  0
C  C44  1  0.51152643  0.49270000  0.83039562  1  -0.416574  0  -0.031778  -0.047836  0  4.03399  0
C  C45  1  0.49776358  0.48662579  0.17383951  1  -0.173044  0  -0.03211  -0.045944  0  4.074886  0
C  C46  1  0.49268972  0.49541423  0.24902110  1  -0.222013  0  -0.050368  -0.198221  0  3.965468  0
C  C47  1  0.60582501  0.94380454  0.48523024  1  -0.097041  0  -0.007887  0.057653  0  3.915857  0
C  C48  1  0.48941813  0.87826551  0.50792965  1  0.017442  0  -0.013972  -0.065338  0  3.977005  0
C  C49  1  0.37401901  0.94710423  0.53327715  1  -0.01354  0  -0.090141  -0.110952  0  4.002831  0
C  C50  1  0.37688303  0.07349874  0.53414304  1  -0.062234  0  -0.089659  -0.10636  0  3.997104  0
C  C51  1  0.49418718  0.13921503  0.50860735  1  -0.036716  0  -0.014748  -0.067715  0  3.970272  0
C  C52  1  0.60847255  0.07023908  0.48504069  1  0.021545  0  -0.003566  0.021916  0  3.848998  0
C  C53  1  0.75546746  0.07552807  0.45144098  1  0.056017  0  -0.07546  0.049653  0  3.835592  0
C  C54  1  0.75106315  0.93180918  0.45180315  1  0.022066  0  -0.155493  -0.243898  0  3.877096  0
C  C55  1  0.06943392  0.54813028  0.43912214  1  0.543435  0  0.149023  0.2034  0  3.856454  0
C  C56  1  0.06334679  0.46914110  0.56846896  1  0.412472  0  0.068905  0.048186  0  3.866425  0
C  C57  1  0.91984018  0.46995710  0.56634361  1  0.496374  0  0.066461  0.044029  0  3.870542  0
C  C58  1  0.92588131  0.54868685  0.43676403  1  0.61499  0  0.149201  0.199734  0  3.855754  0
C  C59  1  0.92041223  0.60236149  0.35031049  1  -0.099505  0  -0.137219  -0.226784  0  3.823077  0
C  C60  1  0.08420069  0.60163442  0.35315729  1  -0.012078  0  -0.137777  -0.231475  0  3.822795  0
C  C61  1  0.86475645  0.13334766  0.50588285  1  -0.001055  0  -0.245303  -0.385014  0  3.977904  0
C  C62  1  0.66037823  0.67379067  0.08472790  1  -0.02107  0  -0.243051  -0.390552  0  3.945098  0
C  C63  1  0.37039821  0.28247776  0.08316670  1  -0.107919  0  -0.239676  -0.444241  0  3.933019  0
N  N64  1  0.14142726  0.50882919  0.50382222  1  -1.223328  0  -0.287319  -0.179018  0  3.471431  0
N  N65  1  0.84787267  0.51020074  0.49924717  1  -1.195261  0  -0.286567  -0.18036  0  3.468725  0
N  N66  1  0.62501460  0.28356199  0.07651046  1  0.485802  0  0.052132  0.486207  0  4.106069  0
O  O67  1  0.60258874  0.68962096  0.51208761  1  -1.159235  0  -0.315929  -0.541315  0  2.319263  0
O  O68  1  0.37065209  0.69231923  0.49418355  1  -1.162315  0  -0.321477  -0.549905  0  2.310099  0
O  O69  1  0.61073905  0.52827318  0.37104278  1  -1.149154  0  -0.309193  -0.538437  0  2.265522  0
O  O70  1  0.38090437  0.48804999  0.37688411  1  -1.152121  0  -0.30897  -0.545739  0  2.263086  0
O  O71  1  0.60449264  0.32662295  0.48539763  1  -1.154445  0  -0.311426  -0.536474  0  2.321595  0
O  O72  1  0.37847558  0.32745064  0.52144038  1  -1.161989  0  -0.321294  -0.549428  0  2.330468  0
O  O73  1  0.61730107  0.48466707  0.62667133  1  -1.153494  0  -0.314128  -0.552425  0  2.269804  0
O  O74  1  0.38741427  0.52609654  0.63302281  1  -1.142726  0  -0.317331  -0.549141  0  2.246564  0
O  O75  1  0.72320360  0.27451082  0.02756574  1  -0.481284  0  -0.141363  -0.343283  0  1.933845  0
O  O76  1  0.62512898  0.24480427  0.14849487  1  -0.449075  0  -0.127283  -0.318035  0  1.919555  0
