# generated using pymatgen
data_Tb3H19C30O23
_symmetry_space_group_name_H-M   'P 1'
_cell_length_a   10.12058929
_cell_length_b   12.14633705
_cell_length_c   14.69878115
_cell_angle_alpha   69.17698082
_cell_angle_beta   84.77216158
_cell_angle_gamma   75.62157274
_symmetry_Int_Tables_number   1
_chemical_formula_structural   Tb3H19C30O23
_chemical_formula_sum   'Tb6 H38 C60 O46'
_cell_volume   1635.96306148
_cell_formula_units_Z   2
loop_
 _symmetry_equiv_pos_site_id
 _symmetry_equiv_pos_as_xyz
  1  'x, y, z'
loop_
 _atom_site_type_symbol
 _atom_site_label
 _atom_site_symmetry_multiplicity
 _atom_site_fract_x
 _atom_site_fract_y
 _atom_site_fract_z
 _atom_site_occupancy
 _atom_site_hle17_bader_spin_density
 _atom_site_hle17_ddec_charge
 _atom_site_hle17_ddec_spin_density
 _atom_site_hle17_ddec_sum_bond_order
 _atom_site_hle17_magmom
 _atom_site_hse06_10hf_bader_spin_density
 _atom_site_hse06_10hf_ddec_charge
 _atom_site_hse06_10hf_ddec_spin_density
 _atom_site_hse06_10hf_ddec_sum_bond_order
 _atom_site_hse06_10hf_magmom
 _atom_site_hse06_bader_spin_density
 _atom_site_hse06_ddec_charge
 _atom_site_hse06_ddec_spin_density
 _atom_site_hse06_ddec_sum_bond_order
 _atom_site_hse06_magmom
 _atom_site_pbe_bader_spin_density
 _atom_site_pbe_cm5_charge
 _atom_site_pbe_ddec_charge
 _atom_site_pbe_ddec_spin_density
 _atom_site_pbe_ddec_sum_bond_order
 _atom_site_pbe_magmom
Tb  Tb0  1  0.74806944  0.98518596  0.40132633  1  0  2.332179  0  1.624851  0  0  2.252294  0  1.96927  0  0  2.298812  0  1.924213  0  0  1.534684  2.218572  0  2.001049  0
Tb  Tb1  1  0.25192910  0.01481532  0.59867313  1  0  2.332164  0  1.624872  0  0  2.252279  0  1.969305  0  0  2.298793  0  1.924251  0  0  1.534665  2.218554  0  2.001087  0
Tb  Tb2  1  0.85981587  0.48005022  0.28332100  1  0  2.274186  0  1.698814  0  0  2.1266  0  2.173003  0  0  2.242032  0  2.00277  0  0  1.535524  2.088042  0  2.208021  0
Tb  Tb3  1  0.14018414  0.51994926  0.71668026  1  0  2.274202  0  1.698805  0  0  2.126635  0  2.172954  0  0  2.242048  0  2.00276  0  0  1.53552  2.088086  0  2.207968  0
Tb  Tb4  1  0.99419890  0.78841935  0.04848151  1  0  2.301785  0  1.655942  0  0  2.225049  0  1.997028  0  0  2.271915  0  1.952958  0  0  1.528051  2.119555  0  2.162185  0
Tb  Tb5  1  0.00580309  0.21158012  0.95151826  1  0  2.30177  0  1.655922  0  0  2.225034  0  1.997013  0  0  2.271901  0  1.952943  0  0  1.528041  2.119548  0  2.162166  0
H  H6  1  0.21848670  0.29992558  0.34872658  1  0  0.123324  0  0.955802  0  0  0.127302  0  1.024982  0  0  0.131776  0  1.021004  0  0  0.114585  0.123999  0  1.028033  0
H  H7  1  0.78151256  0.70007298  0.65127500  1  0  0.123339  0  0.955748  0  0  0.127309  0  1.024939  0  0  0.131783  0  1.020963  0  0  0.11458  0.124005  0  1.02799  0
H  H8  1  0.38508039  0.54783145  0.10616559  1  0  0.107715  0  0.930182  0  0  0.118418  0  0.988087  0  0  0.122066  0  0.984634  0  0  0.113346  0.115644  0  0.990814  0
H  H9  1  0.61491618  0.45216983  0.89383604  1  0  0.107686  0  0.930218  0  0  0.118413  0  0.988094  0  0  0.122061  0  0.98464  0  0  0.113334  0.115639  0  0.990822  0
H  H10  1  0.59449599  0.39074856  0.11526116  1  0  0.120612  0  0.949573  0  0  0.13379  0  1.003384  0  0  0.137299  0  1.001738  0  0  0.1153  0.131318  0  1.004656  0
H  H11  1  0.40550256  0.60925272  0.88473898  1  0  0.120588  0  0.94965  0  0  0.133798  0  1.003412  0  0  0.137309  0  1.001765  0  0  0.115302  0.131325  0  1.004684  0
H  H12  1  0.78182581  0.27154635  0.17832599  1  0  0.11842  0  0.940076  0  0  0.125783  0  1.006535  0  0  0.128424  0  1.004386  0  0  0.126931  0.123483  0  1.008939  0
H  H13  1  0.21817272  0.72845492  0.82167211  1  0  0.118422  0  0.940091  0  0  0.125792  0  1.006553  0  0  0.128433  0  1.00441  0  0  0.12691  0.123475  0  1.00897  0
H  H14  1  0.70288718  0.23186830  0.09384999  1  0  0.09744  0  0.939769  0  0  0.105544  0  1.007741  0  0  0.106911  0  1.00684  0  0  0.120864  0.104898  0  1.007488  0
H  H15  1  0.29711235  0.76813298  0.90614872  1  0  0.09745  0  0.939787  0  0  0.105582  0  1.007734  0  0  0.10695  0  1.006835  0  0  0.120878  0.104935  0  1.007477  0
H  H16  1  0.50979746  0.80206188  0.45514497  1  0  0.124603  0  0.950491  0  0  0.129148  0  1.017368  0  0  0.134058  0  1.012564  0  0  0.118163  0.12559  0  1.020836  0
H  H17  1  0.49020358  0.19794121  0.54485515  1  0  0.124548  0  0.950536  0  0  0.129123  0  1.0174  0  0  0.134058  0  1.012565  0  0  0.118137  0.125566  0  1.02087  0
H  H18  1  0.46158914  0.48005919  0.68968092  1  0  0.107113  0  0.988776  0  0  0.113617  0  1.057339  0  0  0.116748  0  1.055523  0  0  0.112466  0.110732  0  1.060204  0
H  H19  1  0.53841039  0.51994209  0.31031643  1  0  0.107118  0  0.988718  0  0  0.113597  0  1.057306  0  0  0.116728  0  1.055492  0  0  0.112472  0.110712  0  1.060169  0
H  H20  1  0.66806188  0.36347278  0.63915945  1  0  0.113952  0  0.945775  0  0  0.128588  0  0.99493  0  0  0.131977  0  0.993609  0  0  0.112866  0.12621  0  0.995877  0
H  H21  1  0.33193940  0.63652940  0.36083889  1  0  0.113953  0  0.945741  0  0  0.128605  0  0.994893  0  0  0.131995  0  0.993572  0  0  0.112892  0.126225  0  0.995839  0
H  H22  1  0.80702963  0.27666880  0.57751313  1  0  0.103604  0  0.909461  0  0  0.118025  0  0.961756  0  0  0.11978  0  0.959804  0  0  0.124342  0.116968  0  0.963058  0
H  H23  1  0.19296867  0.72333339  0.42248608  1  0  0.103649  0  0.909433  0  0  0.118045  0  0.961759  0  0  0.119799  0  0.959809  0  0  0.124345  0.11699  0  0.963061  0
H  H24  1  0.92998716  0.34476963  0.60276626  1  0  0.131036  0  0.902095  0  0  0.140939  0  0.959515  0  0  0.143729  0  0.957032  0  0  0.129051  0.139045  0  0.961321  0
H  H25  1  0.07001285  0.65522984  0.39723364  1  0  0.13104  0  0.902081  0  0  0.140945  0  0.9595  0  0  0.143733  0  0.957019  0  0  0.129052  0.139053  0  0.961308  0
H  H26  1  0.43483866  0.75189559  0.12539252  1  0  0.120257  0  0.922143  0  0  0.131705  0  0.977278  0  0  0.135446  0  0.974439  0  0  0.116037  0.128836  0  0.979666  0
H  H27  1  0.56516158  0.24810297  0.87460695  1  0  0.12025  0  0.922159  0  0  0.131666  0  0.977335  0  0  0.135399  0  0.974497  0  0  0.116032  0.128799  0  0.979723  0
H  H28  1  0.38795581  0.03414507  0.84419212  1  0  0.116823  0  0.91906  0  0  0.126851  0  0.976357  0  0  0.130764  0  0.97334  0  0  0.118104  0.123936  0  0.97897  0
H  H29  1  0.61204543  0.96585350  0.15580797  1  0  0.116837  0  0.919025  0  0  0.126861  0  0.976319  0  0  0.130764  0  0.973311  0  0  0.118081  0.123943  0  0.978932  0
H  H30  1  0.63549773  0.96573220  0.80997812  1  0  0.124701  0  0.912035  0  0  0.140878  0  0.95821  0  0  0.144245  0  0.957363  0  0  0.117123  0.138461  0  0.959238  0
H  H31  1  0.36450475  0.03426546  0.19002283  1  0  0.124676  0  0.911982  0  0  0.140849  0  0.958174  0  0  0.144216  0  0.957328  0  0  0.117094  0.13843  0  0.9592  0
H  H32  1  0.84589204  0.79328469  0.79128391  1  0  0.103285  0  0.901597  0  0  0.116103  0  0.957633  0  0  0.11842  0  0.955357  0  0  0.117623  0.114335  0  0.959611  0
H  H33  1  0.15410770  0.20671206  0.20871749  1  0  0.10332  0  0.901542  0  0  0.116096  0  0.957647  0  0  0.118417  0  0.955377  0  0  0.117647  0.114329  0  0.959621  0
H  H34  1  0.78360885  0.66969228  0.87545471  1  0  0.101635  0  0.940559  0  0  0.113734  0  1.000323  0  0  0.114261  0  1.001485  0  0  0.11812  0.113302  0  0.999741  0
H  H35  1  0.21639164  0.33030538  0.12454705  1  0  0.101655  0  0.940537  0  0  0.113767  0  1.000283  0  0  0.114297  0  1.001448  0  0  0.118133  0.113333  0  0.999704  0
H  H36  1  0.03673973  0.02650862  0.39559970  1  0  0.445534  0  0.802783  0  0  0.428408  0  0.856421  0  0  0.436883  0  0.843915  0  0  0.336504  0.422348  0  0.864353  0
H  H37  1  0.96325929  0.97349086  0.60440162  1  0  0.445529  0  0.802808  0  0  0.428412  0  0.856415  0  0  0.436888  0  0.84391  0  0  0.336503  0.422354  0  0.86436  0
H  H38  1  0.95422414  0.15956522  0.38288010  1  0  0.45224  0  0.8342  0  0  0.422084  0  0.896059  0  0  0.432219  0  0.880981  0  0  0.313625  0.414892  0  0.906804  0
H  H39  1  0.04577488  0.84043425  0.61712055  1  0  0.452238  0  0.834194  0  0  0.422083  0  0.896051  0  0  0.432219  0  0.880973  0  0  0.313622  0.414892  0  0.906794  0
H  H40  1  0.90915560  0.74462549  0.24945951  1  0  0.427344  0  0.880198  0  0  0.394869  0  0.947867  0  0  0.406098  0  0.931365  0  0  0.298737  0.386782  0  0.959565  0
H  H41  1  0.09084615  0.25537489  0.75053933  1  0  0.427319  0  0.880224  0  0  0.394842  0  0.947901  0  0  0.40607  0  0.931399  0  0  0.298734  0.386755  0  0.959598  0
H  H42  1  0.94204591  0.87241421  0.22182994  1  0  0.44477  0  0.851464  0  0  0.416285  0  0.910339  0  0  0.427578  0  0.893697  0  0  0.301723  0.407982  0  0.922377  0
H  H43  1  0.05795486  0.12758617  0.77816964  1  0  0.444778  0  0.851456  0  0  0.416289  0  0.910338  0  0  0.427581  0  0.893697  0  0  0.301714  0.407986  0  0.922375  0
C  C44  1  0.52381685  0.25149945  0.23474405  1  0  0.293012  0  3.711167  0  0  0.278095  0  3.969072  0  0  0.292581  0  3.984446  0  0  0.103202  0.268534  0  3.958408  0
C  C45  1  0.47618293  0.74850093  0.76525560  1  0  0.293037  0  3.71121  0  0  0.278097  0  3.969122  0  0  0.292582  0  3.984495  0  0  0.103195  0.268536  0  3.958457  0
C  C46  1  0.41602204  0.22524444  0.30224112  1  0  -0.206715  0  3.70812  0  0  -0.18955  0  3.950212  0  0  -0.203637  0  3.973012  0  0  -0.025487  -0.180408  0  3.934968  0
C  C47  1  0.58397698  0.77475503  0.69775885  1  0  -0.206686  0  3.708097  0  0  -0.189494  0  3.950171  0  0  -0.20358  0  3.97297  0  0  -0.025464  -0.180353  0  3.934925  0
C  C48  1  0.30117829  0.31943893  0.29724672  1  0  -0.036462  0  3.707519  0  0  -0.074146  0  3.960911  0  0  -0.069144  0  3.979071  0  0  -0.069112  -0.077009  0  3.948367  0
C  C49  1  0.69882196  0.68055964  0.70275479  1  0  -0.036478  0  3.707589  0  0  -0.074173  0  3.960974  0  0  -0.069173  0  3.979132  0  0  -0.069119  -0.07703  0  3.948424  0
C  C50  1  0.28829752  0.43445126  0.22723939  1  0  -0.109228  0  3.788642  0  0  -0.086608  0  4.024703  0  0  -0.097908  0  4.046757  0  0  -0.02603  -0.079592  0  4.010414  0
C  C51  1  0.71169805  0.56555002  0.77276163  1  0  -0.109302  0  3.788843  0  0  -0.086665  0  4.024874  0  0  -0.097968  0  4.046923  0  0  -0.026064  -0.07965  0  4.010586  0
C  C52  1  0.39461498  0.45781218  0.16065628  1  0  0.000217  0  3.711473  0  0  -0.02764  0  3.963647  0  0  -0.021411  0  3.978213  0  0  -0.066155  -0.03144  0  3.953782  0
C  C53  1  0.60538282  0.54218820  0.83934553  1  0  0.000296  0  3.711425  0  0  -0.027592  0  3.963609  0  0  -0.021366  0  3.978177  0  0  -0.066134  -0.031392  0  3.953745  0
C  C54  1  0.51133580  0.36795672  0.16492959  1  0  -0.191038  0  3.729564  0  0  -0.213705  0  3.989634  0  0  -0.222038  0  4.009067  0  0  -0.101168  -0.208428  0  3.976425  0
C  C55  1  0.48866053  0.63204546  0.83507110  1  0  -0.190996  0  3.729527  0  0  -0.213681  0  3.989604  0  0  -0.222016  0  4.009038  0  0  -0.101141  -0.208407  0  3.976399  0
C  C56  1  0.74521694  0.19918534  0.16744955  1  0  -0.099503  0  3.608116  0  0  -0.158819  0  3.872907  0  0  -0.155379  0  3.871819  0  0  -0.061218  -0.160929  0  3.873368  0
C  C57  1  0.25478259  0.80081594  0.83254848  1  0  -0.099535  0  3.608236  0  0  -0.158959  0  3.87309  0  0  -0.155527  0  3.872012  0  0  -0.061242  -0.161044  0  3.873544  0
C  C58  1  0.86312263  0.09055691  0.17775832  1  0  0.737529  0  3.830371  0  0  0.691322  0  4.12963  0  0  0.725177  0  4.118712  0  0  0.233718  0.667529  0  4.135722  0
C  C59  1  0.13687788  0.90944437  0.82223829  1  0  0.7375  0  3.830519  0  0  0.691403  0  4.1296  0  0  0.725261  0  4.118678  0  0  0.233739  0.667608  0  4.13569  0
C  C60  1  0.41560570  0.10476002  0.38007294  1  0  0.75156  0  3.828449  0  0  0.702525  0  4.130076  0  0  0.739284  0  4.116302  0  0  0.235337  0.677568  0  4.139001  0
C  C61  1  0.58439530  0.89523945  0.61992690  1  0  0.751545  0  3.828475  0  0  0.702488  0  4.130133  0  0  0.739249  0  4.116355  0  0  0.235316  0.677532  0  4.139058  0
C  C62  1  0.15994164  0.52956079  0.21685249  1  0  0.723514  0  3.872882  0  0  0.676232  0  4.166133  0  0  0.711632  0  4.158709  0  0  0.234708  0.651308  0  4.171242  0
C  C63  1  0.84005762  0.47043778  0.78314908  1  0  0.723538  0  3.872874  0  0  0.676292  0  4.166063  0  0  0.71171  0  4.158607  0  0  0.23474  0.65137  0  4.171174  0
C  C64  1  0.70260268  0.51338705  0.51167362  1  0  0.288925  0  3.728412  0  0  0.273188  0  3.991404  0  0  0.287531  0  4.007921  0  0  0.103927  0.263324  0  3.981646  0
C  C65  1  0.29739836  0.48661605  0.48832582  1  0  0.289023  0  3.728277  0  0  0.273236  0  3.991331  0  0  0.28758  0  4.007848  0  0  0.103933  0.263375  0  3.981569  0
C  C66  1  0.65875710  0.63927588  0.46131076  1  0  -0.193448  0  3.740792  0  0  -0.177237  0  3.982863  0  0  -0.190208  0  4.003372  0  0  -0.022987  -0.168905  0  3.969302  0
C  C67  1  0.34124470  0.36072813  0.53868905  1  0  -0.193699  0  3.740918  0  0  -0.177456  0  3.983006  0  0  -0.190432  0  4.003523  0  0  -0.023101  -0.169127  0  3.969448  0
C  C68  1  0.54150391  0.70457542  0.49292089  1  0  -0.030706  0  3.697705  0  0  -0.067305  0  3.948768  0  0  -0.061701  0  3.964912  0  0  -0.065697  -0.070583  0  3.937476  0
C  C69  1  0.45849516  0.29542768  0.50708072  1  0  -0.030492  0  3.697504  0  0  -0.067115  0  3.948549  0  0  -0.061531  0  3.964685  0  0  -0.065596  -0.070394  0  3.937263  0
C  C70  1  0.46622773  0.64780885  0.57206342  1  0  -0.115352  0  3.802512  0  0  -0.095601  0  4.043974  0  0  -0.107757  0  4.068547  0  0  -0.028746  -0.087784  0  4.027392  0
C  C71  1  0.53377430  0.35219424  0.42793595  1  0  -0.115342  0  3.802286  0  0  -0.095613  0  4.043791  0  0  -0.107764  0  4.068363  0  0  -0.028736  -0.087795  0  4.027211  0
C  C72  1  0.51419105  0.52436338  0.62398628  1  0  -0.02832  0  3.736762  0  0  -0.0579  0  3.994284  0  0  -0.053449  0  4.013768  0  0  -0.06989  -0.060482  0  3.981472  0
C  C73  1  0.48580848  0.47563791  0.37601380  1  0  -0.028421  0  3.736761  0  0  -0.057965  0  3.994295  0  0  -0.053518  0  4.013784  0  0  -0.06996  -0.060548  0  3.981483  0
C  C74  1  0.63224632  0.45818945  0.59524091  1  0  -0.183902  0  3.739933  0  0  -0.204578  0  3.999976  0  0  -0.213623  0  4.020707  0  0  -0.09881  -0.198548  0  3.985377  0
C  C75  1  0.36775496  0.54181274  0.40475742  1  0  -0.1838  0  3.73974  0  0  -0.204471  0  3.999777  0  0  -0.213517  0  4.020509  0  0  -0.098769  -0.198439  0  3.985167  0
C  C76  1  0.88127276  0.33231948  0.54433645  1  0  -0.072519  0  3.57035  0  0  -0.124685  0  3.826722  0  0  -0.121168  0  3.826621  0  0  -0.053322  -0.127583  0  3.828235  0
C  C77  1  0.11872677  0.66768180  0.45566227  1  0  -0.07252  0  3.570355  0  0  -0.124675  0  3.826721  0  0  -0.121157  0  3.82662  0  0  -0.05331  -0.127588  0  3.828256  0
C  C78  1  0.98268632  0.26086430  0.49157444  1  0  0.743146  0  3.830243  0  0  0.694598  0  4.130707  0  0  0.728911  0  4.121502  0  0  0.239876  0.671189  0  4.138006  0
C  C79  1  0.01731048  0.73913607  0.50842540  1  0  0.74311  0  3.8303  0  0  0.694555  0  4.130778  0  0  0.728868  0  4.121576  0  0  0.239799  0.67115  0  4.138076  0
C  C80  1  0.73258500  0.70937206  0.37725898  1  0  0.75196  0  3.83163  0  0  0.704576  0  4.118327  0  0  0.741212  0  4.107352  0  0  0.243159  0.679786  0  4.126305  0
C  C81  1  0.26741552  0.29062922  0.62273967  1  0  0.751984  0  3.831722  0  0  0.70458  0  4.118434  0  0  0.741216  0  4.107459  0  0  0.243183  0.679792  0  4.126411  0
C  C82  1  0.34267910  0.71982621  0.60490388  1  0  0.72245  0  3.868438  0  0  0.676538  0  4.159973  0  0  0.712169  0  4.150948  0  0  0.228561  0.65208  0  4.167142  0
C  C83  1  0.65732091  0.28017326  0.39509670  1  0  0.722408  0  3.868471  0  0  0.676481  0  4.160039  0  0  0.71211  0  4.151015  0  0  0.228528  0.652023  0  4.16721  0
C  C84  1  0.67395192  0.82710981  0.95100730  1  0  0.279801  0  3.751142  0  0  0.262659  0  4.018105  0  0  0.274654  0  4.033308  0  0  0.096687  0.254626  0  4.005465  0
C  C85  1  0.32604881  0.17288694  0.04899335  1  0  0.279799  0  3.751203  0  0  0.262669  0  4.018136  0  0  0.274663  0  4.033339  0  0  0.096693  0.254636  0  4.005495  0
C  C86  1  0.61997053  0.76595993  0.04141339  1  0  -0.15903  0  3.705978  0  0  -0.143385  0  3.946843  0  0  -0.154276  0  3.96674  0  0  -0.015372  -0.135679  0  3.932541  0
C  C87  1  0.38002798  0.23403773  0.95858782  1  0  -0.158994  0  3.705991  0  0  -0.143343  0  3.946847  0  0  -0.154237  0  3.966746  0  0  -0.015371  -0.13564  0  3.932548  0
C  C88  1  0.47909058  0.80041486  0.05694296  1  0  -0.044248  0  3.672007  0  0  -0.078772  0  3.919221  0  0  -0.074913  0  3.937214  0  0  -0.067142  -0.080845  0  3.907122  0
C  C89  1  0.52091014  0.19958189  0.94305702  1  0  -0.044193  0  3.67199  0  0  -0.078703  0  3.919205  0  0  -0.074826  0  3.937195  0  0  -0.067074  -0.08078  0  3.907113  0
C  C90  1  0.39574060  0.89816574  0.98738156  1  0  -0.089977  0  3.735221  0  0  -0.066669  0  3.971261  0  0  -0.077171  0  3.995545  0  0  -0.017325  -0.060755  0  3.957111  0
C  C91  1  0.60426111  0.10183101  0.01261699  1  0  -0.089987  0  3.735265  0  0  -0.066657  0  3.971257  0  0  -0.077178  0  3.995561  0  0  -0.017353  -0.060742  0  3.957108  0
C  C92  1  0.45285154  0.95846758  0.89855153  1  0  -0.012511  0  3.684862  0  0  -0.043291  0  3.946201  0  0  -0.038863  0  3.96321  0  0  -0.066797  -0.046371  0  3.935879  0
C  C93  1  0.54715117  0.04152918  0.10144764  1  0  -0.012529  0  3.684769  0  0  -0.043285  0  3.946056  0  0  -0.038844  0  3.963072  0  0  -0.066729  -0.046356  0  3.935711  0
C  C94  1  0.59079032  0.92067853  0.87944223  1  0  -0.163521  0  3.704207  0  0  -0.188943  0  3.971043  0  0  -0.195894  0  3.989937  0  0  -0.090296  -0.184854  0  3.959165  0
C  C95  1  0.40921016  0.07931912  0.12055682  1  0  -0.163532  0  3.704179  0  0  -0.188966  0  3.971018  0  0  -0.195917  0  3.98991  0  0  -0.090326  -0.184874  0  3.959133  0
C  C96  1  0.85192500  0.73031140  0.86695650  1  0  -0.063611  0  3.585896  0  0  -0.120601  0  3.844751  0  0  -0.117533  0  3.843373  0  0  -0.056212  -0.122903  0  3.843453  0
C  C97  1  0.14807549  0.26968626  0.13304459  1  0  -0.063637  0  3.585891  0  0  -0.120647  0  3.844778  0  0  -0.117604  0  3.843428  0  0  -0.056241  -0.122949  0  3.843479  0
C  C98  1  0.99707373  0.65451181  0.88898587  1  0  0.753958  0  3.816401  0  0  0.711017  0  4.110981  0  0  0.745765  0  4.100239  0  0  0.239754  0.68734  0  4.11615  0
C  C99  1  0.00292775  0.34548585  0.11101447  1  0  0.753865  0  3.816525  0  0  0.710976  0  4.11102  0  0  0.745736  0  4.100272  0  0  0.239725  0.687298  0  4.116191  0
C  C100  1  0.70799798  0.66848873  0.12066110  1  0  0.707781  0  3.849319  0  0  0.662266  0  4.138326  0  0  0.697912  0  4.131901  0  0  0.21864  0.63704  0  4.144717  0
C  C101  1  0.29200101  0.33150711  0.87934130  1  0  0.707806  0  3.849227  0  0  0.662273  0  4.13826  0  0  0.697919  0  4.131834  0  0  0.218659  0.637048  0  4.144651  0
C  C102  1  0.24538243  0.93809597  0.00541415  1  0  0.720452  0  3.870781  0  0  0.673517  0  4.168937  0  0  0.709024  0  4.157265  0  0  0.234286  0.649106  0  4.171308  0
C  C103  1  0.75462004  0.06190169  0.99458544  1  0  0.72039  0  3.870762  0  0  0.67345  0  4.168911  0  0  0.70896  0  4.157247  0  0  0.234224  0.64904  0  4.171281  0
O  O104  1  0.64205219  0.16395902  0.23950439  1  0  -0.340486  0  2.456887  0  0  -0.273053  0  2.699657  0  0  -0.292158  0  2.703737  0  0  -0.191418  -0.25953  0  2.696445  0
O  O105  1  0.35794635  0.83604225  0.76049371  1  0  -0.340546  0  2.456873  0  0  -0.27308  0  2.699702  0  0  -0.292183  0  2.703784  0  0  -0.191431  -0.259559  0  2.696481  0
O  O106  1  0.95425194  0.10028695  0.11300965  1  0  -0.710901  0  2.041716  0  0  -0.677733  0  2.295504  0  0  -0.702108  0  2.283931  0  0  -0.379288  -0.649929  0  2.304281  0
O  O107  1  0.04574736  0.89971523  0.88698950  1  0  -0.710925  0  2.041658  0  0  -0.677789  0  2.295388  0  0  -0.702165  0  2.283813  0  0  -0.379296  -0.649983  0  2.304166  0
O  O108  1  0.86291433  0.99548674  0.25127798  1  0  -0.712953  0  2.096204  0  0  -0.665271  0  2.338845  0  0  -0.690077  0  2.32554  0  0  -0.374973  -0.648659  0  2.349229  0
O  O109  1  0.13708544  0.00451363  0.74872099  1  0  -0.712915  0  2.096385  0  0  -0.665269  0  2.33898  0  0  -0.690075  0  2.325674  0  0  -0.374973  -0.648659  0  2.349367  0
O  O110  1  0.51755272  0.01617579  0.38738739  1  0  -0.740277  0  2.058444  0  0  -0.703497  0  2.318846  0  0  -0.727364  0  2.304468  0  0  -0.410635  -0.686938  0  2.32837  0
O  O111  1  0.48244706  0.98382458  0.61261294  1  0  -0.740313  0  2.058461  0  0  -0.70353  0  2.318895  0  0  -0.7274  0  2.30452  0  0  -0.41065  -0.686968  0  2.328416  0
O  O112  1  0.31042379  0.09679627  0.43489217  1  0  -0.751999  0  1.985518  0  0  -0.716007  0  2.242498  0  0  -0.739251  0  2.22665  0  0  -0.40577  -0.699651  0  2.2529  0
O  O113  1  0.68957523  0.90320319  0.56510847  1  0  -0.751988  0  1.985537  0  0  -0.71599  0  2.242507  0  0  -0.73923  0  2.226648  0  0  -0.405761  -0.699634  0  2.252908  0
O  O114  1  0.06950511  0.51342177  0.28429134  1  0  -0.761352  0  2.036883  0  0  -0.716331  0  2.302408  0  0  -0.750877  0  2.287431  0  0  -0.436327  -0.698162  0  2.310613  0
O  O115  1  0.93049440  0.48657590  0.71571185  1  0  -0.761296  0  2.036845  0  0  -0.716302  0  2.30236  0  0  -0.750853  0  2.287373  0  0  -0.4363  -0.698135  0  2.310566  0
O  O116  1  0.14636072  0.61987105  0.13905635  1  0  -0.703015  0  2.083247  0  0  -0.663819  0  2.341882  0  0  -0.688301  0  2.329439  0  0  -0.397949  -0.636672  0  2.352763  0
O  O117  1  0.85363855  0.38012752  0.86094590  1  0  -0.703047  0  2.083274  0  0  -0.663878  0  2.341927  0  0  -0.688367  0  2.329474  0  0  -0.397963  -0.636729  0  2.352804  0
O  O118  1  0.81503199  0.44857285  0.47673505  1  0  -0.336752  0  2.399148  0  0  -0.269443  0  2.643549  0  0  -0.293389  0  2.647012  0  0  -0.188157  -0.256419  0  2.642172  0
O  O119  1  0.18496905  0.55143025  0.52326439  1  0  -0.336782  0  2.399188  0  0  -0.269455  0  2.643602  0  0  -0.293401  0  2.647063  0  0  -0.188118  -0.256429  0  2.64223  0
O  O120  1  0.05317490  0.16165887  0.54586820  1  0  -0.731463  0  2.054714  0  0  -0.692986  0  2.316044  0  0  -0.718315  0  2.302819  0  0  -0.404705  -0.675019  0  2.324523  0
O  O121  1  0.94682313  0.83834060  0.45413319  1  0  -0.731418  0  2.054776  0  0  -0.692937  0  2.31611  0  0  -0.718267  0  2.302886  0  0  -0.404656  -0.67497  0  2.324586  0
O  O122  1  0.98486174  0.29850562  0.39930067  1  0  -0.715247  0  2.080658  0  0  -0.660248  0  2.328582  0  0  -0.693114  0  2.314365  0  0  -0.367757  -0.642907  0  2.33713  0
O  O123  1  0.01513803  0.70149476  0.60069897  1  0  -0.715313  0  2.080652  0  0  -0.660311  0  2.328576  0  0  -0.693166  0  2.31434  0  0  -0.367767  -0.642972  0  2.337124  0
O  O124  1  0.80330117  0.65564637  0.32166541  1  0  -0.754678  0  2.111078  0  0  -0.69447  0  2.35883  0  0  -0.730254  0  2.344246  0  0  -0.397501  -0.676081  0  2.367354  0
O  O125  1  0.19669937  0.34435492  0.67833596  1  0  -0.754704  0  2.111019  0  0  -0.69449  0  2.358771  0  0  -0.730274  0  2.344189  0  0  -0.397524  -0.676101  0  2.367295  0
O  O126  1  0.72183370  0.81994265  0.36318235  1  0  -0.712339  0  2.031827  0  0  -0.67106  0  2.282778  0  0  -0.695286  0  2.269623  0  0  -0.385847  -0.653997  0  2.291181  0
O  O127  1  0.27816685  0.18006225  0.63681387  1  0  -0.712314  0  2.031974  0  0  -0.671013  0  2.2829  0  0  -0.695238  0  2.269751  0  0  -0.385835  -0.653947  0  2.291301  0
O  O128  1  0.31929575  0.83471178  0.56764439  1  0  -0.745354  0  2.048777  0  0  -0.705069  0  2.302018  0  0  -0.729355  0  2.289248  0  0  -0.408393  -0.688053  0  2.31029  0
O  O129  1  0.68070256  0.16529041  0.43235550  1  0  -0.745338  0  2.048852  0  0  -0.705036  0  2.302076  0  0  -0.729329  0  2.289318  0  0  -0.408343  -0.688021  0  2.31035  0
O  O130  1  0.26767460  0.66292901  0.67010021  1  0  -0.761763  0  2.083012  0  0  -0.712123  0  2.352796  0  0  -0.747492  0  2.339445  0  0  -0.417337  -0.693948  0  2.360281  0
O  O131  1  0.73232640  0.33707047  0.32990031  1  0  -0.761754  0  2.083019  0  0  -0.712098  0  2.352801  0  0  -0.747469  0  2.339449  0  0  -0.417336  -0.693919  0  2.360286  0
O  O132  1  0.81295025  0.79520254  0.93390436  1  0  -0.367688  0  2.470053  0  0  -0.302368  0  2.715908  0  0  -0.317336  0  2.716063  0  0  -0.225931  -0.284553  0  2.713384  0
O  O133  1  0.18704976  0.20479693  0.06609622  1  0  -0.36771  0  2.470024  0  0  -0.302385  0  2.715883  0  0  -0.317338  0  2.716027  0  0  -0.225948  -0.28457  0  2.713358  0
O  O134  1  0.05035326  0.60450882  0.82733942  1  0  -0.754807  0  2.030897  0  0  -0.705522  0  2.299843  0  0  -0.743135  0  2.281328  0  0  -0.432878  -0.686818  0  2.309061  0
O  O135  1  0.94964822  0.39548884  0.17266227  1  0  -0.754739  0  2.030834  0  0  -0.705467  0  2.299764  0  0  -0.743087  0  2.281241  0  0  -0.432832  -0.686763  0  2.308983  0
O  O136  1  0.05584315  0.64682757  0.96340858  1  0  -0.679107  0  1.999103  0  0  -0.64176  0  2.23719  0  0  -0.665148  0  2.225319  0  0  -0.364148  -0.616369  0  2.246294  0
O  O137  1  0.94415710  0.35317099  0.03659294  1  0  -0.679077  0  1.999216  0  0  -0.64174  0  2.237276  0  0  -0.665134  0  2.225404  0  0  -0.364158  -0.616354  0  2.246384  0
O  O138  1  0.83573267  0.66434232  0.12570668  1  0  -0.805745  0  2.123693  0  0  -0.760521  0  2.380407  0  0  -0.791794  0  2.368768  0  0  -0.413225  -0.733258  0  2.390195  0
O  O139  1  0.16426858  0.33565625  0.87429477  1  0  -0.805746  0  2.123728  0  0  -0.760509  0  2.380433  0  0  -0.79178  0  2.368796  0  0  -0.41322  -0.733248  0  2.390223  0
O  O140  1  0.65560794  0.58950326  0.18519268  1  0  -0.686852  0  1.978281  0  0  -0.639792  0  2.216626  0  0  -0.672269  0  2.206667  0  0  -0.366754  -0.622552  0  2.223344  0
O  O141  1  0.34439406  0.41049621  0.81480709  1  0  -0.686881  0  1.97817  0  0  -0.639828  0  2.216533  0  0  -0.672303  0  2.206573  0  0  -0.366769  -0.622586  0  2.22325  0
O  O142  1  0.18438341  0.85805608  0.05908965  1  0  -0.733401  0  2.023417  0  0  -0.6942  0  2.27569  0  0  -0.718185  0  2.261538  0  0  -0.39817  -0.666307  0  2.286438  0
O  O143  1  0.81561711  0.14194520  0.94090900  1  0  -0.733382  0  2.023417  0  0  -0.694181  0  2.27569  0  0  -0.718164  0  2.261536  0  0  -0.398135  -0.666291  0  2.28644  0
O  O144  1  0.18818640  0.04880549  0.96308645  1  0  -0.745473  0  2.075809  0  0  -0.712609  0  2.346181  0  0  -0.736887  0  2.332756  0  0  -0.3995  -0.683991  0  2.355626  0
O  O145  1  0.81181857  0.95119399  0.03691176  1  0  -0.745436  0  2.075778  0  0  -0.712576  0  2.346152  0  0  -0.736851  0  2.332725  0  0  -0.399477  -0.683956  0  2.355596  0
O  O146  1  0.94570707  0.07909108  0.38612073  1  0  -0.900859  0  1.871311  0  0  -0.866661  0  2.062109  0  0  -0.882376  0  2.030047  0  0  -0.613399  -0.855604  0  2.083347  0
O  O147  1  0.05429195  0.92090839  0.61387923  1  0  -0.900838  0  1.871324  0  0  -0.866648  0  2.062094  0  0  -0.882366  0  2.030031  0  0  -0.61339  -0.855592  0  2.083345  0
O  O148  1  0.97141315  0.79484169  0.20887374  1  0  -0.914243  0  1.855482  0  0  -0.87856  0  2.04615  0  0  -0.896727  0  2.011632  0  0  -0.653807  -0.85585  0  2.074639  0
O  O149  1  0.02858861  0.20515869  0.79112577  1  0  -0.914242  0  1.855483  0  0  -0.878554  0  2.046159  0  0  -0.89672  0  2.011642  0  0  -0.6538  -0.855841  0  2.074646  0
