# generated using pymatgen
data_Cd3H54C52(N5O6)2
_symmetry_space_group_name_H-M   'P 1'
_cell_length_a   10.88706515
_cell_length_b   14.28262802
_cell_length_c   28.89493054
_cell_angle_alpha   87.91755465
_cell_angle_beta   89.98376113
_cell_angle_gamma   112.39107777
_symmetry_Int_Tables_number   1
_chemical_formula_structural   Cd3H54C52(N5O6)2
_chemical_formula_sum   'Cd6 H108 C104 N20 O24'
_cell_volume   4151.06317610
_cell_formula_units_Z   2
loop_
 _symmetry_equiv_pos_site_id
 _symmetry_equiv_pos_as_xyz
  1  'x, y, z'
loop_
 _atom_site_type_symbol
 _atom_site_label
 _atom_site_symmetry_multiplicity
 _atom_site_fract_x
 _atom_site_fract_y
 _atom_site_fract_z
 _atom_site_occupancy
 _atom_site_pbe_bader_charge
 _atom_site_pbe_bader_spin_density
 _atom_site_pbe_cm5_charge
 _atom_site_pbe_ddec_charge
 _atom_site_pbe_ddec_spin_density
 _atom_site_pbe_ddec_sum_bond_order
 _atom_site_pbe_magmom
Cd  Cd0  1  0.42490413  0.36213638  0.54364290  1  1.185995  0  0.755995  0.831586  0  2.157841  0
Cd  Cd1  1  0.06302131  0.63810875  0.95639871  1  1.186197  0  0.755698  0.83139  0  2.157887  0
Cd  Cd2  1  0.57509684  0.63786305  0.45635404  1  1.185922  0  0.756017  0.831625  0  2.157813  0
Cd  Cd3  1  0.93697190  0.36188985  0.04359927  1  1.186258  0  0.755708  0.831429  0  2.157934  0
Cd  Cd4  1  0.74524950  0.99967136  0.25005417  1  1.24029  0  0.757515  0.849932  0  2.142635  0
Cd  Cd5  1  0.25474495  0.00032053  0.74994211  1  1.24017  0  0.757547  0.849977  0  2.142576  0
H  H6  1  0.51419674  0.47498102  0.64172223  1  0.037669  0  0.102688  0.072598  0  0.978419  0
H  H7  1  0.03986743  0.52522305  0.85830024  1  0.030859  0  0.102254  0.072209  0  0.977368  0
H  H8  1  0.48579901  0.52501899  0.35827748  1  0.037704  0  0.102698  0.072593  0  0.978386  0
H  H9  1  0.96012942  0.47478469  0.14169701  1  0.031054  0  0.102204  0.072126  0  0.977351  0
H  H10  1  0.67512104  0.56965514  0.63227454  1  0.022845  0  0.099369  0.069848  0  0.961434  0
H  H11  1  0.10616629  0.43058264  0.86780386  1  0.033746  0  0.099279  0.069603  0  0.961727  0
H  H12  1  0.32487491  0.43034710  0.36772585  1  0.02291  0  0.099353  0.06978  0  0.961406  0
H  H13  1  0.89382639  0.56942224  0.13219063  1  0.033671  0  0.099304  0.069566  0  0.96169  0
H  H14  1  0.75048676  0.44763853  0.59456014  1  0.050179  0  0.109369  0.0916  0  0.989706  0
H  H15  1  0.30335994  0.55272086  0.90555723  1  0.051696  0  0.109679  0.091325  0  0.989745  0
H  H16  1  0.24951408  0.55236432  0.40544267  1  0.050346  0  0.109368  0.091594  0  0.989651  0
H  H17  1  0.69663342  0.44727620  0.09444111  1  0.052624  0  0.109732  0.091392  0  0.989669  0
H  H18  1  0.70476002  0.41385062  0.65346691  1  0.010409  0  0.095971  0.07068  0  0.977192  0
H  H19  1  0.29158924  0.58629955  0.84661498  1  0.045272  0  0.095966  0.07004  0  0.977487  0
H  H20  1  0.29523641  0.58615075  0.34653521  1  0.010452  0  0.095952  0.070656  0  0.977207  0
H  H21  1  0.70840861  0.41370282  0.15338333  1  0.045294  0  0.095994  0.07011  0  0.977449  0
H  H22  1  0.69245628  0.30919155  0.54902459  1  0.057166  0  0.109833  0.098564  0  0.983421  0
H  H23  1  0.38360101  0.69140444  0.95095995  1  0.06741  0  0.109736  0.09841  0  0.983413  0
H  H24  1  0.30755004  0.69081675  0.45097577  1  0.057343  0  0.109857  0.098595  0  0.983409  0
H  H25  1  0.61639267  0.30859325  0.04904046  1  0.067413  0  0.109766  0.098434  0  0.983405  0
H  H26  1  0.56811519  0.19375409  0.56823945  1  0.068048  0  0.10947  0.102012  0  1.001383  0
H  H27  1  0.37457478  0.80675937  0.93162152  1  0.07078  0  0.109555  0.10154  0  1.002283  0
H  H28  1  0.43189111  0.80625049  0.43175989  1  0.067964  0  0.109427  0.101948  0  1.001421  0
H  H29  1  0.62542593  0.19324138  0.06837852  1  0.07079  0  0.109528  0.101524  0  1.002326  0
H  H30  1  0.90937372  0.37062201  0.57936347  1  0.094444  0  0.099349  0.097583  0  1.050148  0
H  H31  1  0.53917340  0.62977751  0.92059028  1  0.101697  0  0.099495  0.097825  0  1.04973  0
H  H32  1  0.09063174  0.62939007  0.42063687  1  0.094609  0  0.099332  0.097509  0  1.050256  0
H  H33  1  0.46081398  0.37021127  0.07940741  1  0.101864  0  0.099517  0.097969  0  1.049629  0
H  H34  1  0.08116973  0.34372450  0.62584993  1  0.122493  0  0.103058  0.120542  0  1.050289  0
H  H35  1  0.73797947  0.65677317  0.87413662  1  0.132733  0  0.103122  0.119276  0  1.051024  0
H  H36  1  0.91883347  0.65629042  0.37415352  1  0.122467  0  0.103072  0.120609  0  1.050278  0
H  H37  1  0.26201279  0.34321617  0.12586418  1  0.133021  0  0.10313  0.119287  0  1.051031  0
H  H38  1  0.16415822  0.34654193  0.70607679  1  0.093021  0  0.131936  0.135296  0  0.987239  0
H  H39  1  0.81889032  0.65391054  0.79419058  1  0.114899  0  0.132023  0.135629  0  0.986743  0
H  H40  1  0.83585388  0.65345773  0.29392845  1  0.09335  0  0.131935  0.13531  0  0.98719  0
H  H41  1  0.18110633  0.34608209  0.20581816  1  0.114935  0  0.132072  0.135662  0  0.986796  0
H  H42  1  0.31059894  0.24665873  0.75153429  1  0.178759  0  0.123985  0.133433  0  1.005606  0
H  H43  1  0.06497062  0.75399883  0.74857554  1  0.1538  0  0.124029  0.133429  0  1.007009  0
H  H44  1  0.68939777  0.75332667  0.24846895  1  0.178781  0  0.124073  0.133522  0  1.005811  0
H  H45  1  0.93502856  0.24598416  0.25142979  1  0.153782  0  0.124105  0.133491  0  1.00719  0
H  H46  1  0.97889815  0.03052067  0.68912586  1  0.143189  0  0.142057  0.108509  0  0.978156  0
H  H47  1  0.94816694  0.97005254  0.81054088  1  0.141046  0  0.142543  0.10893  0  0.977605  0
H  H48  1  0.02109925  0.96948266  0.31086933  1  0.14331  0  0.142014  0.108429  0  0.978231  0
H  H49  1  0.05184250  0.02994364  0.18945954  1  0.140789  0  0.142581  0.108997  0  0.977407  0
H  H50  1  0.77967546  0.08121459  0.69416842  1  0.070673  0  0.107266  0.112436  0  0.995205  0
H  H51  1  0.69900339  0.91933312  0.80585472  1  0.05866  0  0.107308  0.112516  0  0.995496  0
H  H52  1  0.22033102  0.91878852  0.30583023  1  0.070848  0  0.107231  0.112372  0  0.995255  0
H  H53  1  0.30101972  0.08067753  0.19415636  1  0.059012  0  0.107294  0.112484  0  0.995614  0
H  H54  1  0.60815955  0.10878285  0.64665127  1  0.093642  0  0.103166  0.110329  0  1.040219  0
H  H55  1  0.49979084  0.89169229  0.85334294  1  0.089552  0  0.103237  0.109828  0  1.040583  0
H  H56  1  0.39185159  0.89122406  0.35334701  1  0.093665  0  0.103225  0.110411  0  1.040001  0
H  H57  1  0.50022390  0.10831633  0.14666434  1  0.089573  0  0.103224  0.109881  0  1.040584  0
H  H58  1  0.45059930  0.31473817  0.65980451  1  0.027528  0  0.102511  0.074742  0  1.001035  0
H  H59  1  0.13625559  0.68522598  0.84013294  1  0.012562  0  0.102871  0.075106  0  1.001432  0
H  H60  1  0.54939752  0.68526031  0.34019555  1  0.027335  0  0.102523  0.074749  0  1.00104  0
H  H61  1  0.86375282  0.31478098  0.15986465  1  0.012496  0  0.102836  0.075104  0  1.0014  0
H  H62  1  0.52128545  0.22223355  0.66406436  1  0.027265  0  0.102314  0.087191  0  0.993082  0
H  H63  1  0.29928909  0.77788510  0.83581766  1  0.066175  0  0.102343  0.087603  0  0.992313  0
H  H64  1  0.47871289  0.77776428  0.33593397  1  0.027171  0  0.102314  0.087217  0  0.99309  0
H  H65  1  0.70071996  0.22212314  0.16418374  1  0.06608  0  0.102331  0.087578  0  0.992311  0
H  H66  1  0.37590655  0.13572769  0.59573276  1  0.049916  0  0.110635  0.091305  0  0.986239  0
H  H67  1  0.24009972  0.86448497  0.90406522  1  0.046661  0  0.110643  0.091931  0  0.985927  0
H  H68  1  0.62409160  0.86427161  0.40426626  1  0.04994  0  0.110625  0.091253  0  0.986212  0
H  H69  1  0.75989635  0.13551569  0.09593621  1  0.046605  0  0.110659  0.091961  0  0.986006  0
H  H70  1  0.29178180  0.13504855  0.64791438  1  0.063703  0  0.094357  0.070896  0  1.032162  0
H  H71  1  0.15646597  0.86482461  0.85190882  1  0.060093  0  0.094324  0.070881  0  1.031482  0
H  H72  1  0.70821807  0.86495235  0.35208324  1  0.063634  0  0.094367  0.070913  0  1.03215  0
H  H73  1  0.84353754  0.13517990  0.14809156  1  0.060103  0  0.094379  0.070957  0  1.031479  0
H  H74  1  0.06148620  0.37571189  0.45743612  1  0.084787  0  0.10251  0.108425  0  0.999497  0
H  H75  1  0.68576913  0.62402028  0.04263374  1  0.079372  0  0.10249  0.108159  0  0.999957  0
H  H76  1  0.93852363  0.62429422  0.54256287  1  0.084717  0  0.102524  0.108486  0  0.999447  0
H  H77  1  0.31422606  0.37597678  0.95737671  1  0.077885  0  0.102487  0.108094  0  0.999922  0
H  H78  1  0.87940124  0.42882648  0.42831669  1  0.098434  0  0.10226  0.106072  0  1.013625  0
H  H79  1  0.45061752  0.57083287  0.07181753  1  0.09776  0  0.10235  0.105728  0  1.013722  0
H  H80  1  0.12060695  0.57118189  0.57168263  1  0.0982  0  0.102295  0.106151  0  1.013488  0
H  H81  1  0.54937765  0.42916415  0.92819362  1  0.09786  0  0.102442  0.105773  0  1.013668  0
H  H82  1  0.64665716  0.35906784  0.40115237  1  0.098571  0  0.101222  0.110099  0  1.024923  0
H  H83  1  0.28791429  0.64088706  0.09874641  1  0.100861  0  0.101254  0.110466  0  1.024698  0
H  H84  1  0.35334120  0.64093005  0.59884493  1  0.098498  0  0.101233  0.110133  0  1.024974  0
H  H85  1  0.71208079  0.35911161  0.90125053  1  0.100964  0  0.101202  0.110413  0  1.02451  0
H  H86  1  0.71778502  0.28380155  0.33366560  1  0.082771  0  0.099025  0.102358  0  1.006433  0
H  H87  1  0.43455300  0.71596382  0.16617955  1  0.083239  0  0.09883  0.10259  0  1.006837  0
H  H88  1  0.28221284  0.71619716  0.66633066  1  0.083288  0  0.099038  0.102392  0  1.006323  0
H  H89  1  0.56543396  0.28403331  0.83381774  1  0.083327  0  0.098817  0.102539  0  1.006956  0
H  H90  1  0.53256101  0.98751786  0.39836750  1  0.060903  0  0.098729  0.095613  0  1.044713  0
H  H91  1  0.54566231  0.01237230  0.10162180  1  0.106401  0  0.098612  0.095077  0  1.044731  0
H  H92  1  0.46744858  0.01248228  0.60163013  1  0.060938  0  0.098763  0.095693  0  1.044674  0
H  H93  1  0.45432761  0.98762708  0.89837584  1  0.105868  0  0.09869  0.095185  0  1.044774  0
H  H94  1  0.45491834  0.06153439  0.46446164  1  0.12032  0  0.103151  0.109323  0  1.003292  0
H  H95  1  0.39363384  0.93856995  0.03560359  1  0.092603  0  0.102959  0.109147  0  1.003221  0
H  H96  1  0.54509560  0.93846344  0.53553669  1  0.120192  0  0.103092  0.109324  0  1.003315  0
H  H97  1  0.60636764  0.06142497  0.96439268  1  0.092328  0  0.103015  0.109221  0  1.003113  0
H  H98  1  0.64062678  0.54785389  0.54929615  1  0.46638  0  0.282391  0.285407  0  1.002886  0
H  H99  1  0.09313947  0.45241051  0.95076381  1  0.474957  0  0.282337  0.28503  0  1.00318  0
H  H100  1  0.35937376  0.45214835  0.45070424  1  0.466165  0  0.282371  0.285407  0  1.002931  0
H  H101  1  0.90686010  0.54759346  0.04923311  1  0.47491  0  0.282278  0.284915  0  1.003231  0
H  H102  1  0.50629197  0.56018430  0.56983118  1  0.466872  0  0.288566  0.289893  0  0.984264  0
H  H103  1  0.94657630  0.44005810  0.93017020  1  0.454175  0  0.28848  0.289849  0  0.983386  0
H  H104  1  0.49370558  0.43981197  0.43016785  1  0.46689  0  0.28856  0.289904  0  0.984232  0
H  H105  1  0.05341932  0.55993981  0.06982675  1  0.454246  0  0.28849  0.289876  0  0.983425  0
H  H106  1  0.22946127  0.26705857  0.61330488  1  0.423922  0  0.28853  0.266424  0  0.986871  0
H  H107  1  0.96249023  0.73268622  0.88667087  1  0.40486  0  0.288843  0.267125  0  0.986242  0
H  H108  1  0.77054156  0.73294458  0.38669308  1  0.423943  0  0.288582  0.266515  0  0.986798  0
H  H109  1  0.03751117  0.26731405  0.11332468  1  0.404976  0  0.288854  0.267216  0  0.986187  0
H  H110  1  0.21141035  0.18741163  0.57129634  1  0.42614  0  0.311195  0.301484  0  0.91085  0
H  H111  1  0.02394745  0.81258891  0.92857431  1  0.414819  0  0.311016  0.301101  0  0.911055  0
H  H112  1  0.78858728  0.81258847  0.42870198  1  0.426188  0  0.311138  0.301457  0  0.910761  0
H  H113  1  0.97604388  0.18740593  0.07142335  1  0.41481  0  0.311073  0.301182  0  0.91105  0
C  C114  1  0.60196079  0.49937740  0.61852483  1  0.308568  0  -0.071536  0.007946  0  3.961751  0
C  C115  1  0.10318149  0.50085742  0.88152844  1  0.320115  0  -0.070764  0.009  0  3.958911  0
C  C116  1  0.39803611  0.50062491  0.38147452  1  0.308473  0  -0.071589  0.007971  0  3.961717  0
C  C117  1  0.89681477  0.49914729  0.11846882  1  0.31032  0  -0.070735  0.009199  0  3.958763  0
C  C118  1  0.66501956  0.42015513  0.61878025  1  0.297792  0  -0.070172  -0.098793  0  3.930527  0
C  C119  1  0.24542998  0.58012810  0.88128293  1  0.242246  0  -0.070203  -0.097391  0  3.92978  0
C  C120  1  0.33497945  0.57984404  0.38122084  1  0.297547  0  -0.07013  -0.098669  0  3.930407  0
C  C121  1  0.75456822  0.41987498  0.11871607  1  0.241737  0  -0.07028  -0.097585  0  3.929637  0
C  C122  1  0.64361975  0.26412106  0.58027894  1  0.281346  0  -0.068817  -0.133327  0  3.925106  0
C  C123  1  0.37982814  0.73634408  0.91965737  1  0.249963  0  -0.068924  -0.133641  0  3.926404  0
C  C124  1  0.35638322  0.73588421  0.41972143  1  0.281191  0  -0.068812  -0.13328  0  3.925057  0
C  C125  1  0.62017072  0.26365664  0.08034302  1  0.250182  0  -0.068884  -0.133563  0  3.926366  0
C  C126  1  0.74588754  0.24281610  0.60947616  1  -0.007585  0  -0.011712  0.092089  0  3.946142  0
C  C127  1  0.50344092  0.75761715  0.89048947  1  0.020088  0  -0.012357  0.092476  0  3.946891  0
C  C128  1  0.25412317  0.75718995  0.39052387  1  -0.008055  0  -0.011823  0.091922  0  3.946171  0
C  C129  1  0.49655562  0.24237892  0.10951268  1  0.019932  0  -0.012316  0.092668  0  3.946621  0
C  C130  1  0.87981805  0.30755991  0.60486088  1  -0.02372  0  -0.086102  -0.106104  0  3.965272  0
C  C131  1  0.57268000  0.69287344  0.89510323  1  -0.129729  0  -0.086336  -0.107792  0  3.966537  0
C  C132  1  0.12018884  0.69244767  0.39513879  1  -0.023805  0  -0.085975  -0.105836  0  3.96513  0
C  C133  1  0.42731340  0.30711820  0.10489721  1  -0.1296  0  -0.086444  -0.108131  0  3.966547  0
C  C134  1  0.97775632  0.29226796  0.63138226  1  -0.088928  0  -0.097667  -0.175954  0  3.990153  0
C  C135  1  0.68597142  0.70819138  0.86859088  1  0.003588  0  -0.09743  -0.173088  0  3.988142  0
C  C136  1  0.02225038  0.70774110  0.36861810  1  -0.088726  0  -0.097646  -0.176037  0  3.990193  0
C  C137  1  0.31402394  0.29179866  0.13141096  1  0.003113  0  -0.09739  -0.173056  0  3.988142  0
C  C138  1  0.94097471  0.20998103  0.66323652  1  0.236462  0  0.083067  0.146182  0  4.053775  0
C  C139  1  0.73152384  0.79051293  0.83675157  1  0.251137  0  0.082574  0.145969  0  4.053501  0
C  C140  1  0.05903125  0.79003021  0.33676521  1  0.23669  0  0.083098  0.14623  0  4.053633  0
C  C141  1  0.26848094  0.20948678  0.16325298  1  0.250775  0  0.082663  0.146262  0  4.053133  0
C  C142  1  0.15006088  0.26734144  0.70927313  1  0.301464  0  -8.2e-05  -0.11495  0  3.927143  0
C  C143  1  0.88365034  0.73318033  0.79085592  1  0.273951  0  -0.001266  -0.116535  0  3.926788  0
C  C144  1  0.84994964  0.73265688  0.29072936  1  0.300969  0  -0.000123  -0.114943  0  3.926924  0
C  C145  1  0.11636010  0.26681782  0.20914933  1  0.275822  0  -0.001275  -0.116606  0  3.926462  0
C  C146  1  0.22050381  0.21765065  0.73152214  1  0.411365  0  0.001485  -0.025648  0  3.996311  0
C  C147  1  0.00363327  0.78295260  0.76852273  1  0.417143  0  0.001859  -0.025123  0  3.996174  0
C  C148  1  0.77949073  0.78234325  0.26847829  1  0.411159  0  0.001365  -0.025915  0  3.996515  0
C  C149  1  0.99635932  0.21703559  0.23148430  1  0.415428  0  0.001725  -0.025196  0  3.995805  0
C  C150  1  0.04961596  0.10192594  0.70095647  1  0.960178  0  0.140995  0.085377  0  3.931323  0
C  C151  1  0.94786488  0.89864844  0.79885740  1  0.964243  0  0.139831  0.085197  0  3.931331  0
C  C152  1  0.95038130  0.89807343  0.29904151  1  0.960111  0  0.141076  0.085548  0  3.931278  0
C  C153  1  0.05214097  0.10134605  0.20114579  1  0.964438  0  0.139768  0.085102  0  3.931072  0
C  C154  1  0.80810043  0.14426934  0.66868114  1  -0.020843  0  -0.094136  -0.165402  0  4.006199  0
C  C155  1  0.66433819  0.85624017  0.83133212  1  -0.025693  0  -0.094027  -0.166285  0  4.00618  0
C  C156  1  0.19190772  0.85573894  0.33131956  1  -0.022676  0  -0.094118  -0.165381  0  4.00599  0
C  C157  1  0.33567538  0.14376241  0.16867485  1  -0.025996  0  -0.094058  -0.166322  0  4.006272  0
C  C158  1  0.71136230  0.16073079  0.64178184  1  -0.009403  0  -0.084973  -0.112889  0  3.956326  0
C  C159  1  0.55107005  0.83975265  0.85822199  1  -0.017907  0  -0.085176  -0.112281  0  3.956141  0
C  C160  1  0.28864860  0.83927749  0.35821887  1  -0.007759  0  -0.085046  -0.112941  0  3.95603  0
C  C161  1  0.44893895  0.16025000  0.14178393  1  -0.017908  0  -0.085202  -0.112525  0  3.956311  0
C  C162  1  0.47772839  0.26155123  0.63951584  1  0.307923  0  -0.072045  -0.093792  0  3.904362  0
C  C163  1  0.21643668  0.73854575  0.86039672  1  0.2847  0  -0.072612  -0.09511  0  3.906715  0
C  C164  1  0.52226533  0.73844655  0.36048319  1  0.308207  0  -0.072056  -0.093836  0  3.904601  0
C  C165  1  0.78356671  0.26146037  0.13960226  1  0.284553  0  -0.072526  -0.094948  0  3.906779  0
C  C166  1  0.35137795  0.18444320  0.61949935  1  0.309151  0  -0.078219  -0.005971  0  3.926437  0
C  C167  1  0.16687957  0.81557895  0.88036001  1  0.308181  0  -0.078375  -0.00647  0  3.928297  0
C  C168  1  0.64861946  0.81555461  0.38049933  1  0.309075  0  -0.078149  -0.005814  0  3.926411  0
C  C169  1  0.83311748  0.18442182  0.11963969  1  0.308451  0  -0.078482  -0.006707  0  3.928597  0
C  C170  1  0.20846023  0.43630362  0.53467397  1  1.535564  0  0.195556  0.572393  0  4.217907  0
C  C171  1  0.77211561  0.56372771  0.96524901  1  1.553871  0  0.195709  0.571933  0  4.220669  0
C  C172  1  0.79154460  0.56370170  0.46532571  1  1.535499  0  0.195416  0.572159  0  4.217849  0
C  C173  1  0.22787628  0.43627193  0.03475658  1  1.554509  0  0.195907  0.572206  0  4.220415  0
C  C174  1  0.10239579  0.47057421  0.51624880  1  -0.038337  0  -0.01764  -0.02804  0  3.963465  0
C  C175  1  0.63181058  0.52945522  0.98371741  1  -0.027372  0  -0.018033  -0.028106  0  3.96377  0
C  C176  1  0.89761412  0.52943576  0.48374913  1  -0.037918  0  -0.017545  -0.027928  0  3.963501  0
C  C177  1  0.36818405  0.47053888  0.01629202  1  -0.028457  0  -0.018021  -0.028145  0  3.963677  0
C  C178  1  0.03428261  0.43057480  0.47575080  1  -0.108126  0  -0.091262  -0.113421  0  3.99395  0
C  C179  1  0.60371482  0.56924962  0.02429622  1  -0.140717  0  -0.090889  -0.113213  0  3.995631  0
C  C180  1  0.96572614  0.56943283  0.52424818  1  -0.108557  0  -0.09133  -0.11357  0  3.993993  0
C  C181  1  0.39628011  0.43074509  0.97571563  1  -0.139146  0  -0.090906  -0.113113  0  3.995769  0
C  C182  1  0.93280127  0.45957560  0.45969472  1  0.007038  0  -0.087174  -0.102021  0  3.990397  0
C  C183  1  0.47324416  0.54024673  0.04037695  1  0.024679  0  -0.087293  -0.101414  0  3.989984  0
C  C184  1  0.06720855  0.54043051  0.54030426  1  0.00713  0  -0.087238  -0.102087  0  3.990356  0
C  C185  1  0.52675427  0.45974946  0.95963524  1  0.024213  0  -0.087351  -0.101398  0  3.990032  0
C  C186  1  0.49540634  0.25628744  0.47570834  1  1.540211  0  0.187817  0.549103  0  4.246143  0
C  C187  1  0.23907592  0.74381753  0.02436452  1  1.543452  0  0.187841  0.54826  0  4.248938  0
C  C188  1  0.50459593  0.74370725  0.52429174  1  1.540001  0  0.187675  0.548964  0  4.246161  0
C  C189  1  0.76091924  0.25617577  0.97563349  1  1.543  0  0.187912  0.548358  0  4.249245  0
C  C190  1  0.54417438  0.21396124  0.43619228  1  -0.058976  0  -0.016556  -0.019479  0  3.969602  0
C  C191  1  0.33040016  0.78608923  0.06381335  1  0.005633  0  -0.017187  -0.020231  0  3.970061  0
C  C192  1  0.45583113  0.78603807  0.56380639  1  -0.05912  0  -0.016593  -0.019405  0  3.969444  0
C  C193  1  0.66959492  0.21390576  0.93618188  1  0.005923  0  -0.017188  -0.020493  0  3.970484  0
C  C194  1  0.61983833  0.27741081  0.39972983  1  -0.059629  0  -0.089948  -0.108304  0  3.97909  0
C  C195  1  0.34277504  0.72252835  0.10019874  1  -0.046787  0  -0.08996  -0.10852  0  3.979238  0
C  C196  1  0.38016313  0.72258777  0.60026850  1  -0.059409  0  -0.089985  -0.108415  0  3.979123  0
C  C197  1  0.65721941  0.27746723  0.89979926  1  -0.046764  0  -0.089932  -0.108409  0  3.979471  0
C  C198  1  0.66016994  0.23599821  0.36255648  1  0.027112  0  -0.090048  -0.101414  0  3.987317  0
C  C199  1  0.42468666  0.76382147  0.13732790  1  -0.064132  0  -0.089423  -0.101441  0  3.989372  0
C  C200  1  0.33983322  0.76400194  0.63744115  1  0.026627  0  -0.090059  -0.101445  0  3.987267  0
C  C201  1  0.57530567  0.23617720  0.86266904  1  -0.064446  0  -0.089516  -0.101482  0  3.989575  0
C  C202  1  0.62689152  0.13102025  0.36154033  1  -0.075276  0  -0.019649  -0.024047  0  3.976659  0
C  C203  1  0.49634392  0.86877610  0.13838338  1  -0.007143  0  -0.020665  -0.025453  0  3.979716  0
C  C204  1  0.37311170  0.86898000  0.63845557  1  -0.075357  0  -0.019623  -0.023975  0  3.976728  0
C  C205  1  0.50364785  0.13122331  0.86161390  1  -0.007503  0  -0.020457  -0.025149  0  3.979501  0
C  C206  1  0.66745011  0.08635294  0.32107701  1  1.525634  0  0.184851  0.550647  0  4.23805  0
C  C207  1  0.58137692  0.91336147  0.17888734  1  1.530447  0  0.186147  0.552333  0  4.234257  0
C  C208  1  0.33254762  0.91364736  0.67891820  1  1.525506  0  0.184874  0.55068  0  4.237668  0
C  C209  1  0.41861755  0.08663415  0.82110996  1  1.530535  0  0.186055  0.552412  0  4.234154  0
C  C210  1  0.55496590  0.06847160  0.39879661  1  -0.046118  0  -0.089362  -0.103349  0  3.994698  0
C  C211  1  0.48696509  0.93143012  0.10118100  1  -0.120871  0  -0.089182  -0.10239  0  3.994122  0
C  C212  1  0.44504055  0.93152777  0.60120136  1  -0.045863  0  -0.089363  -0.103464  0  3.994861  0
C  C213  1  0.51302704  0.06856632  0.89881526  1  -0.120166  0  -0.089339  -0.102676  0  3.994279  0
C  C214  1  0.51292371  0.10932843  0.43563379  1  -0.039685  0  -0.087118  -0.097523  0  3.98208  0
C  C215  1  0.40387346  0.89070195  0.06439053  1  -0.03882  0  -0.086327  -0.096631  0  3.981224  0
C  C216  1  0.48708220  0.89067169  0.56436418  1  -0.039885  0  -0.087098  -0.097553  0  3.9821  0
C  C217  1  0.59611887  0.10929304  0.93560470  1  -0.038513  0  -0.086348  -0.096559  0  3.981062  0
N  N218  1  0.56035755  0.51497238  0.57166633  1  -1.165298  0  -0.641332  -0.578215  0  3.381816  0
N  N219  1  0.04582240  0.48529931  0.92837492  1  -1.16121  0  -0.641182  -0.578088  0  3.381938  0
N  N220  1  0.43964224  0.48502837  0.42833371  1  -1.165044  0  -0.641265  -0.578193  0  3.38175  0
N  N221  1  0.95417329  0.51470242  0.07162167  1  -1.152069  0  -0.641147  -0.578038  0  3.381844  0
N  N222  1  0.27857312  0.23584047  0.59265228  1  -1.126395  0  -0.629912  -0.564473  0  3.379986  0
N  N223  1  0.04283215  0.76413337  0.90726771  1  -1.098098  0  -0.629841  -0.564564  0  3.381904  0
N  N224  1  0.72142806  0.76416121  0.40734500  1  -1.12633  0  -0.629944  -0.564605  0  3.379821  0
N  N225  1  0.95716438  0.23586454  0.09272924  1  -1.098037  0  -0.629903  -0.564701  0  3.381976  0
N  N226  1  0.57347598  0.32120309  0.60324942  1  -1.006108  0  -0.33883  -0.117957  0  3.479878  0
N  N227  1  0.25266300  0.67909759  0.89670448  1  -0.994331  0  -0.338036  -0.117086  0  3.479876  0
N  N228  1  0.42652918  0.67879919  0.39675028  1  -1.006046  0  -0.338859  -0.118104  0  3.479947  0
N  N229  1  0.74733499  0.32090322  0.10329453  1  -0.994305  0  -0.338039  -0.117171  0  3.479999  0
N  N230  1  0.04108520  0.19304735  0.69011457  1  -1.275348  0  -0.226384  0.012239  0  3.817037  0
N  N231  1  0.84859099  0.80745618  0.80987106  1  -1.275927  0  -0.225006  0.013108  0  3.817014  0
N  N232  1  0.95892053  0.80695792  0.30988580  1  -1.275077  0  -0.226359  0.012224  0  3.817116  0
N  N233  1  0.15141810  0.19254112  0.19013558  1  -1.275937  0  -0.225046  0.013092  0  3.816876  0
N  N234  1  0.15702391  0.11469503  0.72593485  1  -1.230162  0  -0.351623  -0.293915  0  3.522643  0
N  N235  1  0.04264005  0.88594290  0.77391863  1  -1.204474  0  -0.351165  -0.294131  0  3.523804  0
N  N236  1  0.84297178  0.88529749  0.27406351  1  -1.23011  0  -0.351642  -0.293873  0  3.522651  0
N  N237  1  0.95736241  0.11404482  0.22608391  1  -1.204506  0  -0.351171  -0.294184  0  3.5238  0
O  O238  1  0.54039374  0.35366377  0.47794174  1  -1.157678  0  -0.335902  -0.560905  0  2.242243  0
O  O239  1  0.18652940  0.64643818  0.02216580  1  -1.160824  0  -0.335792  -0.56025  0  2.242513  0
O  O240  1  0.45959852  0.64633109  0.52205557  1  -1.157467  0  -0.335796  -0.560816  0  2.242226  0
O  O241  1  0.81347716  0.35355222  0.97783014  1  -1.160589  0  -0.335799  -0.560188  0  2.242881  0
O  O242  1  0.41397815  0.19683904  0.50499003  1  -1.182619  0  -0.342825  -0.569686  0  2.126834  0
O  O243  1  0.21706569  0.80329574  0.99510946  1  -1.186596  0  -0.342798  -0.569142  0  2.127176  0
O  O244  1  0.58603143  0.80315556  0.49501144  1  -1.182627  0  -0.342784  -0.569662  0  2.126933  0
O  O245  1  0.78291245  0.19669293  0.00488996  1  -1.186485  0  -0.342832  -0.569186  0  2.127257  0
O  O246  1  0.26079796  0.39580665  0.50513743  1  -1.165498  0  -0.342935  -0.575042  0  2.243415  0
O  O247  1  0.86495852  0.60412011  0.99477266  1  -1.173559  0  -0.34301  -0.574848  0  2.245893  0
O  O248  1  0.73920928  0.60420165  0.49486293  1  -1.16535  0  -0.3429  -0.57498  0  2.243275  0
O  O249  1  0.13504365  0.39589273  0.00522768  1  -1.173668  0  -0.343035  -0.574923  0  2.245941  0
O  O250  1  0.23860904  0.44599773  0.57680834  1  -1.182214  0  -0.340653  -0.578854  0  2.120886  0
O  O251  1  0.79247930  0.55415169  0.92309171  1  -1.180847  0  -0.340976  -0.579037  0  2.121602  0
O  O252  1  0.76139418  0.55400988  0.42319098  1  -1.182218  0  -0.340561  -0.578691  0  2.120732  0
O  O253  1  0.20749665  0.44583811  0.07691393  1  -1.181058  0  -0.341099  -0.5792  0  2.121404  0
O  O254  1  0.62194833  0.98954751  0.31852989  1  -1.148507  0  -0.336178  -0.560601  0  2.194895  0
O  O255  1  0.63256128  0.01015162  0.18150071  1  -1.153473  0  -0.336556  -0.560596  0  2.192461  0
O  O256  1  0.37804510  0.01044969  0.68146637  1  -1.148538  0  -0.33615  -0.56062  0  2.194879  0
O  O257  1  0.36743026  0.98984550  0.81849693  1  -1.153595  0  -0.336492  -0.560638  0  2.192447  0
O  O258  1  0.74582536  0.14514094  0.29027149  1  -1.179123  0  -0.342402  -0.564816  0  2.173361  0
O  O259  1  0.60091591  0.85448316  0.20966503  1  -1.177792  0  -0.343452  -0.566481  0  2.171804  0
O  O260  1  0.25417364  0.85485637  0.70972304  1  -1.178816  0  -0.342525  -0.564895  0  2.173003  0
O  O261  1  0.39908096  0.14551174  0.79033158  1  -1.177682  0  -0.343468  -0.566614  0  2.171855  0
