# generated using pymatgen
data_CdH36C36Br2N4O5
_symmetry_space_group_name_H-M   'P 1'
_cell_length_a   5.79316834
_cell_length_b   13.28809482
_cell_length_c   12.25935840
_cell_angle_alpha   111.64433954
_cell_angle_beta   93.56497958
_cell_angle_gamma   89.28307975
_symmetry_Int_Tables_number   1
_chemical_formula_structural   CdH36C36Br2N4O5
_chemical_formula_sum   'Cd1 H36 C36 Br2 N4 O5'
_cell_volume   875.43384063
_cell_formula_units_Z   1
loop_
 _symmetry_equiv_pos_site_id
 _symmetry_equiv_pos_as_xyz
  1  'x, y, z'
loop_
 _atom_site_type_symbol
 _atom_site_label
 _atom_site_symmetry_multiplicity
 _atom_site_fract_x
 _atom_site_fract_y
 _atom_site_fract_z
 _atom_site_occupancy
 _atom_site_hle17_bader_spin_density
 _atom_site_hle17_ddec_charge
 _atom_site_hle17_ddec_spin_density
 _atom_site_hle17_ddec_sum_bond_order
 _atom_site_hle17_magmom
 _atom_site_hse06_10hf_bader_spin_density
 _atom_site_hse06_10hf_ddec_charge
 _atom_site_hse06_10hf_ddec_spin_density
 _atom_site_hse06_10hf_ddec_sum_bond_order
 _atom_site_hse06_10hf_magmom
 _atom_site_hse06_bader_spin_density
 _atom_site_hse06_ddec_charge
 _atom_site_hse06_ddec_spin_density
 _atom_site_hse06_ddec_sum_bond_order
 _atom_site_hse06_magmom
 _atom_site_pbe_bader_spin_density
 _atom_site_pbe_cm5_charge
 _atom_site_pbe_ddec_charge
 _atom_site_pbe_ddec_spin_density
 _atom_site_pbe_ddec_sum_bond_order
 _atom_site_pbe_magmom
Cd  Cd0  1  0.81421749  0.40873973  0.44215354  1  0  1.153751  0  1.657878  0  0  0.967731  0  2.100771  0  0  1.023856  0  2.048256  0  0  0.778794  0.927967  0  2.136591  0
H  H1  1  0.39142475  0.45102591  0.25159962  1  0  0.124916  0  0.960366  0  0  0.134161  0  1.023506  0  0  0.137666  0  1.021232  0  0  0.107331  0.131571  0  1.02528  0
H  H2  1  0.27431607  0.38809442  0.64123387  1  0  0.115105  0  0.968357  0  0  0.127752  0  1.026597  0  0  0.129964  0  1.025978  0  0  0.106332  0.126098  0  1.027198  0
H  H3  1  0.58474737  0.62022972  0.64535890  1  0  0.102602  0  0.919055  0  0  0.113533  0  0.980286  0  0  0.116222  0  0.97648  0  0  0.140389  0.111483  0  0.983096  0
H  H4  1  0.04757590  0.19667900  0.23081250  1  0  0.104079  0  0.957116  0  0  0.110334  0  1.025548  0  0  0.113288  0  1.021582  0  0  0.132649  0.108084  0  1.028465  0
H  H5  1  0.61240383  0.34748260  0.73087114  1  0  0.114094  0  0.942385  0  0  0.137823  0  0.99787  0  0  0.139119  0  0.99753  0  0  0.093003  0.136827  0  0.998143  0
H  H6  1  0.57040262  0.36316602  0.87893943  1  0  0.100047  0  0.97039  0  0  0.121005  0  1.034689  0  0  0.121431  0  1.036497  0  0  0.086582  0.120603  0  1.033519  0
H  H7  1  0.75470441  0.45320131  0.84920855  1  0  0.099097  0  0.976533  0  0  0.11779  0  1.044407  0  0  0.118694  0  1.045441  0  0  0.086567  0.117079  0  1.043775  0
H  H8  1  0.13238164  0.70795524  0.00829254  1  0  0.0974  0  0.984585  0  0  0.104526  0  1.056192  0  0  0.107288  0  1.055261  0  0  0.092278  0.102545  0  1.056946  0
H  H9  1  0.60016273  0.05981313  0.66166808  1  0  0.100559  0  0.960324  0  0  0.112148  0  1.020103  0  0  0.115086  0  1.019077  0  0  0.101002  0.110023  0  1.020965  0
H  H10  1  0.46189495  0.12134722  0.88318232  1  0  0.095233  0  0.986843  0  0  0.102027  0  1.059726  0  0  0.104925  0  1.058368  0  0  0.090811  0.099905  0  1.060811  0
H  H11  1  0.45907519  0.66812310  0.10367588  1  0  0.09707  0  0.969193  0  0  0.117437  0  1.033659  0  0  0.117899  0  1.034758  0  0  0.084049  0.117029  0  1.032949  0
H  H12  1  0.69064941  0.60257797  0.01535142  1  0  0.099193  0  0.962708  0  0  0.119135  0  1.029579  0  0  0.120133  0  1.029938  0  0  0.087098  0.118378  0  1.029378  0
H  H13  1  0.50684496  0.52745733  0.06606725  1  0  0.114786  0  0.953965  0  0  0.13929  0  1.009978  0  0  0.139978  0  1.011333  0  0  0.094658  0.13876  0  1.009059  0
H  H14  1  0.79852568  0.05558299  0.48896154  1  0  0.099063  0  0.95316  0  0  0.109991  0  1.01352  0  0  0.112603  0  1.012488  0  0  0.105489  0.1081  0  1.01435  0
H  H15  1  0.49135505  0.18592807  0.55881302  1  0  0.11397  0  0.946171  0  0  0.120613  0  1.012101  0  0  0.124684  0  1.008776  0  0  0.109177  0.117644  0  1.014607  0
H  H16  1  0.91345844  0.91856747  0.57713916  1  0  0.1048  0  0.943817  0  0  0.114247  0  1.00514  0  0  0.11762  0  1.003719  0  0  0.101699  0.111819  0  1.006275  0
H  H17  1  0.07979355  0.51079206  0.16150020  1  0  0.107608  0  0.970419  0  0  0.129427  0  1.028619  0  0  0.129707  0  1.030404  0  0  0.088089  0.129144  0  1.027433  0
H  H18  1  0.88590046  0.40296155  0.08223991  1  0  0.105048  0  0.966182  0  0  0.125074  0  1.030171  0  0  0.125703  0  1.031569  0  0  0.087993  0.124537  0  1.029296  0
H  H19  1  0.05067584  0.46316798  0.00565681  1  0  0.097388  0  0.979819  0  0  0.118204  0  1.044213  0  0  0.118825  0  1.045614  0  0  0.085944  0.117715  0  1.043285  0
H  H20  1  0.36447582  0.69023850  0.42759241  1  0  0.111508  0  0.958414  0  0  0.116167  0  1.02877  0  0  0.120781  0  1.024406  0  0  0.102327  0.112837  0  1.031939  0
H  H21  1  0.68541661  0.68634276  0.26449623  1  0  0.099139  0  0.97167  0  0  0.110315  0  1.032811  0  0  0.113065  0  1.031551  0  0  0.105936  0.108299  0  1.033822  0
H  H22  1  0.57255526  0.97282447  0.95735326  1  0  0.063406  0  0.951406  0  0  0.078434  0  1.019623  0  0  0.079557  0  1.019443  0  0  0.082874  0.077553  0  1.019845  0
H  H23  1  0.74807059  0.95459994  0.07211276  1  0  0.064218  0  0.948437  0  0  0.077664  0  1.018355  0  0  0.078859  0  1.017804  0  0  0.083519  0.076739  0  1.018816  0
H  H24  1  0.53448859  0.76481449  0.84301202  1  0  0.070281  0  0.926887  0  0  0.087907  0  0.989373  0  0  0.088344  0  0.989529  0  0  0.105018  0.087509  0  0.989377  0
H  H25  1  0.69070852  0.75154768  0.96480037  1  0  0.070745  0  0.929048  0  0  0.089267  0  0.991491  0  0  0.08931  0  0.992105  0  0  0.108214  0.089148  0  0.991161  0
H  H26  1  0.86275853  0.86979585  0.81145683  1  0  0.060857  0  0.955594  0  0  0.072266  0  1.029107  0  0  0.073597  0  1.028501  0  0  0.08066  0.071242  0  1.02962  0
H  H27  1  0.03158886  0.84997009  0.92667889  1  0  0.064552  0  0.946819  0  0  0.080396  0  1.01462  0  0  0.081435  0  1.014564  0  0  0.084933  0.07958  0  1.014755  0
H  H28  1  0.90740497  0.06931853  0.91278864  1  0  0.073153  0  0.916693  0  0  0.092053  0  0.976166  0  0  0.092329  0  0.97651  0  0  0.109202  0.091788  0  0.975976  0
H  H29  1  0.07434332  0.05421746  0.03122474  1  0  0.070652  0  0.923774  0  0  0.086381  0  0.988629  0  0  0.087036  0  0.988573  0  0  0.10736  0.085812  0  0.988793  0
H  H30  1  0.48215647  0.83886722  0.36468453  1  0  0.103456  0  0.954752  0  0  0.11531  0  1.013196  0  0  0.11774  0  1.013197  0  0  0.101611  0.113569  0  1.013294  0
H  H31  1  0.80785421  0.82761686  0.18926402  1  0  0.093995  0  0.966012  0  0  0.100791  0  1.036512  0  0  0.104698  0  1.033893  0  0  0.094937  0.097995  0  1.038482  0
H  H32  1  0.11881808  0.16825464  0.79877524  1  0  0.095726  0  0.987738  0  0  0.113708  0  1.054446  0  0  0.113681  0  1.056885  0  0  0.079975  0.113636  0  1.052828  0
H  H33  1  0.10808070  0.30950475  0.83133772  1  0  0.112558  0  0.952533  0  0  0.136362  0  1.009321  0  0  0.136837  0  1.010965  0  0  0.092597  0.135961  0  1.008229  0
H  H34  1  0.91528443  0.25024207  0.89612782  1  0  0.100677  0  0.964772  0  0  0.120472  0  1.03011  0  0  0.121692  0  1.030109  0  0  0.086885  0.119564  0  1.030137  0
H  H35  1  0.33378122  0.47396098  0.44496394  1  0  0.440042  0  0.857367  0  0  0.409671  0  0.920236  0  0  0.420637  0  0.904059  0  0  0.294268  0.401902  0  0.931676  0
H  H36  1  0.34315301  0.35385409  0.44309357  1  0  0.424365  0  0.88649  0  0  0.39289  0  0.951881  0  0  0.403957  0  0.935701  0  0  0.284885  0.385119  0  0.963222  0
C  C37  1  0.58483690  0.30543400  0.16487967  1  0  0.147631  0  3.854928  0  0  0.143389  0  4.105462  0  0  0.147142  0  4.128744  0  0  0.082198  0.140746  0  4.089825  0
C  C38  1  0.05314049  0.52414504  0.72329416  1  0  0.148587  0  3.85293  0  0  0.142711  0  4.106744  0  0  0.14647  0  4.129681  0  0  0.082202  0.14006  0  4.091352  0
C  C39  1  0.40636506  0.37909263  0.17240001  1  0  -0.190741  0  3.702477  0  0  -0.216393  0  3.95211  0  0  -0.219298  0  3.970796  0  0  -0.092045  -0.214351  0  3.939677  0
C  C40  1  0.24097660  0.45653430  0.72080827  1  0  -0.184358  0  3.718876  0  0  -0.21124  0  3.969456  0  0  -0.213901  0  3.98883  0  0  -0.091948  -0.20942  0  3.956539  0
C  C41  1  0.74038546  0.60168772  0.68809201  1  0  0.212279  0  3.656984  0  0  0.144872  0  3.930504  0  0  0.162622  0  3.940964  0  0  0.161022  0.133338  0  3.922991  0
C  C42  1  0.60509478  0.21392929  0.06034780  1  0  0.09048  0  3.816105  0  0  0.076663  0  4.06606  0  0  0.080503  0  4.088511  0  0  0.081265  0.074052  0  4.050984  0
C  C43  1  0.38957513  0.47961072  0.82114391  1  0  0.078941  0  3.731015  0  0  0.096633  0  3.973858  0  0  0.095669  0  3.999263  0  0  -0.016737  0.097218  0  3.956644  0
C  C44  1  0.89205126  0.21921552  0.19113133  1  0  0.207289  0  3.655644  0  0  0.140711  0  3.928454  0  0  0.158631  0  3.938727  0  0  0.158378  0.129083  0  3.921048  0
C  C45  1  0.24796501  0.35922606  0.07595877  1  0  0.082141  0  3.726052  0  0  0.098846  0  3.969517  0  0  0.097927  0  3.994773  0  0  -0.016506  0.099381  0  3.952428  0
C  C46  1  0.59172129  0.40707178  0.81955742  1  0  -0.320439  0  3.714035  0  0  -0.398597  0  3.947061  0  0  -0.400743  0  3.958113  0  0  -0.241721  -0.396778  0  3.939448  0
C  C47  1  0.16203078  0.63884301  0.92811561  1  0  -0.228549  0  3.781056  0  0  -0.253281  0  4.039076  0  0  -0.257269  0  4.058633  0  0  -0.111007  -0.250535  0  4.025908  0
C  C48  1  0.34987534  0.57089193  0.92504295  1  0  0.08532  0  3.74182  0  0  0.104617  0  3.98106  0  0  0.104907  0  4.005933  0  0  -0.017406  0.104384  0  3.964179  0
C  C49  1  0.26690182  0.26548675  0.97161831  1  0  0.085439  0  3.736375  0  0  0.105582  0  3.974842  0  0  0.10585  0  3.999882  0  0  -0.016992  0.105375  0  3.957822  0
C  C50  1  0.13561852  0.13056958  0.52078594  1  0  -0.046548  0  3.738271  0  0  -0.026255  0  3.974131  0  0  -0.031863  0  3.994685  0  0  -0.014178  -0.022824  0  3.960475  0
C  C51  1  0.42575546  0.05789340  0.62217647  1  0  -0.134334  0  3.777942  0  0  -0.152945  0  4.025323  0  0  -0.156313  0  4.046069  0  0  -0.099728  -0.150619  0  4.011262  0
C  C52  1  0.06697223  0.21450293  0.46978083  1  0  0.637655  0  3.955387  0  0  0.583583  0  4.259799  0  0  0.61778  0  4.251983  0  0  0.198699  0.560448  0  4.264223  0
C  C53  1  0.44696487  0.19237377  0.96347468  1  0  -0.229532  0  3.782804  0  0  -0.253935  0  4.040402  0  0  -0.258098  0  4.060273  0  0  -0.11147  -0.251006  0  4.027011  0
C  C54  1  0.50939969  0.59391680  0.03295632  1  0  -0.325543  0  3.722884  0  0  -0.40336  0  3.954521  0  0  -0.405155  0  3.964809  0  0  -0.242432  -0.401816  0  3.947361  0
C  C55  1  0.97410694  0.05540330  0.52625832  1  0  -0.060686  0  3.726459  0  0  -0.08222  0  3.971775  0  0  -0.082114  0  3.991997  0  0  -0.082356  -0.082152  0  3.958099  0
C  C56  1  0.36306092  0.12974600  0.56654056  1  0  -0.058866  0  3.701024  0  0  -0.080419  0  3.948516  0  0  -0.080179  0  3.967083  0  0  -0.077774  -0.080414  0  3.935985  0
C  C57  1  0.26151325  0.98356891  0.62580903  1  0  0.088991  0  3.747432  0  0  0.10354  0  4.013444  0  0  0.107216  0  4.035828  0  0  -0.018639  0.100992  0  3.998311  0
C  C58  1  0.03652857  0.97976402  0.57678713  1  0  -0.134339  0  3.787638  0  0  -0.155471  0  4.042294  0  0  -0.1593  0  4.064008  0  0  -0.10049  -0.152848  0  4.027576  0
C  C59  1  0.05654762  0.43810941  0.08173848  1  0  -0.322758  0  3.714259  0  0  -0.3994  0  3.94594  0  0  -0.401372  0  3.957071  0  0  -0.246052  -0.397728  0  3.938279  0
C  C60  1  0.01530734  0.61422605  0.82680881  1  0  0.08864  0  3.823849  0  0  0.074765  0  4.074125  0  0  0.078715  0  4.096191  0  0  0.080586  0.072088  0  4.059312  0
C  C61  1  0.24015505  0.72253089  0.37886059  1  0  -0.051719  0  3.708388  0  0  -0.077895  0  3.962187  0  0  -0.076537  0  3.979474  0  0  -0.079973  -0.078636  0  3.950547  0
C  C62  1  0.85963886  0.72040456  0.28514884  1  0  -0.058222  0  3.735205  0  0  -0.078582  0  3.974528  0  0  -0.07778  0  3.994199  0  0  -0.08184  -0.078901  0  3.961211  0
C  C63  1  0.01393243  0.68113651  0.35213377  1  0  -0.060939  0  3.75093  0  0  -0.03746  0  3.981006  0  0  -0.044028  0  4.001307  0  0  -0.018074  -0.033385  0  3.967485  0
C  C64  1  0.75229616  0.96213652  0.98572457  1  0  -0.138595  0  3.719887  0  0  -0.17835  0  3.98147  0  0  -0.180295  0  3.995923  0  0  -0.170473  -0.176807  0  3.971441  0
C  C65  1  0.71022814  0.75983457  0.87981036  1  0  0.020195  0  3.640273  0  0  -0.043201  0  3.901157  0  0  -0.038569  0  3.913182  0  0  -0.050773  -0.046179  0  3.892911  0
C  C66  1  0.85301225  0.86074450  0.89679990  1  0  -0.138085  0  3.723689  0  0  -0.178769  0  3.985761  0  0  -0.181116  0  4.001132  0  0  -0.171473  -0.176992  0  3.97517  0
C  C67  1  0.89637572  0.06169555  0.99871720  1  0  0.01905  0  3.647116  0  0  -0.044625  0  3.90897  0  0  -0.040131  0  3.921093  0  0  -0.050077  -0.047504  0  3.900625  0
C  C68  1  0.93278674  0.59305683  0.39045323  1  0  0.635928  0  3.950731  0  0  0.585214  0  4.244783  0  0  0.61947  0  4.23787  0  0  0.193768  0.562075  0  4.248535  0
C  C69  1  0.30899252  0.80388783  0.34091471  1  0  -0.131188  0  3.776342  0  0  -0.151158  0  4.028355  0  0  -0.155517  0  4.05083  0  0  -0.100245  -0.148238  0  4.013175  0
C  C70  1  0.15406187  0.83944929  0.27151317  1  0  0.096329  0  3.73503  0  0  0.110738  0  4.00045  0  0  0.114495  0  4.02375  0  0  -0.016999  0.108179  0  3.984685  0
C  C71  1  0.92828971  0.79868216  0.24284047  1  0  -0.143699  0  3.790841  0  0  -0.1635  0  4.044717  0  0  -0.167679  0  4.065575  0  0  -0.105141  -0.160685  0  4.030606  0
C  C72  1  0.09379164  0.24669320  0.86920910  1  0  -0.326943  0  3.719048  0  0  -0.402317  0  3.948363  0  0  -0.40425  0  3.959047  0  0  -0.244531  -0.40069  0  3.940949  0
Br  Br73  1  0.34904550  0.88274208  0.69855919  1  0  -0.081243  0  1.25007  0  0  -0.065153  0  1.490624  0  0  -0.069241  0  1.48266  0  0  0.046935  -0.0622  0  1.496202  0
Br  Br74  1  0.25787593  0.94492434  0.21302514  1  0  -0.070641  0  1.213433  0  0  -0.054008  0  1.44361  0  0  -0.058035  0  1.436921  0  0  0.045835  -0.051083  0  1.448331  0
N  N75  1  0.76658905  0.30539430  0.24485664  1  0  -0.428389  0  3.188681  0  0  -0.357386  0  3.468866  0  0  -0.380147  0  3.483222  0  0  -0.350851  -0.341886  0  3.458681  0
N  N76  1  0.87807607  0.51925383  0.63849250  1  0  -0.416572  0  3.176372  0  0  -0.347256  0  3.454247  0  0  -0.369507  0  3.469446  0  0  -0.346836  -0.33207  0  3.443488  0
N  N77  1  0.81387505  0.66166515  0.80148879  1  0  -0.130027  0  3.523065  0  0  -0.038146  0  3.746543  0  0  -0.055142  0  3.77088  0  0  -0.245822  -0.02684  0  3.729845  0
N  N78  1  0.80379076  0.16140902  0.07990150  1  0  -0.126335  0  3.520655  0  0  -0.034625  0  3.743889  0  0  -0.051625  0  3.768096  0  0  -0.246038  -0.023319  0  3.727254  0
O  O79  1  0.86786008  0.25643977  0.49246096  1  0  -0.63183  0  1.953624  0  0  -0.568914  0  2.196687  0  0  -0.597617  0  2.185882  0  0  -0.328842  -0.548738  0  2.203281  0
O  O80  1  0.21297920  0.23885805  0.41020054  1  0  -0.657051  0  1.983301  0  0  -0.603001  0  2.210585  0  0  -0.627076  0  2.198091  0  0  -0.332466  -0.586027  0  2.218527  0
O  O81  1  0.08487454  0.52765193  0.40595037  1  0  -0.678093  0  2.034268  0  0  -0.609083  0  2.276013  0  0  -0.639082  0  2.265535  0  0  -0.331067  -0.587989  0  2.282374  0
O  O82  1  0.71951664  0.58487243  0.40224870  1  0  -0.629694  0  1.914585  0  0  -0.576585  0  2.143963  0  0  -0.602851  0  2.135238  0  0  -0.329996  -0.55812  0  2.149207  0
O  O83  1  0.42907842  0.42468008  0.47229237  1  0  -0.854074  0  1.875009  0  0  -0.790635  0  2.07754  0  0  -0.813813  0  2.043855  0  0  -0.597028  -0.774203  0  2.100774  0
