# generated using pymatgen
data_Ho2H27C39(NO5)3
_symmetry_space_group_name_H-M   'P 1'
_cell_length_a   12.74621362
_cell_length_b   13.53782777
_cell_length_c   13.90989678
_cell_angle_alpha   66.46906731
_cell_angle_beta   67.14058808
_cell_angle_gamma   77.34353986
_symmetry_Int_Tables_number   1
_chemical_formula_structural   Ho2H27C39(NO5)3
_chemical_formula_sum   'Ho4 H54 C78 N6 O30'
_cell_volume   2021.97880907
_cell_formula_units_Z   2
loop_
 _symmetry_equiv_pos_site_id
 _symmetry_equiv_pos_as_xyz
  1  'x, y, z'
loop_
 _atom_site_type_symbol
 _atom_site_label
 _atom_site_symmetry_multiplicity
 _atom_site_fract_x
 _atom_site_fract_y
 _atom_site_fract_z
 _atom_site_occupancy
 _atom_site_pbe_bader_charge
 _atom_site_pbe_bader_spin_density
 _atom_site_pbe_cm5_charge
 _atom_site_pbe_ddec_charge
 _atom_site_pbe_ddec_spin_density
 _atom_site_pbe_ddec_sum_bond_order
 _atom_site_pbe_magmom
Ho  Ho0  1  0.42548994  0.88469786  0.01035298  1  2.188918  0  1.549062  2.131263  0  2.175906  0
Ho  Ho1  1  0.57451208  0.11530697  0.98964210  1  2.188876  0  1.549031  2.131232  0  2.175999  0
Ho  Ho2  1  0.42988690  0.82189209  0.66269994  1  2.189306  0  1.538046  2.123976  0  2.138371  0
Ho  Ho3  1  0.57011307  0.17810627  0.33730412  1  2.189357  0  1.538042  2.123971  0  2.138326  0
H  H4  1  0.33578564  0.66240381  0.11206524  1  0.638976  0  0.282326  0.345796  0  1.017458  0
H  H5  1  0.66421193  0.33759293  0.88793598  1  0.639067  0  0.282317  0.345767  0  1.017501  0
H  H6  1  0.40364154  0.67759914  0.18268231  1  0.615385  0  0.322316  0.406933  0  0.887332  0
H  H7  1  0.59635590  0.32239922  0.81731761  1  0.61537  0  0.322329  0.406956  0  0.887297  0
H  H8  1  0.54478158  0.01496753  0.59772904  1  0.628107  0  0.305865  0.399527  0  0.932527  0
H  H9  1  0.45521578  0.98503163  0.40227420  1  0.628073  0  0.305883  0.399518  0  0.932529  0
H  H10  1  0.47164950  0.99811780  0.72999228  1  0.646954  0  0.306331  0.410687  0  0.920576  0
H  H11  1  0.52835120  0.00188218  0.27000801  1  0.646911  0  0.306327  0.41067  0  0.920603  0
H  H12  1  0.40792594  0.72251286  0.51481406  1  0.632889  0  0.342777  0.436171  0  0.840351  0
H  H13  1  0.59207566  0.27748631  0.48519199  1  0.632859  0  0.342768  0.436123  0  0.840387  0
H  H14  1  0.53508703  0.75898703  0.45630714  1  0.629767  0  0.312393  0.398597  0  0.928355  0
H  H15  1  0.46491643  0.24101053  0.54369312  1  0.629778  0  0.312434  0.398682  0  0.928248  0
H  H16  1  0.58518289  0.52913557  0.82500535  1  0.102141  0  0.122507  0.098846  0  0.982726  0
H  H17  1  0.41480928  0.47086440  0.17500372  1  0.101978  0  0.122537  0.098847  0  0.982795  0
H  H18  1  0.78491117  0.34920289  0.02164332  1  0.068763  0  0.11686  0.082369  0  1.013981  0
H  H19  1  0.21509332  0.65080275  0.97835416  1  0.068698  0  0.116852  0.082399  0  1.013874  0
H  H20  1  0.67773755  0.68118483  0.99631875  1  0.104909  0  0.11537  0.115666  0  1.001171  0
H  H21  1  0.32224952  0.31881513  0.00369069  1  0.105011  0  0.115373  0.115689  0  1.001212  0
H  H22  1  0.89031455  0.65075005  0.96492546  1  0.086957  0  0.095844  0.094445  0  1.056175  0
H  H23  1  0.10968801  0.34924831  0.03506978  1  0.087271  0  0.095868  0.094446  0  1.056185  0
H  H24  1  0.00599114  0.65483897  0.07052945  1  0.083417  0  0.096502  0.08711  0  1.039412  0
H  H25  1  0.99401385  0.34516102  0.92946287  1  0.083544  0  0.096481  0.087073  0  1.03948  0
H  H26  1  0.99344242  0.51025904  0.25505139  1  0.043  0  0.101415  0.097465  0  0.992195  0
H  H27  1  0.00656244  0.48974256  0.74493962  1  0.04289  0  0.10141  0.097451  0  0.992147  0
H  H28  1  0.85785736  0.36721385  0.33320698  1  0.076139  0  0.105409  0.105178  0  1.001521  0
H  H29  1  0.14214990  0.63278937  0.66678759  1  0.076167  0  0.105374  0.105111  0  1.001585  0
H  H30  1  0.34470755  0.08183060  0.25961805  1  0.094353  0  0.108835  0.11228  0  1.022899  0
H  H31  1  0.65528777  0.91816209  0.74039129  1  0.094345  0  0.108828  0.112279  0  1.022878  0
H  H32  1  0.23191748  0.19739014  0.37034362  1  0.089731  0  0.104544  0.108731  0  1.019045  0
H  H33  1  0.76807491  0.80260740  0.62966056  1  0.089739  0  0.10458  0.108793  0  1.01907  0
H  H34  1  0.03715268  0.27581321  0.36342190  1  0.062119  0  0.101285  0.097856  0  1.001169  0
H  H35  1  0.96284444  0.72418919  0.63657441  1  0.06212  0  0.101281  0.09786  0  1.001155  0
H  H36  1  0.96197920  0.24319530  0.24068892  1  0.086904  0  0.099235  0.101423  0  1.058931  0
H  H37  1  0.03801988  0.75680387  0.75930795  1  0.086946  0  0.099248  0.101436  0  1.058888  0
H  H38  1  0.21456681  0.13859142  0.96428100  1  0.090612  0  0.109762  0.075148  0  1.015322  0
H  H39  1  0.78543259  0.86140371  0.03572164  1  0.090595  0  0.109745  0.075118  0  1.015333  0
H  H40  1  0.92652121  0.12556468  0.90149269  1  0.109491  0  0.118169  0.097794  0  0.994485  0
H  H41  1  0.07348370  0.87443612  0.09850293  1  0.109418  0  0.118209  0.097843  0  0.994358  0
H  H42  1  0.88504506  0.13120993  0.22091250  1  0.129809  0  0.113888  0.11951  0  1.03174  0
H  H43  1  0.11494983  0.86878843  0.77908544  1  0.129832  0  0.113899  0.119509  0  1.031717  0
H  H44  1  0.84824464  0.02857091  0.44584394  1  0.111616  0  0.110044  0.117124  0  0.988829  0
H  H45  1  0.15176065  0.97142503  0.55415703  1  0.111529  0  0.110016  0.117051  0  0.98884  0
H  H46  1  0.05569944  0.96870559  0.39040310  1  0.067459  0  0.10143  0.100078  0  1.01405  0
H  H47  1  0.94430245  0.03129035  0.60959691  1  0.067568  0  0.101421  0.100076  0  1.014008  0
H  H48  1  0.12390229  0.81428459  0.32080000  1  0.091019  0  0.107286  0.114426  0  0.993648  0
H  H49  1  0.87610013  0.18571540  0.67919754  1  0.091047  0  0.107292  0.114465  0  0.993669  0
H  H50  1  0.98519398  0.72271277  0.30571981  1  0.076788  0  0.103147  0.102181  0  1.003926  0
H  H51  1  0.01480503  0.27728721  0.69428038  1  0.076823  0  0.103132  0.102152  0  1.003896  0
H  H52  1  0.80323653  0.60277409  0.44132946  1  0.072127  0  0.113255  0.082975  0  0.973296  0
H  H53  1  0.19676239  0.39722669  0.55867547  1  0.072199  0  0.113245  0.082949  0  0.973312  0
H  H54  1  0.57842023  0.63526491  0.27901264  1  0.076024  0  0.113856  0.089107  0  0.979913  0
H  H55  1  0.42157863  0.36473668  0.72098840  1  0.076096  0  0.113864  0.089137  0  0.979917  0
H  H56  1  0.70131740  0.92203968  0.24982934  1  0.14629  0  0.11847  0.12671  0  1.009501  0
H  H57  1  0.29868685  0.07795869  0.75016889  1  0.146301  0  0.118461  0.126692  0  1.00949  0
C  C58  1  0.56016938  0.71893011  0.85515481  1  1.628355  0  0.246777  0.679367  0  4.154084  0
C  C59  1  0.43982633  0.28106824  0.14485148  1  1.62817  0  0.246696  0.679175  0  4.154232  0
C  C60  1  0.62588079  0.61762171  0.90341616  1  0.003626  0  -0.009616  -0.080748  0  3.984053  0
C  C61  1  0.37411231  0.38237745  0.09659074  1  0.003116  0  -0.009578  -0.080613  0  3.984029  0
C  C62  1  0.62987034  0.52617444  0.87919977  1  0.47869  0  0.05364  0.064082  0  3.93199  0
C  C63  1  0.37012767  0.47382715  0.12080301  1  0.478744  0  0.053614  0.064061  0  3.93202  0
C  C64  1  0.73982132  0.42660975  0.98968208  1  0.50148  0  0.06468  0.078402  0  3.881313  0
C  C65  1  0.26017741  0.57339346  0.01031982  1  0.501482  0  0.064698  0.078358  0  3.881135  0
C  C66  1  0.74110308  0.51414230  0.01923794  1  0.085545  0  0.006267  0.043747  0  3.97524  0
C  C67  1  0.25889147  0.48586009  0.98076431  1  0.085798  0  0.006282  0.043775  0  3.975232  0
C  C68  1  0.68153263  0.61086398  0.97503862  1  -0.048911  0  -0.056509  -0.094049  0  3.892358  0
C  C69  1  0.31845771  0.38913760  0.02496975  1  -0.048559  0  -0.056513  -0.09411  0  3.892436  0
C  C70  1  0.80681462  0.50873094  0.08912411  1  -0.034458  0  0.003067  0.057905  0  3.946605  0
C  C71  1  0.19318786  0.49126824  0.91087372  1  -0.034536  0  0.003086  0.057969  0  3.946655  0
C  C72  1  0.88220747  0.58949194  0.04679373  1  -0.04591  0  -0.092833  -0.13522  0  3.968073  0
C  C73  1  0.11779672  0.41050723  0.95320277  1  -0.046957  0  -0.092859  -0.13524  0  3.968088  0
C  C74  1  0.94878645  0.59072605  0.10546131  1  -0.064583  0  -0.085455  -0.059066  0  4.001837  0
C  C75  1  0.05121656  0.40927717  0.89453260  1  -0.06374  0  -0.085443  -0.059029  0  4.001823  0
C  C76  1  0.94169043  0.51012024  0.20842860  1  0.015196  0  -0.090969  -0.086621  0  4.014561  0
C  C77  1  0.05830996  0.48988378  0.79156664  1  0.015377  0  -0.090945  -0.086606  0  4.0146  0
C  C78  1  0.86713525  0.42970001  0.25175721  1  -0.018404  0  -0.078819  -0.081428  0  3.990409  0
C  C79  1  0.13286343  0.57030401  0.74823936  1  -0.018405  0  -0.078825  -0.081391  0  3.990527  0
C  C80  1  0.79947650  0.42749875  0.19382903  1  -0.027709  0  -0.016957  -0.075423  0  3.914881  0
C  C81  1  0.20052081  0.57250122  0.80617175  1  -0.028038  0  -0.016932  -0.075443  0  3.91481  0
C  C82  1  0.71796646  0.34088858  0.24993843  1  1.522524  0  0.18507  0.567153  0  4.246414  0
C  C83  1  0.28203260  0.65911059  0.75006708  1  1.522527  0  0.185064  0.567199  0  4.246343  0
C  C84  1  0.29161036  0.02406944  0.12587168  1  1.535466  0  0.210822  0.618841  0  4.187848  0
C  C85  1  0.70839223  0.97592811  0.87413105  1  1.535537  0  0.21082  0.618714  0  4.187884  0
C  C86  1  0.21881361  0.09865712  0.18522548  1  -0.092707  0  -0.008767  -0.068544  0  3.924759  0
C  C87  1  0.78118395  0.90133962  0.81477862  1  -0.093033  0  -0.008733  -0.068277  0  3.924441  0
C  C88  1  0.26062217  0.11742851  0.25535257  1  -0.06095  0  -0.085565  -0.093014  0  3.951357  0
C  C89  1  0.73937474  0.88256580  0.74465199  1  -0.060798  0  -0.085567  -0.093004  0  3.951195  0
C  C90  1  0.19659764  0.18155443  0.31868445  1  -0.061207  0  -0.088956  -0.078123  0  4.003045  0
C  C91  1  0.80339665  0.81844069  0.68132072  1  -0.06122  0  -0.089061  -0.07842  0  4.00341  0
C  C92  1  0.08847160  0.22606672  0.31365573  1  -0.043747  0  -0.089242  -0.074152  0  4.017708  0
C  C93  1  0.91152486  0.77393325  0.68634391  1  -0.043713  0  -0.089158  -0.073962  0  4.01756  0
C  C94  1  0.04610630  0.20729817  0.24474146  1  -0.031933  0  -0.090659  -0.135562  0  3.978003  0
C  C95  1  0.95389179  0.79270262  0.75525729  1  -0.032079  0  -0.090688  -0.13563  0  3.977928  0
C  C96  1  0.10973219  0.14386117  0.17889914  1  0.068422  0  -0.001746  0.042124  0  3.984541  0
C  C97  1  0.89026512  0.85613881  0.82109948  1  0.068743  0  -0.001751  0.042052  0  3.984621  0
C  C98  1  0.05888880  0.13252613  0.10505414  1  -0.045558  0  -0.003065  0.022956  0  3.985273  0
C  C99  1  0.94110759  0.86747466  0.89494449  1  -0.045648  0  -0.003061  0.022898  0  3.985253  0
C  C100  1  0.12218457  0.13285657  0.99658346  1  0.507021  0  0.053294  0.060724  0  3.934398  0
C  C101  1  0.87781267  0.86714421  0.00341704  1  0.507442  0  0.053261  0.060729  0  3.934403  0
C  C102  1  0.96298024  0.12840165  0.95956454  1  0.58635  0  0.051382  0.073163  0  3.946597  0
C  C103  1  0.03701714  0.87159751  0.04043509  1  0.586232  0  0.05128  0.073019  0  3.946473  0
C  C104  1  0.89126383  0.12965029  0.06529540  1  -0.040367  0  -0.017597  -0.102382  0  3.98641  0
C  C105  1  0.10873362  0.87034807  0.93470237  1  -0.040337  0  -0.017571  -0.102286  0  3.986274  0
C  C106  1  0.94034117  0.13084444  0.13849186  1  -0.044306  0  -0.061391  -0.091089  0  3.88775  0
C  C107  1  0.05965542  0.86915392  0.86150764  1  -0.044312  0  -0.061437  -0.091117  0  3.88775  0
C  C108  1  0.76435428  0.13118919  0.09964179  1  1.583736  0  0.245405  0.678386  0  4.147401  0
C  C109  1  0.23564416  0.86881806  0.90034714  1  1.584392  0  0.245399  0.678234  0  4.14758  0
C  C110  1  0.67588669  0.93485978  0.46628813  1  1.569707  0  0.23699  0.649143  0  4.139771  0
C  C111  1  0.32412010  0.06513859  0.53371208  1  1.569178  0  0.236981  0.649105  0  4.139814  0
C  C112  1  0.79975130  0.90646649  0.41252076  1  -0.094418  0  -0.011783  -0.094613  0  3.91625  0
C  C113  1  0.20025465  0.09353188  0.58747687  1  -0.094282  0  -0.011825  -0.094686  0  3.91631  0
C  C114  1  0.87942735  0.96071706  0.41607645  1  -0.012774  0  -0.077767  -0.086531  0  3.973605  0
C  C115  1  0.12057664  0.03928454  0.58391918  1  -0.012194  0  -0.077755  -0.086412  0  3.973504  0
C  C116  1  0.99515273  0.92656101  0.38571284  1  -0.030164  0  -0.088445  -0.079976  0  3.999668  0
C  C117  1  0.00484982  0.07343736  0.61428456  1  -0.030818  0  -0.0884  -0.07994  0  3.9995  0
C  C118  1  0.03307595  0.83896800  0.34860946  1  -0.058506  0  -0.082  -0.059415  0  3.981268  0
C  C119  1  0.96692411  0.16102956  0.65139057  1  -0.058377  0  -0.082013  -0.059513  0  3.981281  0
C  C120  1  0.95493021  0.78694009  0.34093490  1  -0.056798  0  -0.086719  -0.13464  0  3.981541  0
C  C121  1  0.04507010  0.21305423  0.65906845  1  -0.056851  0  -0.086685  -0.134499  0  3.981439  0
C  C122  1  0.83800824  0.81931834  0.37237503  1  0.030211  0  0.001855  0.062577  0  3.96098  0
C  C123  1  0.16199274  0.18067841  0.62762427  1  0.030208  0  0.001805  0.062388  0  3.96111  0
C  C124  1  0.76117661  0.76939568  0.35078866  1  0.013559  0  0.002969  0.033202  0  4.001189  0
C  C125  1  0.23882167  0.23060268  0.64921169  1  0.013309  0  0.003013  0.03332  0  4.001214  0
C  C126  1  0.75463586  0.65736520  0.38806682  1  0.476757  0  0.050856  0.050271  0  3.941627  0
C  C127  1  0.24536164  0.34263235  0.61193484  1  0.476195  0  0.050847  0.05029  0  3.941706  0
C  C128  1  0.62907620  0.67476935  0.29924273  1  0.577505  0  0.04442  0.068682  0  3.971994  0
C  C129  1  0.37092254  0.32523386  0.70075702  1  0.577338  0  0.044438  0.068641  0  3.972043  0
C  C130  1  0.62798006  0.78818652  0.25790032  1  -0.095797  0  -0.026187  -0.122257  0  3.996897  0
C  C131  1  0.37202740  0.21181427  0.74209368  1  -0.095661  0  -0.02617  -0.122264  0  3.996851  0
C  C132  1  0.69655908  0.83490742  0.28359148  1  -0.034147  0  -0.059978  -0.096647  0  3.923219  0
C  C133  1  0.30344170  0.16509176  0.71640695  1  -0.033949  0  -0.059966  -0.096605  0  3.923083  0
C  C134  1  0.55989245  0.85933908  0.18488529  1  1.547977  0  0.231059  0.64449  0  4.153333  0
C  C135  1  0.44011921  0.14066253  0.81510547  1  1.547676  0  0.231045  0.644317  0  4.153399  0
N  N136  1  0.68520963  0.43207994  0.92232054  1  -1.23975  0  -0.304675  -0.230085  0  3.423711  0
N  N137  1  0.31478904  0.56792408  0.07768107  1  -1.239703  0  -0.304732  -0.230161  0  3.423725  0
N  N138  1  0.07665178  0.13020837  0.92561511  1  -1.225358  0  -0.320475  -0.26335  0  3.361435  0
N  N139  1  0.92334658  0.86978918  0.07438552  1  -1.225454  0  -0.320354  -0.263206  0  3.361408  0
N  N140  1  0.69031589  0.61050204  0.36363609  1  -1.186846  0  -0.328634  -0.2677  0  3.338822  0
N  N141  1  0.30968134  0.38949874  0.63636441  1  -1.186448  0  -0.328655  -0.267707  0  3.338821  0
O  O142  1  0.52212872  0.78407586  0.90840984  1  -1.217291  0  -0.435521  -0.720599  0  2.409188  0
O  O143  1  0.47786693  0.21592330  0.09159616  1  -1.217173  0  -0.43544  -0.720467  0  2.409284  0
O  O144  1  0.54745376  0.73355635  0.76472905  1  -1.179567  0  -0.391265  -0.651623  0  2.318332  0
O  O145  1  0.45253671  0.26644361  0.23528063  1  -1.179522  0  -0.391262  -0.651588  0  2.318221  0
O  O146  1  0.62749489  0.35567656  0.22550957  1  -1.179741  0  -0.391865  -0.644303  0  2.237535  0
O  O147  1  0.37250181  0.64432018  0.77449556  1  -1.179801  0  -0.391852  -0.644306  0  2.237575  0
O  O148  1  0.73922954  0.25263230  0.32319274  1  -1.187104  0  -0.375847  -0.640821  0  2.187004  0
O  O149  1  0.26076952  0.74736687  0.67681061  1  -1.187045  0  -0.375853  -0.640853  0  2.186945  0
O  O150  1  0.39393436  0.04817491  0.05853967  1  -1.220083  0  -0.448284  -0.784413  0  2.471073  0
O  O151  1  0.60606567  0.95183314  0.94146204  1  -1.220249  0  -0.448275  -0.78436  0  2.471251  0
O  O152  1  0.25617496  0.93693282  0.14201264  1  -1.154555  0  -0.349603  -0.590022  0  2.212809  0
O  O153  1  0.74383264  0.06306636  0.85798194  1  -1.154487  0  -0.349643  -0.590023  0  2.21272  0
O  O154  1  0.70464214  0.13690293  0.19498577  1  -1.211799  0  -0.421073  -0.692794  0  2.352814  0
O  O155  1  0.29534773  0.86310511  0.80500372  1  -1.211449  0  -0.421063  -0.692678  0  2.353036  0
O  O156  1  0.72420569  0.12815898  0.03083367  1  -1.188221  0  -0.407476  -0.655715  0  2.328147  0
O  O157  1  0.27579858  0.87184990  0.96915257  1  -1.18914  0  -0.407515  -0.655718  0  2.328121  0
O  O158  1  0.60978726  0.85888200  0.52245938  1  -1.193005  0  -0.377012  -0.640492  0  2.306454  0
O  O159  1  0.39022048  0.14111475  0.47754904  1  -1.192505  0  -0.376981  -0.640401  0  2.306362  0
O  O160  1  0.64402449  0.03364636  0.46004864  1  -1.208413  0  -0.401778  -0.700273  0  2.320802  0
O  O161  1  0.35598466  0.96635444  0.53994764  1  -1.208449  0  -0.401763  -0.700255  0  2.320945  0
O  O162  1  0.56302721  0.96164615  0.15621134  1  -1.183579  0  -0.371369  -0.665957  0  2.331259  0
O  O163  1  0.43698948  0.03835628  0.84378021  1  -1.183536  0  -0.37136  -0.66584  0  2.331361  0
O  O164  1  0.50481571  0.81562923  0.15539106  1  -1.200753  0  -0.375626  -0.650385  0  2.266567  0
O  O165  1  0.49519654  0.18437562  0.84459968  1  -1.200539  0  -0.375679  -0.650365  0  2.266495  0
O  O166  1  0.35639341  0.71604135  0.13640704  1  -1.255777  0  -0.643915  -0.840154  0  2.118543  0
O  O167  1  0.64360731  0.28395863  0.86359038  1  -1.255872  0  -0.643907  -0.840137  0  2.118597  0
O  O168  1  0.49049774  0.97140366  0.66813068  1  -1.268628  0  -0.65074  -0.880659  0  2.167317  0
O  O169  1  0.50950055  0.02859470  0.33187039  1  -1.268571  0  -0.650765  -0.880624  0  2.167272  0
O  O170  1  0.47070685  0.74130022  0.52579755  1  -1.228351  0  -0.618549  -0.825751  0  2.10027  0
O  O171  1  0.52929646  0.25869896  0.47420429  1  -1.228351  0  -0.618589  -0.825797  0  2.100267  0
