# generated using pymatgen
data_MnAg3H7C9N8O
_symmetry_space_group_name_H-M   'P 1'
_cell_length_a   7.28654083
_cell_length_b   7.79292316
_cell_length_c   15.92613479
_cell_angle_alpha   99.66382754
_cell_angle_beta   98.11661768
_cell_angle_gamma   89.95684669
_symmetry_Int_Tables_number   1
_chemical_formula_structural   MnAg3H7C9N8O
_chemical_formula_sum   'Mn2 Ag6 H14 C18 N16 O2'
_cell_volume   882.33352837
_cell_formula_units_Z   2
loop_
 _symmetry_equiv_pos_site_id
 _symmetry_equiv_pos_as_xyz
  1  'x, y, z'
loop_
 _atom_site_type_symbol
 _atom_site_label
 _atom_site_symmetry_multiplicity
 _atom_site_fract_x
 _atom_site_fract_y
 _atom_site_fract_z
 _atom_site_occupancy
 _atom_site_pbe_bader_charge
 _atom_site_pbe_bader_spin_density
 _atom_site_pbe_cm5_charge
 _atom_site_pbe_ddec_charge
 _atom_site_pbe_ddec_spin_density
 _atom_site_pbe_ddec_sum_bond_order
 _atom_site_pbe_magmom
Mn  Mn0  1  0.00011739  0.00021399  0.00000622  1  1.512223  4.478332  0.668468  0.834714  4.611451  2.631125  4.409
Mn  Mn1  1  0.49965981  0.99981029  0.49996745  1  1.546305  4.514655  0.646766  0.995762  4.644384  2.506444  4.452
Ag  Ag2  1  0.35317989  0.50931340  0.21908427  1  0.409255  0.008581  0.324614  0.164397  0.012406  2.638949  0.006
Ag  Ag3  1  0.56747166  0.61485576  0.08989739  1  0.430674  0.005762  0.342128  0.203425  0.007959  2.581338  0.004
Ag  Ag4  1  0.06622012  0.37801056  0.30963306  1  0.483409  0.00667  0.413223  0.287165  0.008618  2.319059  0.004
Ag  Ag5  1  0.64694986  0.49068052  0.78091786  1  0.408878  0.008526  0.324565  0.164123  0.012303  2.64001  0.006
Ag  Ag6  1  0.43250099  0.38516062  0.91010604  1  0.430788  0.005759  0.342101  0.203463  0.007959  2.580753  0.004
Ag  Ag7  1  0.93380109  0.62204641  0.69034232  1  0.483271  0.006648  0.413152  0.287103  0.008584  2.319517  0.004
H  H8  1  0.34807631  0.95143598  0.90718665  1  0.141356  0.001985  0.122112  0.113738  0.001063  1.002515  0.001
H  H9  1  0.92149797  0.10627096  0.66963609  1  0.095964  0.001053  0.120616  0.101552  0.000387  0.993181  0.0
H  H10  1  0.82601833  0.11817836  0.81673158  1  0.098345  0.001492  0.109862  0.087842  0.000799  1.048684  0.001
H  H11  1  0.51807704  0.92155373  0.69796378  1  0.478542  0.000222  0.310774  0.31794  -0.000199  0.962539  0.0
H  H12  1  0.56833305  0.89095755  0.80450592  1  0.477192  0.000295  0.301017  0.30315  8.5e-05  0.98113  0.0
H  H13  1  0.78492722  0.01985862  0.39735811  1  0.624267  0.001306  0.281458  0.338001  0.000823  1.026486  0.002
H  H14  1  0.83467364  0.16237916  0.48247460  1  0.603253  0.00399  0.323873  0.398067  0.002468  0.882539  0.002
H  H15  1  0.65198035  0.04858113  0.09280412  1  0.141544  0.001982  0.122081  0.113616  0.001061  1.002684  0.001
H  H16  1  0.07857440  0.89367285  0.33035727  1  0.095115  0.001052  0.120631  0.101529  0.000387  0.993247  0.0
H  H17  1  0.17402054  0.88191038  0.18327389  1  0.098142  0.00149  0.109778  0.087747  0.000797  1.048908  0.001
H  H18  1  0.48199495  0.07842389  0.30203499  1  0.477709  0.000221  0.31091  0.31807  -0.000201  0.9624  0.0
H  H19  1  0.43168759  0.10901291  0.19548645  1  0.477146  0.000298  0.301034  0.303152  8.8e-05  0.981148  0.0
H  H20  1  0.21491339  0.98005292  0.60266675  1  0.623923  0.001323  0.281477  0.33797  0.000837  1.026516  0.002
H  H21  1  0.16501938  0.83750807  0.51759488  1  0.601693  0.004019  0.323799  0.397624  0.002483  0.882962  0.002
C  C22  1  0.25338518  0.98924183  0.85437345  1  0.525885  0.007515  0.044204  -0.066011  0.006554  3.904398  0.005
C  C23  1  0.30898412  0.98314442  0.77180273  1  1.033384  0.001815  0.23394  0.4015  0.001175  4.111265  0.001
C  C24  1  0.01789232  0.07342728  0.72315194  1  0.502718  0.00107  0.045698  0.061099  0.000554  3.998828  0.0
C  C25  1  0.96386095  0.07892946  0.80365135  1  0.471  0.00435  0.018447  -0.027245  0.003354  3.988418  0.003
C  C26  1  0.34378649  0.73229059  0.03482916  1  0.786921  0.035657  -0.018371  -0.029146  0.030792  3.772986  0.028
C  C27  1  0.77027169  0.52321301  0.17168365  1  0.826586  0.001481  -0.007231  0.009224  0.000911  3.709159  0.001
C  C28  1  0.41320465  0.69630510  0.32496509  1  0.817913  0.034216  -0.014034  -0.002618  0.029306  3.764787  0.027
C  C29  1  0.26619284  0.31277642  0.12007999  1  0.776232  0.03986  -0.018361  -0.026354  0.034139  3.783557  0.03
C  C30  1  0.25109726  0.26798729  0.38890992  1  0.793441  0.031729  -0.023334  -0.053491  0.026734  3.837331  0.024
C  C31  1  0.74665030  0.01078321  0.14562243  1  0.525568  0.007494  0.044298  -0.065729  0.006534  3.904557  0.005
C  C32  1  0.69104996  0.01685995  0.22818433  1  1.034969  0.001809  0.233985  0.401274  0.001172  4.111603  0.001
C  C33  1  0.98216142  0.92661542  0.27686280  1  0.502541  0.001076  0.045655  0.06109  0.000559  3.998974  0.0
C  C34  1  0.03618383  0.92113029  0.19636345  1  0.474083  0.004336  0.018301  -0.027383  0.003341  3.98907  0.003
C  C35  1  0.65624794  0.26779426  0.96517684  1  0.786169  0.035762  -0.018086  -0.028632  0.030875  3.772665  0.028
C  C36  1  0.22972658  0.47683218  0.82830378  1  0.822901  0.001475  -0.007193  0.009035  0.000906  3.709411  0.001
C  C37  1  0.58688074  0.30368621  0.67505680  1  0.816811  0.03373  -0.014516  -0.002989  0.028861  3.765527  0.026
C  C38  1  0.73396176  0.68722243  0.87986628  1  0.776294  0.039498  -0.018405  -0.026308  0.033823  3.782691  0.03
C  C39  1  0.74887641  0.73201608  0.61109122  1  0.794109  0.031573  -0.023283  -0.053373  0.026602  3.837793  0.024
N  N40  1  0.20749777  0.19730960  0.06576493  1  -1.387547  0.048735  -0.352635  -0.337831  0.028774  3.328414  0.007
N  N41  1  0.21122598  0.80834222  0.01370574  1  -1.381067  0.048082  -0.349669  -0.319727  0.02779  3.344421  0.005
N  N42  1  0.08315610  0.03300143  0.86877081  1  -1.251339  0.052733  -0.299126  -0.176401  0.037613  3.558174  0.024
N  N43  1  0.18722165  0.02372311  0.70627964  1  -1.23384  0.00441  -0.30682  -0.313297  0.002756  3.343551  0.003
N  N44  1  0.48171884  0.93667151  0.75803461  1  -1.260526  0.001525  -0.570248  -0.611883  0.000843  3.365019  0.001
N  N45  1  0.43905980  0.80282389  0.38687765  1  -1.413232  0.04842  -0.354693  -0.351857  0.028887  3.328262  0.005
N  N46  1  0.36549775  0.19188358  0.42603963  1  -1.381279  0.047356  -0.351775  -0.350455  0.030496  3.331172  0.009
N  N47  1  0.87142086  0.47097631  0.22494890  1  -1.351705  0.001363  -0.417516  -0.285915  0.00069  3.587274  0.001
N  N48  1  0.79265157  0.80275999  0.93417190  1  -1.387116  0.048575  -0.352596  -0.338045  0.028796  3.325052  0.007
N  N49  1  0.78883594  0.19180716  0.98631958  1  -1.380057  0.048049  -0.349921  -0.32006  0.027765  3.344711  0.005
N  N50  1  0.91687873  0.96700254  0.13123389  1  -1.254108  0.052672  -0.299047  -0.176448  0.037597  3.55783  0.024
N  N51  1  0.81279404  0.97624236  0.29370495  1  -1.232678  0.004407  -0.306921  -0.313365  0.002756  3.343389  0.003
N  N52  1  0.51828680  0.06326142  0.24195068  1  -1.261387  0.001529  -0.570497  -0.612096  0.000847  3.365325  0.001
N  N53  1  0.56085470  0.19713855  0.61317070  1  -1.412199  0.048316  -0.354238  -0.351741  0.02894  3.325932  0.005
N  N54  1  0.63438597  0.80803938  0.57397995  1  -1.381622  0.047318  -0.351756  -0.350438  0.03051  3.331022  0.009
N  N55  1  0.12857542  0.52903259  0.77502830  1  -1.348366  0.00136  -0.417464  -0.285769  0.000689  3.587561  0.001
O  O56  1  0.77204042  0.05030099  0.46102418  1  -1.245415  0.062404  -0.565815  -0.749818  0.046658  2.153056  0.032
O  O57  1  0.22776447  0.94955389  0.53898320  1  -1.243033  0.062639  -0.565414  -0.748949  0.046856  2.155038  0.032
