# generated using pymatgen
data_CaH6C5(NO3)2
_symmetry_space_group_name_H-M   'P 1'
_cell_length_a   6.72198246
_cell_length_b   6.75096429
_cell_length_c   17.86181183
_cell_angle_alpha   90.00008695
_cell_angle_beta   89.99967074
_cell_angle_gamma   97.03176653
_symmetry_Int_Tables_number   1
_chemical_formula_structural   CaH6C5(NO3)2
_chemical_formula_sum   'Ca4 H24 C20 N8 O24'
_cell_volume   804.46985112
_cell_formula_units_Z   4
loop_
 _symmetry_equiv_pos_site_id
 _symmetry_equiv_pos_as_xyz
  1  'x, y, z'
loop_
 _atom_site_type_symbol
 _atom_site_label
 _atom_site_symmetry_multiplicity
 _atom_site_fract_x
 _atom_site_fract_y
 _atom_site_fract_z
 _atom_site_occupancy
 _atom_site_pbe_bader_charge
 _atom_site_pbe_bader_spin_density
 _atom_site_pbe_cm5_charge
 _atom_site_pbe_ddec_charge
 _atom_site_pbe_ddec_spin_density
 _atom_site_pbe_ddec_sum_bond_order
 _atom_site_pbe_magmom
Ca  Ca0  1  0.64962686  0.69969482  0.39268923  1  1.647384  0  0.877885  1.375164  0  1.473223  0
Ca  Ca1  1  0.35036517  0.80030518  0.89268764  1  1.647407  0  0.877906  1.375128  0  1.473278  0
Ca  Ca2  1  0.35037236  0.30031808  0.60731053  1  1.647479  0  0.877891  1.375187  0  1.473175  0
Ca  Ca3  1  0.64963099  0.19968235  0.10731212  1  1.647393  0  0.877884  1.375187  0  1.473168  0
H  H4  1  0.11640482  0.35198847  0.38170446  1  0.1518  0  0.144465  0.105721  0  0.991155  0
H  H5  1  0.88359140  0.14801741  0.88170127  1  0.151876  0  0.144442  0.105694  0  0.991282  0
H  H6  1  0.88358633  0.64804382  0.61829699  1  0.151843  0  0.144403  0.105666  0  0.991211  0
H  H7  1  0.11641747  0.85195225  0.11829738  1  0.151879  0  0.144391  0.105675  0  0.991193  0
H  H8  1  0.95357630  0.25765933  0.25449858  1  0.578803  0  0.314691  0.287613  0  0.997389  0
H  H9  1  0.04642679  0.24234046  0.75449735  1  0.578835  0  0.314664  0.287582  0  0.997421  0
H  H10  1  0.04641792  0.74234909  0.74550455  1  0.578811  0  0.31466  0.287574  0  0.997451  0
H  H11  1  0.95358014  0.75765008  0.24550353  1  0.579055  0  0.314672  0.287636  0  0.997417  0
H  H12  1  0.74003855  0.31990138  0.49019111  1  0.649269  0  0.309525  0.396367  0  0.928605  0
H  H13  1  0.25996382  0.18009500  0.99019261  1  0.64935  0  0.309498  0.396271  0  0.92874  0
H  H14  1  0.25995824  0.68011600  0.50980922  1  0.64886  0  0.309513  0.396416  0  0.928551  0
H  H15  1  0.74003125  0.81988357  0.00980716  1  0.648981  0  0.309546  0.396388  0  0.928581  0
H  H16  1  0.71342064  0.25538509  0.40478674  1  0.648124  0  0.30477  0.395582  0  0.938222  0
H  H17  1  0.28657903  0.24461267  0.90478843  1  0.648097  0  0.304683  0.395408  0  0.938452  0
H  H18  1  0.28657263  0.74462780  0.59521302  1  0.64806  0  0.304665  0.395511  0  0.938336  0
H  H19  1  0.71341861  0.75537486  0.09521133  1  0.648053  0  0.304717  0.395538  0  0.938297  0
H  H20  1  0.68571593  0.94487507  0.53431428  1  0.625252  0  0.307799  0.396034  0  0.931272  0
H  H21  1  0.31428108  0.55512540  0.03431392  1  0.625246  0  0.307783  0.395984  0  0.931335  0
H  H22  1  0.31428347  0.05513933  0.46568324  1  0.625476  0  0.307814  0.396033  0  0.931267  0
H  H23  1  0.68571210  0.44486212  0.96568361  1  0.625473  0  0.307816  0.396064  0  0.931232  0
H  H24  1  0.55338743  0.74120706  0.54536423  1  0.626814  0  0.302603  0.368629  0  0.977923  0
H  H25  1  0.44660479  0.75879082  0.04536307  1  0.626398  0  0.302571  0.368634  0  0.977911  0
H  H26  1  0.44660751  0.25880733  0.45463329  1  0.626797  0  0.302599  0.368646  0  0.9779  0
H  H27  1  0.55339380  0.24119224  0.95463502  1  0.626807  0  0.302589  0.368628  0  0.977923  0
C  C28  1  0.23775063  0.37475762  0.20531668  1  0.354888  0  0.094595  -0.008202  0  3.890241  0
C  C29  1  0.76225379  0.12524039  0.70531352  1  0.355074  0  0.09464  -0.008132  0  3.890209  0
C  C30  1  0.76224994  0.62524186  0.79468644  1  0.354945  0  0.094606  -0.008196  0  3.890202  0
C  C31  1  0.23774697  0.87476058  0.29468736  1  0.355033  0  0.094599  -0.008197  0  3.890148  0
C  C32  1  0.19037335  0.37858729  0.32803109  1  1.019119  0  0.160076  0.181347  0  3.941943  0
C  C33  1  0.80962270  0.12141664  0.82802887  1  1.019153  0  0.160164  0.181463  0  3.94205  0
C  C34  1  0.80962082  0.62143306  0.67197036  1  1.018356  0  0.160184  0.181513  0  3.941916  0
C  C35  1  0.19037904  0.87856792  0.17197202  1  1.018338  0  0.16019  0.181481  0  3.942045  0
C  C36  1  0.17751098  0.31853054  0.12694301  1  1.646426  0  0.232873  0.595449  0  4.253688  0
C  C37  1  0.82248445  0.18146611  0.62693938  1  1.646949  0  0.233002  0.595523  0  4.253557  0
C  C38  1  0.82247458  0.68145548  0.87306179  1  1.647048  0  0.233031  0.595602  0  4.253259  0
C  C39  1  0.17750773  0.81853782  0.37306151  1  1.646969  0  0.232948  0.595457  0  4.25359  0
C  C40  1  0.60702663  0.56166880  0.21413156  1  1.616223  0  0.229356  0.595712  0  4.221547  0
C  C41  1  0.39297634  0.93833372  0.71413093  1  1.616207  0  0.229322  0.595707  0  4.221466  0
C  C42  1  0.39298215  0.43832473  0.78587044  1  1.616233  0  0.229281  0.595755  0  4.221649  0
C  C43  1  0.60702031  0.06167023  0.28586884  1  1.616004  0  0.229351  0.595757  0  4.221728  0
C  C44  1  0.41102713  0.46387948  0.24174246  1  0.404222  0  0.082298  -0.02592  0  4.016859  0
C  C45  1  0.58897722  0.03611836  0.74174037  1  0.404201  0  0.08235  -0.025888  0  4.016894  0
C  C46  1  0.58897624  0.53611851  0.75825898  1  0.404177  0  0.082317  -0.025935  0  4.016978  0
C  C47  1  0.41102448  0.96387814  0.25826107  1  0.404135  0  0.082322  -0.025867  0  4.016868  0
N  N48  1  0.37777563  0.46416848  0.31811440  1  -1.236727  0  -0.371619  -0.410479  0  3.414793  0
N  N49  1  0.62222819  0.03583809  0.81811218  1  -1.236659  0  -0.37174  -0.410609  0  3.414959  0
N  N50  1  0.62222228  0.53584591  0.68188760  1  -1.235951  0  -0.371626  -0.410561  0  3.41499  0
N  N51  1  0.37777761  0.96415543  0.18188871  1  -1.235868  0  -0.371676  -0.410623  0  3.414989  0
N  N52  1  0.10164464  0.32586449  0.26195521  1  -1.293969  0  -0.359471  -0.213576  0  3.641296  0
N  N53  1  0.89835567  0.17413706  0.76195242  1  -1.294386  0  -0.359445  -0.213562  0  3.641252  0
N  N54  1  0.89835237  0.67414244  0.73804679  1  -1.294241  0  -0.35941  -0.213493  0  3.641231  0
N  N55  1  0.10164733  0.82585795  0.23804847  1  -1.294487  0  -0.359426  -0.21358  0  3.641402  0
O  O56  1  0.65695285  0.54471327  0.14580696  1  -1.221428  0  -0.354364  -0.613604  0  2.25045  0
O  O57  1  0.34304801  0.95529572  0.64580702  1  -1.221435  0  -0.354316  -0.613548  0  2.250427  0
O  O58  1  0.34305408  0.45527727  0.85419393  1  -1.221416  0  -0.354267  -0.613562  0  2.250642  0
O  O59  1  0.65694990  0.04471867  0.35419554  1  -1.221218  0  -0.354347  -0.613638  0  2.250526  0
O  O60  1  0.71796912  0.66039312  0.26259878  1  -1.208224  0  -0.344744  -0.591747  0  2.300532  0
O  O61  1  0.28203120  0.83961263  0.76259900  1  -1.208178  0  -0.344774  -0.591784  0  2.300542  0
O  O62  1  0.28203799  0.33959891  0.73740098  1  -1.208195  0  -0.344792  -0.591826  0  2.300556  0
O  O63  1  0.71796098  0.16039130  0.23740245  1  -1.208107  0  -0.344767  -0.591802  0  2.300724  0
O  O64  1  0.99356375  0.27907705  0.11372046  1  -1.202444  0  -0.366815  -0.594533  0  2.243129  0
O  O65  1  0.00645094  0.22093110  0.61371668  1  -1.202932  0  -0.366974  -0.59468  0  2.242861  0
O  O66  1  0.00644481  0.72092692  0.88628490  1  -1.202749  0  -0.366966  -0.59476  0  2.2427  0
O  O67  1  0.99355779  0.77907436  0.38628588  1  -1.202862  0  -0.366841  -0.594555  0  2.243145  0
O  O68  1  0.31591297  0.30849288  0.07759109  1  -1.22479  0  -0.343488  -0.646368  0  2.288638  0
O  O69  1  0.68409070  0.19149753  0.57759023  1  -1.224828  0  -0.343518  -0.646375  0  2.288809  0
O  O70  1  0.68408305  0.69148122  0.92241148  1  -1.224992  0  -0.343531  -0.646345  0  2.288781  0
O  O71  1  0.31591298  0.80851539  0.42241290  1  -1.224884  0  -0.343538  -0.646372  0  2.28864  0
O  O72  1  0.70706635  0.37055661  0.43978689  1  -1.31164  0  -0.597574  -0.805574  0  2.007722  0
O  O73  1  0.29293288  0.12943795  0.93978902  1  -1.311704  0  -0.597483  -0.805305  0  2.007921  0
O  O74  1  0.29292840  0.62945629  0.56021231  1  -1.311167  0  -0.597449  -0.805597  0  2.007698  0
O  O75  1  0.70705808  0.87054360  0.06021131  1  -1.311237  0  -0.597526  -0.805575  0  2.007735  0
O  O76  1  0.67731927  0.80236458  0.52040894  1  -1.269163  0  -0.622863  -0.787566  0  1.98766  0
O  O77  1  0.32267120  0.69763090  0.02040741  1  -1.268755  0  -0.622834  -0.787532  0  1.987692  0
O  O78  1  0.32267643  0.19764384  0.47959251  1  -1.269348  0  -0.622901  -0.787631  0  1.987556  0
O  O79  1  0.67732311  0.30235365  0.97959235  1  -1.269341  0  -0.622868  -0.787629  0  1.987486  0
