# generated using pymatgen
data_V2Co2H16C22N4O11
_symmetry_space_group_name_H-M   'P 1'
_cell_length_a   9.72144302
_cell_length_b   10.84653397
_cell_length_c   13.69856122
_cell_angle_alpha   99.03753918
_cell_angle_beta   106.55369667
_cell_angle_gamma   102.06488433
_symmetry_Int_Tables_number   1
_chemical_formula_structural   V2Co2H16C22N4O11
_chemical_formula_sum   'V4 Co4 H32 C44 N8 O22'
_cell_volume   1317.32643463
_cell_formula_units_Z   2
loop_
 _symmetry_equiv_pos_site_id
 _symmetry_equiv_pos_as_xyz
  1  'x, y, z'
loop_
 _atom_site_type_symbol
 _atom_site_label
 _atom_site_symmetry_multiplicity
 _atom_site_fract_x
 _atom_site_fract_y
 _atom_site_fract_z
 _atom_site_occupancy
 _atom_site_pbe_bader_charge
 _atom_site_pbe_bader_spin_density
 _atom_site_pbe_cm5_charge
 _atom_site_pbe_ddec_charge
 _atom_site_pbe_ddec_spin_density
 _atom_site_pbe_ddec_sum_bond_order
 _atom_site_pbe_magmom
V  V0  1  0.93242447  0.81683850  0.87888098  1  2.09531  0.014075  1.419583  1.95361  0.004091  3.499666  0.019
V  V1  1  0.06760593  0.18310834  0.12117164  1  2.09455  0.01413  1.420207  1.95418  0.004109  3.500623  0.019
V  V2  1  0.25956294  0.02710383  0.99785265  1  2.111741  0.045603  1.445283  1.986821  0.022055  3.412902  0.054
V  V3  1  0.74035266  0.97303516  0.00210955  1  2.11326  0.045611  1.445298  1.987465  0.022052  3.410883  0.054
Co  Co4  1  0.54529341  0.93936347  0.17846664  1  1.327598  2.561359  0.707855  1.021989  2.790748  2.572717  2.541
Co  Co5  1  0.45471336  0.06062722  0.82153159  1  1.327678  2.560959  0.707828  1.021903  2.790395  2.5744  2.54
Co  Co6  1  0.88278857  0.96248595  0.65427305  1  1.310592  2.615618  0.67454  0.980477  2.837845  2.428055  2.595
Co  Co7  1  0.11722965  0.03752458  0.34574624  1  1.310508  2.615584  0.674566  0.980686  2.837887  2.429241  2.595
H  H8  1  0.54088696  0.31160982  0.43858862  1  0.093309  0.001026  0.111011  0.118675  0.00046  1.025154  0.001
H  H9  1  0.45913956  0.68837855  0.56145022  1  0.093191  0.001025  0.111072  0.118939  0.00046  1.024811  0.001
H  H10  1  0.92409734  0.39525015  0.33268487  1  0.084212  0.000858  0.111877  0.120428  0.000382  1.006015  0.0
H  H11  1  0.07592752  0.60476130  0.66733214  1  0.084376  0.000857  0.111913  0.120471  0.000381  1.006198  0.0
H  H12  1  0.83570508  0.16870099  0.22793019  1  0.132414  0.001634  0.12469  0.086844  0.00028  1.036171  0.001
H  H13  1  0.16427351  0.83131324  0.77204567  1  0.13263  0.001632  0.124657  0.086584  0.000279  1.036424  0.001
H  H14  1  0.72632416  0.69809046  0.65963825  1  0.133661  0.001555  0.122211  0.087091  0.000389  1.027562  0.001
H  H15  1  0.27366120  0.30192191  0.34036857  1  0.133727  0.001558  0.122177  0.086951  0.000389  1.027771  0.001
H  H16  1  0.67032782  0.46759071  0.57035016  1  0.083271  0.00069  0.113296  0.124684  0.000301  0.988077  0.0
H  H17  1  0.32977499  0.53241496  0.42972885  1  0.082642  0.000692  0.113216  0.124617  0.000302  0.988214  0.0
H  H18  1  0.91048452  0.59673452  0.36672733  1  0.068879  0.000921  0.108403  0.116237  0.000373  1.00829  0.0
H  H19  1  0.08956161  0.40319679  0.63330922  1  0.068304  0.000922  0.108486  0.116419  0.000374  1.008163  0.0
H  H20  1  0.96257039  0.81973775  0.46890169  1  0.121791  0.001409  0.121639  0.098044  0.000243  1.021356  0.001
H  H21  1  0.03739669  0.18023710  0.53105177  1  0.120427  0.001412  0.121612  0.098016  0.000244  1.021403  0.001
H  H22  1  0.32950982  0.34767590  0.82762813  1  0.096586  0.000792  0.111746  0.121924  0.000209  1.016023  0.0
H  H23  1  0.67052667  0.65226658  0.17235927  1  0.096334  0.000792  0.111786  0.121986  0.000209  1.015993  0.0
H  H24  1  0.97033608  0.37459304  0.95029479  1  0.110996  0.00076  0.111184  0.115996  0.00035  1.021605  0.0
H  H25  1  0.02970161  0.62537737  0.04971071  1  0.109966  0.000761  0.111204  0.116057  0.00035  1.021697  0.0
H  H26  1  0.81656295  0.16974462  0.81815883  1  0.175252  0.001417  0.121429  0.098007  0.000172  1.03372  0.001
H  H27  1  0.18341010  0.83028936  0.18177501  1  0.174901  0.001417  0.121263  0.097909  0.000172  1.033787  0.001
H  H28  1  0.45923596  0.80091755  0.95660292  1  0.13502  0.001234  0.120852  0.084017  0.000125  1.048092  0.001
H  H29  1  0.54072236  0.19907622  0.04338302  1  0.135102  0.00123  0.120767  0.08395  0.00012  1.048115  0.001
H  H30  1  0.31472413  0.58384305  0.84179608  1  0.059099  0.000663  0.104747  0.10963  0.000294  1.019674  0.0
H  H31  1  0.68526883  0.41610738  0.15821643  1  0.058895  0.000663  0.104716  0.109645  0.000294  1.019593  0.0
H  H32  1  0.22129293  0.47222101  0.11111865  1  0.162339  0.0007  0.107327  0.14114  0.000333  1.046935  0.0
H  H33  1  0.77875487  0.52774147  0.88888397  1  0.162307  0.0007  0.107297  0.141041  0.000333  1.047244  0.0
H  H34  1  0.38215391  0.69248813  0.21684465  1  0.100937  0.001572  0.124994  0.10145  0.000416  0.972946  0.001
H  H35  1  0.61781142  0.30750899  0.78315914  1  0.100957  0.001572  0.125019  0.101481  0.000416  0.973029  0.001
H  H36  1  0.69498640  0.99046567  0.49351296  1  0.648882  -0.000102  0.315553  0.405732  -0.00044  0.88083  0.0
H  H37  1  0.30502112  0.00947634  0.50647405  1  0.649448  -0.000101  0.315532  0.405672  -0.000439  0.880807  0.0
H  H38  1  0.83808400  0.02551398  0.46072354  1  0.639356  0.001726  0.289154  0.380442  0.001123  0.96718  0.002
H  H39  1  0.16193446  0.97447498  0.53925765  1  0.639281  0.001729  0.289144  0.380321  0.001124  0.967323  0.002
C  C40  1  0.57140995  0.16078786  0.33356955  1  0.482804  -0.004575  0.114039  0.108426  -0.006677  3.968079  -0.003
C  C41  1  0.42860130  0.83921514  0.66644224  1  0.483189  -0.004579  0.113981  0.108499  -0.006676  3.967826  -0.003
C  C42  1  0.61195090  0.28591103  0.39455230  1  -0.022  0.004383  -0.070629  -0.160445  0.001967  3.892031  0.003
C  C43  1  0.38806627  0.71406182  0.60548695  1  -0.022465  0.00438  -0.070762  -0.161046  0.001965  3.891307  0.003
C  C44  1  0.73983712  0.37580205  0.39590306  1  -0.008422  -0.012806  0.008069  0.092616  -0.014319  3.98402  -0.008
C  C45  1  0.26016778  0.62416901  0.60413802  1  -0.008358  -0.012783  0.007887  0.092326  -0.014293  3.983723  -0.008
C  C46  1  0.82203848  0.33245017  0.33471259  1  0.050908  0.00333  -0.073331  -0.16487  0.001151  3.918459  0.003
C  C47  1  0.17796885  0.66753579  0.66531793  1  0.050761  0.003323  -0.073356  -0.164657  0.001146  3.919236  0.003
C  C48  1  0.77423198  0.20544038  0.27577008  1  0.435372  -0.007319  0.06063  0.126349  -0.008253  3.904022  -0.004
C  C49  1  0.22575361  0.79455064  0.72422933  1  0.434509  -0.007303  0.060647  0.126416  -0.008239  3.904236  -0.004
C  C50  1  0.43446129  0.05981669  0.32736648  1  1.603559  0.003976  0.222663  0.558126  0.002664  4.191805  0.003
C  C51  1  0.56551495  0.94018670  0.67261397  1  1.604037  0.003984  0.222602  0.558279  0.002674  4.1921  0.003
C  C52  1  0.76346174  0.67102819  0.59366301  1  0.475499  -0.002792  0.053085  0.113044  -0.003615  3.947548  -0.002
C  C53  1  0.23654476  0.32898956  0.40634927  1  0.474926  -0.002805  0.053009  0.113004  -0.003627  3.948067  -0.002
C  C54  1  0.73185049  0.54228731  0.54239845  1  -0.005554  0.000345  -0.081997  -0.177205  -0.000396  3.936099  0.001
C  C55  1  0.26815291  0.45771779  0.45761290  1  -0.005071  0.000361  -0.0818  -0.176813  -0.000382  3.936148  0.001
C  C56  1  0.78107496  0.51038114  0.45708581  1  -0.044278  -0.005035  0.008176  0.09853  -0.005761  3.997416  -0.003
C  C57  1  0.21893479  0.48959031  0.54293579  1  -0.044632  -0.005059  0.008312  0.098524  -0.005789  3.997349  -0.003
C  C58  1  0.86750627  0.61315837  0.43152675  1  -0.017593  0.000942  -0.083424  -0.173841  -5.4e-05  3.936119  0.001
C  C59  1  0.13248112  0.38681768  0.56848254  1  -0.016407  0.000954  -0.083603  -0.174134  -4.5e-05  3.936225  0.001
C  C60  1  0.89544272  0.73927612  0.48765043  1  0.495334  -0.001486  0.048387  0.104012  -0.002118  3.931198  -0.001
C  C61  1  0.10455530  0.26071085  0.51234563  1  0.49649  -0.001508  0.048485  0.104165  -0.002138  3.931228  -0.001
C  C62  1  0.12585377  0.19716736  0.76231598  1  0.469856  -0.006922  0.109837  0.103025  -0.008659  3.997684  -0.005
C  C63  1  0.87416437  0.80282477  0.23765611  1  0.470023  -0.006911  0.109887  0.103154  -0.008647  3.997491  -0.005
C  C64  1  0.21622908  0.31456633  0.82850747  1  0.042526  0.006919  -0.069985  -0.164652  0.003334  3.89967  0.005
C  C65  1  0.78377588  0.68543085  0.17146725  1  0.043167  0.006902  -0.070054  -0.164626  0.003325  3.900128  0.005
C  C66  1  0.16194597  0.38320011  0.89752411  1  -0.047435  -0.008941  0.016717  0.11141  -0.010026  3.956908  -0.006
C  C67  1  0.83805492  0.61680674  0.10245781  1  -0.047991  -0.008919  0.016913  0.111483  -0.010002  3.957028  -0.006
C  C68  1  0.01734978  0.32790717  0.89625189  1  -0.015862  0.007746  -0.067073  -0.148404  0.003878  3.895661  0.006
C  C69  1  0.98265105  0.67210390  0.10371820  1  -0.014923  0.007731  -0.067242  -0.148568  0.003871  3.895444  0.006
C  C70  1  0.93102413  0.21295977  0.82365906  1  0.462165  -0.006317  0.058397  0.115598  -0.007174  3.903397  -0.004
C  C71  1  0.06897589  0.78705650  0.17629921  1  0.462677  -0.006288  0.058638  0.115748  -0.007145  3.902945  -0.004
C  C72  1  0.18556874  0.11476027  0.69600402  1  1.56521  0.013546  0.214983  0.545738  0.009132  4.210219  0.012
C  C73  1  0.81442778  0.88524679  0.30397273  1  1.565803  0.013542  0.215071  0.545804  0.009135  4.210007  0.012
C  C74  1  0.40818921  0.72430699  0.98825903  1  0.456334  -0.006138  0.054807  0.108076  -0.007162  3.931024  -0.004
C  C75  1  0.59180404  0.27568778  0.01174163  1  0.457173  -0.006165  0.054806  0.108057  -0.007193  3.931284  -0.004
C  C76  1  0.32656692  0.60325672  0.92467989  1  -0.030735  0.003227  -0.079645  -0.164187  0.001377  3.927583  0.003
C  C77  1  0.67344113  0.39673372  0.07532731  1  -0.031032  0.003234  -0.079654  -0.164311  0.001381  3.927751  0.003
C  C78  1  0.25496277  0.50957386  0.96671201  1  -0.028436  -0.007866  0.016301  0.112456  -0.008821  3.962797  -0.005
C  C79  1  0.74506098  0.49040542  0.03330019  1  -0.027505  -0.007883  0.016214  0.11233  -0.008841  3.962634  -0.005
C  C80  1  0.27388888  0.54165354  0.07389827  1  0.031789  0.003598  -0.080196  -0.179853  0.00163  3.9045  0.003
C  C81  1  0.72614425  0.45832294  0.92610214  1  0.032088  0.003604  -0.080176  -0.179522  0.001633  3.904033  0.003
C  C82  1  0.36236355  0.66370982  0.13302287  1  0.451747  -0.005028  0.053169  0.098822  -0.005679  3.941338  -0.003
C  C83  1  0.63763280  0.33628783  0.86697805  1  0.451115  -0.005029  0.053054  0.098634  -0.00568  3.941464  -0.003
N  N84  1  0.65059759  0.12135830  0.27439347  1  -1.191199  0.050941  -0.320282  -0.252584  0.026242  3.568476  0.046
N  N85  1  0.34936338  0.87865427  0.72558251  1  -1.190733  0.050924  -0.320229  -0.25248  0.02623  3.568053  0.046
N  N86  1  0.84215072  0.76942688  0.56619525  1  -1.229554  0.048981  -0.319606  -0.244655  0.026503  3.517403  0.041
N  N87  1  0.15791395  0.23057765  0.43383701  1  -1.228906  0.049041  -0.319671  -0.244639  0.026542  3.517371  0.041
N  N88  1  0.98323203  0.14863148  0.75632177  1  -1.2016  0.054225  -0.312016  -0.255132  0.028204  3.525921  0.049
N  N89  1  0.01679045  0.85137311  0.24365803  1  -1.201779  0.054225  -0.312059  -0.255327  0.02821  3.525311  0.049
N  N90  1  0.42728828  0.75444648  0.09131019  1  -1.223128  0.048637  -0.327422  -0.255203  0.026313  3.590863  0.043
N  N91  1  0.57270762  0.24554901  0.90869910  1  -1.224169  0.048642  -0.327345  -0.255156  0.026311  3.591072  0.043
O  O92  1  0.41420992  0.94609404  0.27457855  1  -1.131531  0.085647  -0.293142  -0.525602  0.044218  2.315939  0.072
O  O93  1  0.58579976  0.05392892  0.72537957  1  -1.131528  0.085602  -0.293056  -0.525645  0.0442  2.315719  0.072
O  O94  1  0.35113883  0.09585292  0.37573281  1  -1.164501  0.057579  -0.304209  -0.549826  0.029411  2.364831  0.049
O  O95  1  0.64880466  0.90417028  0.62422096  1  -1.164838  0.057546  -0.304228  -0.549829  0.029398  2.364549  0.049
O  O96  1  0.09112394  0.01001438  0.63402617  1  -1.160371  0.085541  -0.300097  -0.553585  0.044082  2.388101  0.074
O  O97  1  0.90885700  0.99000654  0.36595475  1  -1.160449  0.085501  -0.300002  -0.553439  0.044062  2.387985  0.074
O  O98  1  0.32086230  0.14835548  0.70303057  1  -1.17319  0.031637  -0.314461  -0.562313  0.01554  2.268352  0.02
O  O99  1  0.67912330  0.85166037  0.29691471  1  -1.173631  0.03167  -0.314593  -0.562429  0.01554  2.268699  0.02
O  O100  1  0.91739997  0.89824481  0.78313673  1  -0.953908  0.071922  -0.616047  -0.898388  0.03912  1.986586  0.061
O  O101  1  0.08242070  0.10177686  0.21696175  1  -0.953458  0.072123  -0.616223  -0.898844  0.039226  1.988114  0.061
O  O102  1  0.90038488  0.66207271  0.82864030  1  -0.865916  0.007596  -0.622484  -0.775306  0.003471  1.462682  0.006
O  O103  1  0.09959478  0.33784388  0.17140357  1  -0.865527  0.007659  -0.6226  -0.775008  0.003504  1.462896  0.006
O  O104  1  0.19418712  0.15715096  0.05093740  1  -1.044351  0.003923  -0.696718  -0.995948  0.000968  1.853878  0.003
O  O105  1  0.80586954  0.84298478  0.94909901  1  -1.044362  0.003876  -0.696394  -0.995633  0.000937  1.853023  0.003
O  O106  1  0.12304397  0.87678437  0.96861547  1  -1.034585  0.006021  -0.688408  -0.982287  0.002248  1.895642  0.005
O  O107  1  0.87700002  0.12332666  0.03147855  1  -1.034886  0.006073  -0.688497  -0.982331  0.002274  1.895409  0.005
O  O108  1  0.41538730  0.01844024  0.08508154  1  -0.926191  0.086811  -0.607722  -0.850024  0.046249  1.954895  0.073
O  O109  1  0.58446355  0.98155224  0.91479275  1  -0.926457  0.087081  -0.607906  -0.85067  0.046371  1.956581  0.073
O  O110  1  0.70113903  0.94743065  0.11029698  1  -0.939671  0.076257  -0.604027  -0.85266  0.040866  1.927322  0.062
O  O111  1  0.29894835  0.05265257  0.88970480  1  -0.93878  0.076348  -0.604128  -0.852528  0.040918  1.927526  0.062
O  O112  1  0.79899937  0.04106294  0.52079607  1  -1.255253  0.057871  -0.573768  -0.762914  0.030394  2.129086  0.045
O  O113  1  0.20099423  0.95892278  0.47917488  1  -1.255638  0.057873  -0.573631  -0.762664  0.0304  2.129438  0.045
