# generated using pymatgen
data_NiH36C28N4O5
_symmetry_space_group_name_H-M   'P 1'
_cell_length_a   10.20141908
_cell_length_b   17.19491649
_cell_length_c   19.80941826
_cell_angle_alpha   66.02017770
_cell_angle_beta   85.52129568
_cell_angle_gamma   87.47819448
_symmetry_Int_Tables_number   1
_chemical_formula_structural   NiH36C28N4O5
_chemical_formula_sum   'Ni4 H144 C112 N16 O20'
_cell_volume   3164.92241017
_cell_formula_units_Z   4
loop_
 _symmetry_equiv_pos_site_id
 _symmetry_equiv_pos_as_xyz
  1  'x, y, z'
loop_
 _atom_site_type_symbol
 _atom_site_label
 _atom_site_symmetry_multiplicity
 _atom_site_fract_x
 _atom_site_fract_y
 _atom_site_fract_z
 _atom_site_occupancy
 _atom_site_pbe_bader_charge
 _atom_site_pbe_bader_spin_density
 _atom_site_pbe_cm5_charge
 _atom_site_pbe_ddec_charge
 _atom_site_pbe_ddec_spin_density
 _atom_site_pbe_ddec_sum_bond_order
 _atom_site_pbe_magmom
Ni  Ni0  1  0.00504455  0.79141362  0.21586265  1  1.134209  -1.528813  0.634607  0.725907  -1.754735  2.529326  -1.514
Ni  Ni1  1  0.99516244  0.20794439  0.78419216  1  1.137821  -1.528174  0.634168  0.723198  -1.755387  2.531139  -1.513
Ni  Ni2  1  0.98821170  0.22723348  0.28143535  1  0.964461  -9e-06  0.611122  0.510384  -5e-06  2.871405  0.0
Ni  Ni3  1  0.01138140  0.77308756  0.71301435  1  1.13751  -1.532137  0.634106  0.72785  -1.756254  2.523955  -1.517
H  H4  1  0.05147834  0.30831152  0.40780477  1  0.548707  -4e-06  0.284874  0.355422  2e-06  0.964861  0.0
H  H5  1  0.96200687  0.70412347  0.61897235  1  0.566259  -0.000757  0.301961  0.368568  -0.000664  0.933163  0.0
H  H6  1  0.14929042  0.24778822  0.38716868  1  0.639784  -1e-06  0.269463  0.356768  -3e-06  1.00105  0.0
H  H7  1  0.84440908  0.75942294  0.63797504  1  0.638519  0.000372  0.275281  0.359247  0.000368  1.004391  0.0
H  H8  1  0.94818016  0.80568290  0.08331605  1  0.598442  -0.000333  0.300142  0.369623  -0.000312  0.941559  0.0
H  H9  1  0.05149553  0.19306912  0.91704120  1  0.589401  -0.000362  0.299299  0.367697  -0.000313  0.944227  0.0
H  H10  1  0.83856853  0.76047650  0.14974770  1  0.642735  0.000382  0.273955  0.359923  0.000348  1.002954  0.0
H  H11  1  0.16180098  0.23790953  0.85069289  1  0.638156  0.000376  0.274132  0.359244  0.000352  1.004471  0.0
H  H12  1  0.08712700  0.35037526  0.13954792  1  0.1245  -9e-06  0.125898  0.101064  -5e-06  0.998404  0.0
H  H13  1  0.91692923  0.64152163  0.86033949  1  0.108121  -0.00169  0.121884  0.096912  -0.00054  0.994992  -0.001
H  H14  1  0.03841118  0.50571358  0.06529164  1  0.081748  -3.1e-05  0.11113  0.114157  -1e-05  0.990923  0.0
H  H15  1  0.96969222  0.48718897  0.93724590  1  0.084939  -0.001013  0.107345  0.109641  -0.000487  0.996258  0.0
H  H16  1  0.88703147  0.58427551  0.12380046  1  0.096569  -0.000345  0.113906  0.120906  -0.000246  0.975448  0.0
H  H17  1  0.12120403  0.40741217  0.87995028  1  0.087942  -0.000325  0.112052  0.119161  -0.000166  0.977246  0.0
H  H18  1  0.85929386  0.35165821  0.32115141  1  0.112553  4e-06  0.124788  0.098295  8e-06  0.994901  0.0
H  H19  1  0.14454708  0.63673247  0.68020396  1  0.069991  -0.001922  0.119285  0.088472  -0.00055  0.999055  -0.001
H  H20  1  0.78396297  0.49184794  0.32480335  1  -0.006361  1.1e-05  0.085711  0.049622  2.1e-05  1.009352  0.0
H  H21  1  0.22175448  0.49808824  0.67813183  1  0.029903  -1.1e-05  0.084331  0.047162  1e-05  1.011482  0.0
H  H22  1  0.79280845  0.58618859  0.24175626  1  0.089453  -3.1e-05  0.112349  0.104392  -1e-06  0.976784  0.0
H  H23  1  0.21808813  0.40438616  0.76177685  1  0.088193  -0.000267  0.111433  0.103291  -0.000113  0.979065  0.0
H  H24  1  0.58802519  0.63917644  0.23104849  1  0.069655  9e-06  0.104975  0.095718  1.8e-05  1.014379  0.0
H  H25  1  0.42251549  0.35661097  0.76945610  1  0.107767  2e-06  0.105375  0.095007  1.4e-05  1.015294  0.0
H  H26  1  0.54879930  0.56629393  0.32457611  1  -0.015316  -6e-06  0.083666  0.045936  -0.0  1.001426  0.0
H  H27  1  0.45938599  0.43025090  0.67593039  1  -0.013388  -1.5e-05  0.083339  0.045385  -3e-06  1.00178  0.0
H  H28  1  0.58268027  0.41027829  0.35504043  1  0.033747  -3e-06  0.085307  0.048774  -3e-06  0.987339  0.0
H  H29  1  0.41964719  0.58534461  0.64627911  1  -0.000874  -4.9e-05  0.083695  0.046658  -2.5e-05  0.988986  0.0
H  H30  1  0.63818213  0.37973851  0.28145783  1  0.044896  -3e-06  0.100936  0.080114  -2e-06  1.008508  0.0
H  H31  1  0.36289656  0.61514973  0.72006372  1  0.053523  -3.7e-05  0.101774  0.084183  -1.4e-05  1.008029  0.0
H  H32  1  0.09261327  0.07580554  0.26296514  1  0.120399  -1.1e-05  0.122294  0.094985  -3e-06  1.007943  0.0
H  H33  1  0.90878703  0.93405260  0.72911098  1  0.087634  -0.001934  0.117083  0.08893  -0.000651  1.004193  -0.001
H  H34  1  0.04042040  0.91939860  0.32957924  1  0.144767  -0.00022  0.108709  0.12804  -0.000167  1.038919  0.0
H  H35  1  0.96559127  0.08992437  0.66489371  1  0.151857  -0.001051  0.106079  0.125501  -0.000598  1.045256  -0.001
H  H36  1  0.89060592  0.87268793  0.44549242  1  0.082452  -0.000337  0.113267  0.118029  -0.000225  0.973484  0.0
H  H37  1  0.11745629  0.13717058  0.54949982  1  0.140943  -3.3e-05  0.109516  0.124522  5.5e-05  0.988927  0.0
H  H38  1  0.87678342  0.13290688  0.42311960  1  0.108655  5e-06  0.125298  0.102895  8e-06  0.989391  0.0
H  H39  1  0.12857509  0.87773760  0.57023586  1  0.081885  -0.002162  0.118088  0.093077  -0.000707  0.997808  -0.001
H  H40  1  0.80141711  0.90986359  0.55075824  1  0.084917  -0.000123  0.111442  0.104684  -5.2e-05  0.982639  0.0
H  H41  1  0.21154008  0.09899303  0.44510261  1  0.079734  -0.000213  0.111294  0.105401  -9.3e-05  0.981435  0.0
H  H42  1  0.79306078  0.01792420  0.53985964  1  0.009194  5e-06  0.090519  0.057367  2e-05  1.00078  0.0
H  H43  1  0.21602162  0.99083315  0.45600413  1  0.003927  -2.6e-05  0.085645  0.047926  -4e-06  1.007238  0.0
H  H44  1  0.56852138  0.97361595  0.59839720  1  -0.005441  -5e-06  0.087283  0.051417  3e-06  1.015469  0.0
H  H45  1  0.44070509  0.03203740  0.39840282  1  -0.011903  -1e-05  0.085202  0.04598  -3e-06  1.01936  0.0
H  H46  1  0.58895325  0.87332462  0.59205087  1  0.082585  3e-06  0.104433  0.092885  1.1e-05  1.012371  0.0
H  H47  1  0.42050560  0.13253674  0.40466097  1  0.101849  -9e-06  0.105039  0.092301  -5e-06  1.018523  0.0
H  H48  1  0.65536188  0.08925062  0.39643789  1  0.050248  -4e-06  0.098892  0.077086  -2e-06  1.01336  0.0
H  H49  1  0.35373914  0.91641307  0.59963478  1  0.066284  -2.3e-05  0.100927  0.081268  1e-05  1.009306  0.0
H  H50  1  0.61162264  0.10645076  0.47790408  1  0.015351  -2e-06  0.089408  0.054689  -3e-06  1.015075  0.0
H  H51  1  0.39794105  0.90023686  0.51784547  1  0.011669  -5.3e-05  0.08903  0.053754  -3.1e-05  1.015893  0.0
H  H52  1  0.43633768  0.43263752  0.21831591  1  0.014633  -1e-05  0.083756  0.044431  -3e-06  1.010655  0.0
H  H53  1  0.56661960  0.56539653  0.78225953  1  0.00926  -1.7e-05  0.084152  0.045603  -1e-06  1.00699  0.0
H  H54  1  0.39804258  0.35924771  0.31140157  1  0.134647  -8e-06  0.105217  0.097867  -5e-06  1.012789  0.0
H  H55  1  0.60239034  0.63934424  0.68920389  1  0.103586  -1.8e-05  0.104302  0.095611  -1e-05  1.003122  0.0
H  H56  1  0.34705921  0.61931558  0.25982801  1  0.029219  -1.8e-05  0.101133  0.081897  1e-05  1.008826  0.0
H  H57  1  0.66259445  0.37995674  0.73954685  1  0.045945  -1.6e-05  0.101347  0.082214  1.7e-05  1.011142  0.0
H  H58  1  0.40434211  0.58741476  0.18750910  1  0.022084  -4.3e-05  0.086467  0.052487  -2.2e-05  0.980304  0.0
H  H59  1  0.60414865  0.41057688  0.81245162  1  0.026475  -4.7e-05  0.086778  0.05289  -2.6e-05  0.979153  0.0
H  H60  1  0.19232697  0.41152928  0.30440063  1  0.055947  -0.000234  0.106475  0.088405  -0.000104  0.995146  0.0
H  H61  1  0.81105365  0.58925764  0.69440521  1  0.035929  -0.000307  0.104596  0.08428  -0.0001  0.995659  0.0
H  H62  1  0.20695513  0.49904427  0.21675512  1  0.018606  -1e-05  0.086664  0.05069  5e-06  1.007155  0.0
H  H63  1  0.79810021  0.50264106  0.78254275  1  0.022409  3e-06  0.088112  0.053417  2.4e-05  1.00479  0.0
H  H64  1  0.12542262  0.64154297  0.20046796  1  0.098827  -0.00205  0.122865  0.100397  -0.000663  0.985604  -0.001
H  H65  1  0.87820097  0.35910551  0.79964943  1  0.11966  -0.002029  0.123236  0.100822  -0.000654  0.984549  -0.001
H  H66  1  0.89403448  0.67811101  0.36578956  1  0.120652  -0.001821  0.122065  0.095908  -0.000592  0.999953  -0.001
H  H67  1  0.10516143  0.31998139  0.63414144  1  0.123506  -0.00182  0.123332  0.097445  -0.00059  0.99753  -0.001
H  H68  1  0.93589177  0.52802084  0.45657283  1  0.068729  -0.000977  0.105401  0.107877  -0.000463  1.018742  0.0
H  H69  1  0.06689992  0.47046474  0.54340639  1  0.094356  -0.00097  0.105087  0.107081  -0.000466  1.020114  0.0
H  H70  1  0.09613323  0.43590077  0.41733035  1  0.030333  9.1e-05  0.109105  0.107196  0.000126  0.991841  0.0
H  H71  1  0.91026134  0.56438851  0.58271388  1  0.05836  -0.000167  0.107098  0.105984  -2e-05  0.985278  0.0
H  H72  1  0.15791053  0.89342535  0.07648816  1  0.118334  -0.001986  0.121541  0.098134  -0.000624  0.992739  -0.001
H  H73  1  0.84504697  0.10532677  0.92432284  1  0.104133  -0.001985  0.121731  0.09797  -0.000614  0.991361  -0.001
H  H74  1  0.09993209  0.15638724  0.04123466  1  0.050254  -0.0004  0.108409  0.107949  -0.000167  0.98781  0.0
H  H75  1  0.89476828  0.84294386  0.95633286  1  0.080854  -0.000385  0.108131  0.107727  -0.000146  0.986652  0.0
H  H76  1  0.88821937  0.95191698  0.21686011  1  0.131901  -0.001538  0.120734  0.096626  -0.000483  1.011495  -0.001
H  H77  1  0.10724920  0.04716693  0.78062084  1  0.128521  -0.001547  0.121919  0.097853  -0.000483  1.010681  -0.001
H  H78  1  0.19356175  0.03943516  0.93816839  1  0.051297  -5e-05  0.106437  0.090647  2.1e-05  0.990926  0.0
H  H79  1  0.80688532  0.96029389  0.06107612  1  0.060397  -4.4e-05  0.105747  0.08982  2.5e-05  0.994541  0.0
H  H80  1  0.25258660  0.12225500  0.95873447  1  -0.000652  -0.000522  0.093978  0.062801  -0.000261  1.007951  0.0
H  H81  1  0.74745446  0.87701334  0.04121892  1  0.038961  -0.000499  0.093443  0.062484  -0.000252  1.008053  0.0
H  H82  1  0.46228873  0.09170292  0.90395352  1  0.002936  -1.5e-05  0.096216  0.070824  4e-06  1.007457  0.0
H  H83  1  0.53885422  0.90824075  0.09643684  1  0.004566  -1.4e-05  0.095787  0.070101  5e-06  1.007942  0.0
H  H84  1  0.38927521  0.00489361  0.89412096  1  0.014579  1e-06  0.102371  0.079551  1e-05  0.997238  0.0
H  H85  1  0.61087359  0.99628879  0.10487210  1  0.022287  0.0  0.102402  0.080078  6e-06  0.991677  0.0
H  H86  1  0.36682653  0.00990709  0.10287562  1  0.025114  4e-06  0.101136  0.076991  1.9e-05  0.998548  0.0
H  H87  1  0.63286277  0.98900619  0.89675029  1  0.028006  -0.0  0.101814  0.079445  1.7e-05  0.994414  0.0
H  H88  1  0.44758424  0.09534111  0.02751013  1  0.052693  -3.6e-05  0.093845  0.059951  -1.1e-05  1.012024  0.0
H  H89  1  0.55134213  0.90410296  0.97219736  1  0.046406  -3.4e-05  0.093585  0.060121  -1e-05  1.010707  0.0
H  H90  1  0.47679092  0.69667722  0.46689044  1  0.000806  -8e-05  0.090162  0.056765  -2.4e-05  0.960667  0.0
H  H91  1  0.52308905  0.30294352  0.53326769  1  0.00386  -7.8e-05  0.089474  0.055317  -2.5e-05  0.961352  0.0
H  H92  1  0.56635163  0.84124577  0.43805250  1  0.026531  -2.1e-05  0.08807  0.087246  -4e-06  0.996836  0.0
H  H93  1  0.43465633  0.15819585  0.56177513  1  0.040737  3e-06  0.088899  0.08945  1.1e-05  0.997676  0.0
H  H94  1  0.39237847  0.84314928  0.44552250  1  0.018577  -3.3e-05  0.084034  0.075508  -5e-06  1.016713  0.0
H  H95  1  0.60868275  0.15669698  0.55462983  1  0.002478  -2.3e-05  0.082732  0.072989  -0.0  1.020593  0.0
H  H96  1  0.26084299  0.74651053  0.40984265  1  0.029041  -0.000423  0.088336  0.089182  -0.000265  0.99285  0.0
H  H97  1  0.73922654  0.25351193  0.59030740  1  0.031184  -0.000407  0.089385  0.091499  -0.000255  0.990491  0.0
H  H98  1  0.34240609  0.67537560  0.37532718  1  0.018348  -4.8e-05  0.087093  0.086611  3.2e-05  0.986034  0.0
H  H99  1  0.65706020  0.32432472  0.62500732  1  0.021098  -4.7e-05  0.086778  0.086102  3.3e-05  0.987803  0.0
H  H100  1  0.59550771  0.67092354  0.36269973  1  0.019427  -5.4e-05  0.084584  0.077543  1e-06  1.016431  0.0
H  H101  1  0.40391801  0.32833370  0.63747179  1  0.024643  -5.3e-05  0.083773  0.076448  0.0  1.018576  0.0
H  H102  1  0.68619537  0.74069581  0.38706374  1  0.018843  -0.000186  0.088091  0.086177  -0.000128  0.999735  0.0
H  H103  1  0.31381566  0.25837885  0.61301952  1  0.02667  -0.00016  0.089827  0.089355  -0.000113  0.997749  0.0
H  H104  1  0.68829370  0.89723038  0.30972034  1  0.034669  -0.000236  0.089694  0.091477  -0.000176  1.004319  0.0
H  H105  1  0.31229304  0.10215963  0.68990987  1  0.051751  -0.000212  0.090425  0.092745  -0.000155  1.003717  0.0
H  H106  1  0.59775354  0.94197553  0.22945754  1  0.007746  -6.5e-05  0.084847  0.077958  5e-06  1.020666  0.0
H  H107  1  0.40239392  0.05719843  0.77034339  1  9.4e-05  -6.2e-05  0.084246  0.076586  9e-06  1.022928  0.0
H  H108  1  0.48086158  0.96668579  0.33428172  1  0.002094  -5.1e-05  0.085227  0.04585  -9e-06  1.018019  0.0
H  H109  1  0.52007515  0.03288505  0.66565608  1  -0.005934  -5.4e-05  0.085757  0.046671  -1.1e-05  1.016899  0.0
H  H110  1  0.46135708  0.73384825  0.24727027  1  0.031586  -0.000206  0.092789  0.096632  -0.000126  1.025389  0.0
H  H111  1  0.53856287  0.26508117  0.75325879  1  0.039806  -0.00021  0.092833  0.096719  -0.000132  1.029911  0.0
H  H112  1  0.46212792  0.84336809  0.19293176  1  0.027797  -0.000199  0.088801  0.090793  -0.000111  1.029544  0.0
H  H113  1  0.53796222  0.15549323  0.80714283  1  0.014238  -0.000203  0.0892  0.09102  -0.000111  1.03113  0.0
H  H114  1  0.26383531  0.90599934  0.33178289  1  0.015352  -0.000382  0.087855  0.084249  -0.00026  1.02303  0.0
H  H115  1  0.73698044  0.09367134  0.66838535  1  0.012808  -0.000372  0.088616  0.0858  -0.000256  1.020171  0.0
H  H116  1  0.34607776  0.94656360  0.24229995  1  0.00538  -3.2e-05  0.085966  0.08484  4.1e-05  0.995928  0.0
H  H117  1  0.65441194  0.05307821  0.75777567  1  -0.008936  -4e-05  0.085929  0.084224  3.6e-05  0.996763  0.0
H  H118  1  0.39028525  0.36192100  0.15203250  1  -0.013376  -2e-06  0.084221  0.077508  -0.0  1.017359  0.0
H  H119  1  0.59961219  0.63844123  0.85263889  1  0.027355  -5.6e-05  0.084032  0.076922  6e-06  1.014386  0.0
H  H120  1  0.28981816  0.30056266  0.12334844  1  0.005836  -2e-06  0.087309  0.084382  0.0  1.009529  0.0
H  H121  1  0.69218401  0.69878812  0.88630511  1  0.022926  -0.000195  0.087151  0.084645  -0.000141  1.001592  0.0
H  H122  1  0.38283910  0.08741314  0.26352771  1  0.014095  -0.0  0.08774  0.084349  3e-06  1.015159  0.0
H  H123  1  0.60781203  0.91282237  0.74237955  1  0.013205  -6.3e-05  0.088263  0.084878  8e-06  1.013084  0.0
H  H124  1  0.28540636  0.14276744  0.18750727  1  0.035932  1.5e-05  0.088412  0.088475  2.4e-05  1.008726  0.0
H  H125  1  0.69717542  0.85842837  0.82201670  1  0.007217  -0.000209  0.087448  0.087735  -0.00014  1.005026  0.0
H  H126  1  0.53665815  0.28372659  0.26203205  1  0.035741  -1e-06  0.092361  0.096511  0.0  1.026336  0.0
H  H127  1  0.46871216  0.71672508  0.73744153  1  0.033854  -0.000214  0.092878  0.096617  -0.000125  1.023898  0.0
H  H128  1  0.53388104  0.17204878  0.30635336  1  0.00961  -0.0  0.093223  0.096657  0.0  1.035411  0.0
H  H129  1  0.47210452  0.82813016  0.69341281  1  0.049099  -0.000144  0.093694  0.096189  -7.9e-05  1.027714  0.0
H  H130  1  0.48401503  0.07626723  0.14990473  1  0.030865  -4e-06  0.088135  0.047722  -3e-06  1.029853  0.0
H  H131  1  0.48975081  0.92339236  0.85289861  1  -0.011021  -5.7e-05  0.087554  0.04694  -1.4e-05  1.033075  0.0
H  H132  1  0.71202602  0.29245309  0.08481250  1  0.041418  -8e-06  0.089711  0.091441  -5e-06  0.999038  0.0
H  H133  1  0.26651280  0.70743191  0.90768628  1  0.02723  -0.000401  0.087676  0.086713  -0.000255  0.995448  0.0
H  H134  1  0.64043685  0.35568005  0.13041987  1  0.007556  -2e-06  0.087482  0.087577  0.0  0.981925  0.0
H  H135  1  0.34784440  0.64416400  0.86478892  1  0.011261  -5.1e-05  0.087885  0.088313  3.2e-05  0.982036  0.0
H  H136  1  0.39256147  0.21191534  0.05700514  1  -0.008688  -8e-06  0.08399  0.075708  5e-06  1.000798  0.0
H  H137  1  0.57615946  0.78758009  0.94832449  1  0.007755  -1.1e-05  0.084318  0.075788  4e-06  1.004954  0.0
H  H138  1  0.56594111  0.20737807  0.04222604  1  0.015705  -9e-06  0.089943  0.087886  -6e-06  0.982881  0.0
H  H139  1  0.40208324  0.79217401  0.95758444  1  0.026057  -3.3e-05  0.087641  0.085042  -8e-06  0.983564  0.0
H  H140  1  0.49154146  0.35015879  0.03793701  1  0.019877  0.0  0.092033  0.059984  2e-06  0.954573  0.0
H  H141  1  0.48117174  0.64953395  0.96366866  1  0.007228  -5.8e-05  0.090195  0.056132  -1.4e-05  0.957378  0.0
H  H142  1  0.70659371  0.13038238  0.15018362  1  0.038077  -1e-05  0.088937  0.086538  -9e-06  1.016661  0.0
H  H143  1  0.27257736  0.86848447  0.84364958  1  0.025379  -0.00043  0.087151  0.082787  -0.000289  1.020902  0.0
H  H144  1  0.63304916  0.08123291  0.24153219  1  0.017232  -5e-06  0.09025  0.09234  -1e-06  0.988437  0.0
H  H145  1  0.35572453  0.91875177  0.75502357  1  0.013746  -4.3e-05  0.091504  0.094365  3.6e-05  0.986199  0.0
H  H146  1  0.93464623  0.10954949  0.14985095  1  0.135623  -0.000729  0.108715  0.1317  -0.000345  1.047986  0.0
H  H147  1  0.05629514  0.89034782  0.84546705  1  0.145405  -0.001013  0.110265  0.126236  -0.000586  1.028327  0.0
C  C148  1  0.02464283  0.38817378  0.16210957  1  0.459816  -2.4e-05  0.051735  0.084122  -1.5e-05  3.903545  0.0
C  C149  1  0.98065202  0.60339093  0.83853115  1  0.505204  0.00464  0.048614  0.089402  0.005426  3.935135  0.003
C  C150  1  0.99577462  0.47389970  0.12179268  1  -0.045804  1.1e-05  -0.0851  -0.132977  2.7e-05  4.013746  0.0
C  C151  1  0.01147798  0.51824010  0.88045346  1  -0.073568  -0.004368  -0.088021  -0.13817  -0.002447  4.018158  -0.003
C  C152  1  0.91207740  0.51722220  0.15423676  1  -0.074872  -0.000101  -0.062404  -0.08016  -5.5e-05  3.925446  0.0
C  C153  1  0.09526191  0.47416187  0.84873183  1  -0.025926  0.006137  -0.064275  -0.079555  0.006732  3.928931  0.004
C  C154  1  0.86100413  0.47435208  0.22741429  1  0.047159  1.3e-05  0.000837  0.065834  3.1e-05  3.963291  0.0
C  C155  1  0.14477850  0.51595506  0.77519441  1  0.08822  -0.004613  -0.001555  0.062627  -0.002679  3.971469  -0.004
C  C156  1  0.89604116  0.38892085  0.26428885  1  0.429684  7e-06  0.045954  0.012493  1e-05  3.892022  0.0
C  C157  1  0.10725113  0.60075796  0.73735061  1  0.403861  0.00334  0.043145  0.021292  0.004077  3.935537  0.002
C  C158  1  0.76868160  0.51830452  0.26451711  1  0.330747  -1e-06  -0.064138  -0.10614  2.5e-05  3.970255  0.0
C  C159  1  0.23843145  0.47289029  0.73826738  1  0.281512  -0.000804  -0.064128  -0.104295  -0.000487  3.973945  -0.001
C  C160  1  0.54846198  0.57582767  0.26544616  1  0.324695  1.6e-05  -0.073203  -0.084588  2.2e-05  3.949663  0.0
C  C161  1  0.46019098  0.42047621  0.73510924  1  0.29303  -4.4e-05  -0.073265  -0.08489  -2.3e-05  3.958933  0.0
C  C162  1  0.57857080  0.42727028  0.29457432  1  0.25379  -4e-06  -0.071164  -0.076033  -2e-06  3.959755  0.0
C  C163  1  0.42420306  0.56841807  0.70672176  1  0.280844  -1.6e-05  -0.070794  -0.077325  -1.6e-05  3.954749  0.0
C  C164  1  0.03135554  0.05111261  0.31449617  1  0.412638  -4.7e-05  0.049237  0.079051  -1.3e-05  3.901741  0.0
C  C165  1  0.97258525  0.95859071  0.67836993  1  0.412924  0.003271  0.043005  0.079332  0.004169  3.942831  0.002
C  C166  1  0.00127575  0.96517129  0.35156905  1  -0.036781  -0.000226  -0.084954  -0.13619  -0.000104  3.982386  0.0
C  C167  1  0.00532819  0.04433469  0.64282910  1  -0.017995  -0.004925  -0.089797  -0.143329  -0.002848  3.987166  -0.004
C  C168  1  0.91841191  0.93923003  0.41604838  1  -0.063331  -0.000131  -0.061309  -0.073763  -8.8e-05  3.913938  0.0
C  C169  1  0.09013306  0.07051699  0.57905384  1  -0.076549  0.00498  -0.062271  -0.067563  0.005472  3.896979  0.003
C  C170  1  0.87147549  0.99896106  0.44373205  1  0.10089  9e-06  0.002001  0.063817  2.7e-05  3.969403  0.0
C  C171  1  0.13714269  0.01065984  0.55150823  1  -0.039211  -0.004907  -0.004836  0.054258  -0.002807  3.976966  -0.004
C  C172  1  0.90853160  0.08336563  0.40418079  1  0.427055  -1.6e-05  0.052753  0.03076  -5e-06  3.871991  0.0
C  C173  1  0.09651856  0.92681652  0.58971348  1  0.536695  0.002346  0.045409  0.034437  0.002928  3.919941  0.002
C  C174  1  0.77846874  0.97486792  0.51169288  1  0.286088  -9.3e-05  -0.064411  -0.110395  -4.1e-05  3.97189  0.0
C  C175  1  0.23166291  0.03360343  0.48444304  1  0.30001  -0.000796  -0.06403  -0.10696  -0.000496  3.97632  -0.001
C  C176  1  0.55705554  0.93960311  0.56193472  1  0.281133  1.2e-05  -0.072099  -0.082681  1.8e-05  3.945896  0.0
C  C177  1  0.45257393  0.06632655  0.43468028  1  0.287006  -8.7e-05  -0.072778  -0.082155  -5.7e-05  3.957735  0.0
C  C178  1  0.59662474  0.06377439  0.44958306  1  0.26807  -1.6e-05  -0.072737  -0.079912  -1e-05  3.956901  0.0
C  C179  1  0.41282919  0.94241167  0.54665058  1  0.267393  -4.6e-05  -0.071897  -0.077552  -3.6e-05  3.946306  0.0
C  C180  1  0.43725882  0.42275936  0.27748589  1  0.240198  -8.3e-05  -0.074748  -0.08407  -5.3e-05  3.954571  0.0
C  C181  1  0.56536967  0.57515942  0.72312893  1  0.26204  -8.4e-05  -0.072825  -0.079598  -5e-05  3.950777  0.0
C  C182  1  0.40725540  0.57123869  0.24786093  1  0.287197  -3.1e-05  -0.070933  -0.075599  -2.3e-05  3.951743  0.0
C  C183  1  0.60081059  0.42701085  0.75208313  1  0.25683  -3.1e-05  -0.072381  -0.076635  -2.5e-05  3.955494  0.0
C  C184  1  0.21788014  0.47929341  0.27707273  1  0.307562  -0.000808  -0.064135  -0.103563  -0.000505  3.982217  -0.001
C  C185  1  0.78672968  0.52136991  0.72243278  1  0.309414  -0.000834  -0.064079  -0.100226  -0.000509  3.985656  -0.001
C  C186  1  0.12359067  0.53104446  0.30518496  1  -0.004227  -0.004848  -0.003045  0.055605  -0.002756  3.972895  -0.004
C  C187  1  0.88108925  0.46936726  0.69468745  1  -0.004334  -0.004815  -0.003659  0.053573  -0.002748  3.978007  -0.004
C  C188  1  0.08846673  0.61377804  0.25835056  1  0.501968  0.002791  0.052484  0.044146  0.00346  3.887804  0.002
C  C189  1  0.91491375  0.38640352  0.74168257  1  0.434298  0.00274  0.053842  0.046065  0.003425  3.886657  0.002
C  C190  1  0.95747817  0.63401470  0.35092487  1  0.480646  0.004324  0.051245  0.090913  0.005217  3.929502  0.003
C  C191  1  0.04366575  0.36478569  0.64907215  1  0.407946  0.004261  0.05197  0.092799  0.005239  3.927231  0.003
C  C192  1  0.98335465  0.55124722  0.40089404  1  -0.071028  -0.004552  -0.090471  -0.140055  -0.002554  4.023932  -0.004
C  C193  1  0.01958372  0.44779389  0.59909177  1  0.013441  -0.00448  -0.090995  -0.140705  -0.002546  4.02574  -0.004
C  C194  1  0.06994148  0.49993308  0.37838437  1  0.007869  0.00574  -0.070513  -0.09517  0.006322  3.956044  0.004
C  C195  1  0.93484016  0.50001399  0.62156037  1  -0.00095  0.005718  -0.072183  -0.096633  0.006273  3.964867  0.003
C  C196  1  0.10691057  0.94321694  0.08958157  1  0.495456  0.0042  0.047093  0.035535  0.004861  3.907237  0.003
C  C197  1  0.89396855  0.05560713  0.91029453  1  0.438339  0.004045  0.048103  0.036184  0.004827  3.908892  0.003
C  C198  1  0.13744695  0.02874802  0.04797474  1  0.017904  -0.004851  -0.006792  0.051266  -0.002712  3.990382  -0.004
C  C199  1  0.86195764  0.97023112  0.95131303  1  0.043458  -0.00472  -0.00755  0.051107  -0.002667  3.990378  -0.004
C  C200  1  0.07520012  0.08912443  0.07041726  1  -0.098478  0.005541  -0.074854  -0.102476  0.006042  3.955753  0.003
C  C201  1  0.92100895  0.91000390  0.92758408  1  -0.122836  0.005484  -0.073801  -0.102747  0.005967  3.957895  0.003
C  C202  1  0.95795520  0.97672161  0.16872263  1  0.432636  0.003655  0.043279  0.079811  0.004355  3.925656  0.003
C  C203  1  0.03859624  0.02236409  0.82924041  1  0.446989  0.003495  0.045579  0.083155  0.004229  3.917417  0.003
C  C204  1  0.23525111  0.05256314  0.98209388  1  0.333311  -0.000837  -0.064607  -0.109872  -0.000498  3.987368  -0.001
C  C205  1  0.76485311  0.94670994  0.01749379  1  0.288937  -0.000836  -0.064787  -0.111689  -0.000495  3.989221  -0.001
C  C206  1  0.44214109  0.02261151  0.93198305  1  0.338446  -1.4e-05  -0.069047  -0.082882  -2e-06  3.953569  0.0
C  C207  1  0.55820718  0.97738233  0.06761814  1  0.333891  -1.2e-05  -0.06915  -0.081908  -2e-06  3.950162  0.0
C  C208  1  0.42850943  0.02595994  0.05106269  1  0.27368  -2.3e-05  -0.071295  -0.080174  -2e-06  3.953694  0.0
C  C209  1  0.57123425  0.97339980  0.94853111  1  0.284832  -2.6e-05  -0.070794  -0.079236  -3e-06  3.950057  0.0
C  C210  1  0.71553447  0.79124378  0.23832314  1  1.541796  0.002159  0.216707  0.568506  0.003268  4.101609  0.003
C  C211  1  0.28454787  0.20763806  0.76190671  1  1.534306  0.002139  0.217047  0.566902  0.003235  4.101199  0.003
C  C212  1  0.47475054  0.74633170  0.41013070  1  0.023538  -0.000196  -0.090396  0.046555  -9.1e-05  3.851294  0.0
C  C213  1  0.52530504  0.25323416  0.59000584  1  0.021666  -0.000204  -0.090236  0.048292  -9.5e-05  3.85065  0.0
C  C214  1  0.47850645  0.83458721  0.41195600  1  -0.041627  -1.6e-05  -0.166016  -0.211794  2.1e-05  3.889053  0.0
C  C215  1  0.52212138  0.16502928  0.58804745  1  -0.04364  -1.1e-05  -0.165798  -0.211724  2.9e-05  3.888147  0.0
C  C216  1  0.34777022  0.73877316  0.37644677  1  -0.020623  -0.000401  -0.159791  -0.216488  -0.00022  3.868829  0.0
C  C217  1  0.65213845  0.26097564  0.62372895  1  -0.023364  -0.000413  -0.160199  -0.21826  -0.00023  3.868902  0.0
C  C218  1  0.59507009  0.73474812  0.36328771  1  -0.030671  0.000181  -0.160812  -0.217273  0.000298  3.869597  0.0
C  C219  1  0.40475036  0.26452381  0.63684320  1  -0.040242  0.000179  -0.160426  -0.218673  0.000302  3.867648  0.0
C  C220  1  0.59298571  0.80356128  0.28305219  1  0.011714  -0.008372  -0.017225  0.040995  -0.005037  3.778004  -0.007
C  C221  1  0.40708363  0.19563777  0.71704719  1  0.012678  -0.00845  -0.017558  0.043412  -0.005084  3.774905  -0.007
C  C222  1  0.59688058  0.89181683  0.28606968  1  -0.018511  -9.7e-05  -0.163788  -0.220496  6e-06  3.874316  0.0
C  C223  1  0.40348425  0.10749629  0.71379018  1  -0.041194  -9.4e-05  -0.163169  -0.22022  1.6e-05  3.871986  0.0
C  C224  1  0.47697926  0.90347371  0.33279679  1  0.019246  -0.00014  -0.092777  0.041472  -2.6e-05  3.858866  0.0
C  C225  1  0.52373410  0.09607247  0.66716889  1  0.036807  -0.000129  -0.093179  0.040189  -2.1e-05  3.860094  0.0
C  C226  1  0.46525058  0.79596870  0.25014480  1  -0.018556  -0.00349  -0.166846  -0.233654  -0.002319  3.872952  -0.002
C  C227  1  0.53473041  0.20317317  0.75005022  1  -0.008677  -0.003522  -0.168473  -0.236012  -0.002344  3.875464  -0.002
C  C228  1  0.34478295  0.80810104  0.29656165  1  0.029224  -0.005512  -0.017266  0.045372  -0.003598  3.789814  -0.004
C  C229  1  0.65534838  0.19152805  0.70356198  1  0.026617  -0.005509  -0.017398  0.045933  -0.003598  3.789959  -0.004
C  C230  1  0.35022632  0.89670393  0.29892733  1  -0.020939  -0.000674  -0.161817  -0.217677  -0.000423  3.864402  0.0
C  C231  1  0.65038394  0.10291693  0.70113641  1  -0.003778  -0.000654  -0.161184  -0.217527  -0.000409  3.863802  0.0
C  C232  1  0.38509393  0.30154543  0.14542172  1  0.006015  -1e-06  -0.162353  -0.219864  -0.0  3.87676  0.0
C  C233  1  0.60085931  0.69842727  0.86028636  1  -0.051339  0.000153  -0.161776  -0.217048  0.00027  3.873307  0.0
C  C234  1  0.39262377  0.22556043  0.22163836  1  0.019749  -2e-06  -0.01234  0.048866  -1e-06  3.746154  0.0
C  C235  1  0.60066299  0.77484026  0.78404102  1  0.019159  -0.008245  -0.016781  0.042446  -0.004964  3.77988  -0.006
C  C236  1  0.38073451  0.14266644  0.20987933  1  -0.039413  1e-06  -0.164317  -0.22336  8e-06  3.875416  0.0
C  C237  1  0.60565810  0.85778170  0.79632346  1  -0.002991  -7e-06  -0.162941  -0.220524  0.000107  3.870381  0.0
C  C238  1  0.52729292  0.22576054  0.25252661  1  -0.0049  -0.0  -0.163242  -0.233928  0.0  3.838768  0.0
C  C239  1  0.47332446  0.77452942  0.74766617  1  -0.03123  -0.003463  -0.165612  -0.235935  -0.002293  3.868514  -0.002
C  C240  1  0.63989502  0.21940076  0.19838173  1  0.010748  -1e-06  -0.015231  0.045691  1e-06  3.773488  0.0
C  C241  1  0.35249777  0.78050690  0.79674640  1  0.024347  -0.005458  -0.017569  0.045012  -0.003551  3.791383  -0.004
C  C242  1  0.49308063  0.13616619  0.15650699  1  0.007907  -3e-06  -0.095075  0.035811  -0.0  3.868518  0.0
C  C243  1  0.48553840  0.86367438  0.84547193  1  0.04656  -0.000165  -0.094366  0.034805  -5e-05  3.863958  0.0
C  C244  1  0.62998840  0.29616951  0.12284938  1  -0.018009  -2e-06  -0.161692  -0.219416  -2e-06  3.878699  0.0
C  C245  1  0.35387074  0.70375026  0.87276414  1  -0.029445  -0.000382  -0.160268  -0.216015  -0.000191  3.869715  0.0
C  C246  1  0.48610839  0.21218930  0.08121880  1  -0.008507  2e-06  -0.163678  -0.20915  2e-06  3.89654  0.0
C  C247  1  0.48622708  0.78742728  0.92096955  1  -0.056059  -1.3e-05  -0.16534  -0.211375  2.3e-05  3.900058  0.0
C  C248  1  0.49761997  0.29535133  0.09165678  1  0.005935  -0.0  -0.091254  0.043606  -0.0  3.862071  0.0
C  C249  1  0.48043702  0.70440836  0.90965907  1  0.035089  -8.5e-05  -0.089913  0.045574  -1.5e-05  3.854265  0.0
C  C250  1  0.62533883  0.13598608  0.18783062  1  -0.043267  -1.3e-05  -0.162437  -0.221035  -9e-06  3.873218  0.0
C  C251  1  0.35894131  0.86353996  0.80870898  1  -0.02692  -0.000734  -0.161666  -0.218015  -0.00047  3.865987  0.0
C  C252  1  0.27464019  0.23152393  0.27330404  1  1.547519  -3e-06  0.223333  0.558389  -5e-06  4.088803  0.0
C  C253  1  0.72366074  0.77003763  0.73637400  1  1.543762  0.002485  0.219495  0.571775  0.00371  4.09415  0.004
C  C254  1  0.77995811  0.21880879  0.22131579  1  1.533323  -2.2e-05  0.205351  0.547968  -1.5e-05  4.090676  0.0
C  C255  1  0.22524226  0.77978011  0.76189433  1  1.507148  0.003722  0.199105  0.545025  0.005459  4.106166  0.006
C  C256  1  0.21769708  0.80145295  0.26407839  1  1.50533  0.003813  0.19947  0.54361  0.005629  4.103401  0.006
C  C257  1  0.78218991  0.19855733  0.73607435  1  1.499531  0.00382  0.200195  0.54303  0.005645  4.101815  0.006
C  C258  1  0.98337493  0.06317755  0.13124451  1  -0.0027  -0.004429  -0.084606  -0.124404  -0.00254  3.96603  -0.003
C  C259  1  0.01100556  0.93609789  0.86588604  1  -0.030962  -0.004637  -0.082255  -0.120612  -0.002616  3.970725  -0.004
N  N260  1  0.97462973  0.34638596  0.23214811  1  -1.168973  1.4e-05  -0.344105  -0.155271  1.7e-05  3.696114  0.0
N  N261  1  0.02819706  0.64406817  0.76796956  1  -1.229689  -0.06085  -0.335482  -0.224806  -0.035685  3.635991  -0.054
N  N262  1  0.63143845  0.51192508  0.25112989  1  -1.045344  -1.2e-05  -0.344637  -0.145504  -5e-06  3.478623  0.0
N  N263  1  0.37514157  0.48272298  0.75029351  1  -1.033568  -0.000276  -0.346455  -0.146756  -0.000145  3.486393  0.0
N  N264  1  0.98376080  0.10926815  0.33990327  1  -1.180829  -4e-06  -0.345006  -0.157882  5e-06  3.68418  0.0
N  N265  1  0.01826491  0.90060209  0.65246586  1  -1.217995  -0.068293  -0.33814  -0.217614  -0.040008  3.62061  -0.06
N  N266  1  0.64126213  0.97711335  0.49364707  1  -1.000931  -1e-05  -0.342167  -0.141699  1e-06  3.449672  0.0
N  N267  1  0.36897814  0.02936484  0.50291128  1  -1.010644  -0.00033  -0.342088  -0.137555  -0.000177  3.450065  0.0
N  N268  1  0.35417569  0.48657547  0.29178250  1  -1.011006  -0.000306  -0.346543  -0.150841  -0.000165  3.471738  0.0
N  N269  1  0.65074805  0.51258020  0.70825765  1  -1.003236  -0.000313  -0.347017  -0.155395  -0.00017  3.477733  0.0
N  N270  1  0.01008429  0.66475845  0.28088746  1  -1.204086  -0.065037  -0.331736  -0.202534  -0.038241  3.60083  -0.058
N  N271  1  0.99155306  0.33465809  0.71921156  1  -1.213691  -0.065585  -0.330615  -0.200892  -0.038567  3.597938  -0.058
N  N272  1  0.01968427  0.91755796  0.14858353  1  -1.244175  -0.063222  -0.33542  -0.231964  -0.037123  3.640879  -0.057
N  N273  1  0.97999424  0.08131557  0.85077742  1  -1.205068  -0.062486  -0.333987  -0.230437  -0.036766  3.634095  -0.056
N  N274  1  0.35822943  0.00414566  0.99973971  1  -1.01843  -0.000219  -0.347002  -0.145754  -0.000137  3.461785  0.0
N  N275  1  0.64186101  0.99517012  0.99982260  1  -1.022548  -0.000206  -0.346251  -0.145515  -0.000127  3.460023  0.0
O  O276  1  0.28803133  0.24177833  0.33147882  1  -1.184413  -2.9e-05  -0.298383  -0.521129  -1.6e-05  2.211858  0.0
O  O277  1  0.71290412  0.76155626  0.67611388  1  -1.184666  0.000138  -0.313236  -0.535131  0.001119  2.209769  0.0
O  O278  1  0.16357149  0.22479050  0.24868050  1  -1.101079  -1e-06  -0.308053  -0.499442  -2e-06  2.533313  0.0
O  O279  1  0.83250015  0.77569579  0.76178968  1  -1.150531  -0.081132  -0.318009  -0.549687  -0.045631  2.401282  -0.076
O  O280  1  0.82456890  0.80701783  0.25783615  1  -1.155669  -0.081559  -0.31881  -0.554575  -0.045831  2.405591  -0.076
O  O281  1  0.17554613  0.19183121  0.74245015  1  -1.15174  -0.081905  -0.317495  -0.551183  -0.045943  2.405575  -0.076
O  O282  1  0.70495327  0.76607405  0.18687014  1  -1.186243  7.3e-05  -0.318241  -0.539587  0.001065  2.193115  0.0
O  O283  1  0.29514212  0.23262478  0.81351743  1  -1.180533  2.9e-05  -0.318919  -0.540422  0.001032  2.193518  0.0
O  O284  1  0.10770111  0.81371607  0.29472367  1  -1.133705  -0.098428  -0.313479  -0.527703  -0.05512  2.21439  -0.088
O  O285  1  0.89230124  0.18706458  0.70513996  1  -1.129095  -0.099187  -0.310358  -0.522634  -0.055483  2.225691  -0.089
O  O286  1  0.21848076  0.78385754  0.20728851  1  -1.136903  -0.081966  -0.311764  -0.528393  -0.046131  2.188026  -0.074
O  O287  1  0.78132460  0.21563619  0.79315647  1  -1.136247  -0.082154  -0.31293  -0.529113  -0.046136  2.182364  -0.074
O  O288  1  0.87333897  0.21190020  0.17902153  1  -1.19141  -0.000105  -0.321839  -0.552162  -5.8e-05  2.17775  0.0
O  O289  1  0.11563933  0.78763662  0.79517349  1  -1.129484  -0.096919  -0.315722  -0.531814  -0.054333  2.206117  -0.087
O  O290  1  0.79820533  0.22620640  0.28307318  1  -1.075634  -2e-05  -0.30213  -0.479444  -1.1e-05  2.30326  0.0
O  O291  1  0.22595837  0.77034649  0.70113299  1  -1.140175  -0.079414  -0.311767  -0.532313  -0.044773  2.196028  -0.072
O  O292  1  0.07305096  0.24845470  0.42183625  1  -1.226724  -2.5e-05  -0.60815  -0.782697  -1.4e-05  1.928486  0.0
O  O293  1  0.94257362  0.76061901  0.61756382  1  -1.200752  -0.05898  -0.572189  -0.749983  -0.033565  2.126374  -0.05
O  O294  1  0.93692301  0.75808097  0.13135739  1  -1.232752  -0.060154  -0.575144  -0.753393  -0.034222  2.123773  -0.051
O  O295  1  0.06335229  0.24054559  0.86897505  1  -1.221276  -0.059263  -0.574544  -0.752076  -0.033756  2.129183  -0.05
