# generated using pymatgen
data_ZnH27C33N3O4
_symmetry_space_group_name_H-M   'P 1'
_cell_length_a   14.23876822
_cell_length_b   14.23865086
_cell_length_c   20.84003733
_cell_angle_alpha   105.96115286
_cell_angle_beta   108.31537629
_cell_angle_gamma   97.90724001
_symmetry_Int_Tables_number   1
_chemical_formula_structural   ZnH27C33N3O4
_chemical_formula_sum   'Zn4 H108 C132 N12 O16'
_cell_volume   3738.53410287
_cell_formula_units_Z   4
loop_
 _symmetry_equiv_pos_site_id
 _symmetry_equiv_pos_as_xyz
  1  'x, y, z'
loop_
 _atom_site_type_symbol
 _atom_site_label
 _atom_site_symmetry_multiplicity
 _atom_site_fract_x
 _atom_site_fract_y
 _atom_site_fract_z
 _atom_site_occupancy
 _atom_site_pbe_bader_charge
 _atom_site_pbe_bader_spin_density
 _atom_site_pbe_cm5_charge
 _atom_site_pbe_ddec_charge
 _atom_site_pbe_ddec_spin_density
 _atom_site_pbe_ddec_sum_bond_order
 _atom_site_pbe_magmom
Zn  Zn0  1  0.46612417  0.18342041  0.98415804  1  1.243857  0  0.691381  0.749964  0  2.394809  0
Zn  Zn1  1  0.69921404  0.48195445  0.51587640  1  1.245134  0  0.691456  0.750081  0  2.39502  0
Zn  Zn2  1  0.53387570  0.81657971  0.01584173  1  1.243792  0  0.691386  0.749976  0  2.394802  0
Zn  Zn3  1  0.30078599  0.51804509  0.48412353  1  1.245097  0  0.691446  0.750063  0  2.395022  0
H  H4  1  0.64205638  0.32538955  0.99594683  1  0.132572  0  0.118051  0.08696  0  1.022825  0
H  H5  1  0.82939367  0.64608629  0.50405235  1  0.116925  0  0.117847  0.086384  0  1.023343  0
H  H6  1  0.35794413  0.67461047  0.00405357  1  0.132573  0  0.11805  0.086959  0  1.022859  0
H  H7  1  0.17060636  0.35391325  0.49594758  1  0.116935  0  0.117835  0.086333  0  1.023352  0
H  H8  1  0.68271722  0.47599119  0.96171802  1  0.081966  0  0.111731  0.120047  0  0.981295  0
H  H9  1  0.01422406  0.72099525  0.53828492  1  0.086097  0  0.111884  0.120397  0  0.980547  0
H  H10  1  0.31728265  0.52400894  0.03828174  1  0.081967  0  0.111728  0.120038  0  0.981301  0
H  H11  1  0.98577572  0.27900535  0.46171551  1  0.086103  0  0.111893  0.120409  0  0.980529  0
H  H12  1  0.35950421  0.45055547  0.87079578  1  0.082048  0  0.115084  0.130529  0  0.974767  0
H  H13  1  0.07971908  0.48867624  0.62918335  1  0.098079  0  0.115008  0.130193  0  0.974549  0
H  H14  1  0.64049566  0.54944465  0.12920398  1  0.082047  0  0.115084  0.130541  0  0.97477  0
H  H15  1  0.92028038  0.51132330  0.37081675  1  0.098075  0  0.115011  0.130213  0  0.97456  0
H  H16  1  0.33199713  0.30174607  0.91204299  1  0.133754  0  0.119123  0.100576  0  1.011192  0
H  H17  1  0.88966753  0.41991109  0.58794296  1  0.138664  0  0.11888  0.100292  0  1.011259  0
H  H18  1  0.66800233  0.69825347  0.08795712  1  0.133779  0  0.1191  0.100524  0  1.011191  0
H  H19  1  0.11033225  0.58008951  0.41205746  1  0.138658  0  0.118889  0.100299  0  1.011236  0
H  H20  1  0.47870276  0.59644566  0.87697427  1  0.10651  0  0.099338  0.120998  0  0.999958  0
H  H21  1  0.21944855  0.60173433  0.62302925  1  0.119372  0  0.099446  0.12159  0  0.999342  0
H  H22  1  0.52129664  0.40355399  0.12302501  1  0.106516  0  0.099349  0.121036  0  0.999923  0
H  H23  1  0.78055132  0.39826579  0.37697051  1  0.119365  0  0.099449  0.121597  0  0.999337  0
H  H24  1  0.60797731  0.62506011  0.93504783  1  0.059481  0  0.095445  0.104221  0  1.001312  0
H  H25  1  0.18997241  0.67293328  0.56495617  1  0.029308  0  0.095968  0.105402  0  1.000092  0
H  H26  1  0.39202256  0.37494002  0.06495194  1  0.059478  0  0.095442  0.104219  0  1.001315  0
H  H27  1  0.81002794  0.32706733  0.43504408  1  0.029309  0  0.095969  0.105406  0  1.000092  0
H  H28  1  0.64741851  0.50557651  0.84049454  1  -0.000114  0  0.08519  0.069362  0  1.006351  0
H  H29  1  0.16508179  0.80694703  0.65951587  1  0.007617  0  0.08504  0.069056  0  1.00626  0
H  H30  1  0.35258152  0.49442303  0.15950538  1  -0.000105  0  0.085169  0.069331  0  1.006315  0
H  H31  1  0.83491808  0.19305309  0.34048390  1  0.007615  0  0.085047  0.069067  0  1.006254  0
H  H32  1  0.51934357  0.47234774  0.78167890  1  0.020182  0  0.086981  0.083311  0  1.02545  0
H  H33  1  0.19063972  0.73768028  0.71832747  1  0.040383  0  0.087442  0.083972  0  1.025475  0
H  H34  1  0.48065621  0.52765286  0.21832153  1  0.020141  0  0.086983  0.083315  0  1.025454  0
H  H35  1  0.80936032  0.26231927  0.28167246  1  0.040383  0  0.087451  0.083966  0  1.025459  0
H  H36  1  0.66368436  0.68282445  0.84141890  1  0.067395  0  0.095243  0.102161  0  1.022094  0
H  H37  1  0.34142361  0.82225693  0.65861427  1  0.068325  0  0.094932  0.101274  0  1.023283  0
H  H38  1  0.33631567  0.31717509  0.15858103  1  0.067392  0  0.095248  0.102168  0  1.022089  0
H  H39  1  0.65857674  0.17774368  0.34138598  1  0.068328  0  0.094926  0.101267  0  1.023292  0
H  H40  1  0.53283678  0.65436425  0.78757856  1  0.044836  0  0.101247  0.108869  0  0.962403  0
H  H41  1  0.36676749  0.74524877  0.71245996  1  0.042764  0  0.101163  0.109367  0  0.961691  0
H  H42  1  0.46716325  0.34563529  0.21242136  1  0.044827  0  0.101248  0.108879  0  0.962394  0
H  H43  1  0.63323303  0.25475125  0.28754045  1  0.042745  0  0.101166  0.10937  0  0.961706  0
H  H44  1  0.75096440  0.52867479  0.77929896  1  0.056104  0  0.108673  0.115434  0  0.993845  0
H  H45  1  0.24938763  0.97169608  0.72072183  1  0.068549  0  0.108387  0.115132  0  0.993665  0
H  H46  1  0.24903563  0.47132475  0.22070097  1  0.05609  0  0.108675  0.115435  0  0.993841  0
H  H47  1  0.75061167  0.02830404  0.27927811  1  0.068553  0  0.10839  0.115135  0  0.993664  0
H  H48  1  0.78168503  0.46866774  0.66507016  1  0.096907  0  0.117775  0.086914  0  0.996157  0
H  H49  1  0.30363444  0.11666717  0.83494334  1  0.089455  0  0.11786  0.086896  0  0.995808  0
H  H50  1  0.21831532  0.53133286  0.33493008  1  0.096904  0  0.117779  0.086925  0  0.996141  0
H  H51  1  0.69636591  0.88333343  0.16505690  1  0.08946  0  0.117865  0.086905  0  0.995802  0
H  H52  1  0.50491902  0.63961605  0.66582762  1  0.108695  0  0.113371  0.128554  0  1.004198  0
H  H53  1  0.47377235  0.83910898  0.83421200  1  0.117495  0  0.11389  0.129384  0  1.004815  0
H  H54  1  0.49508149  0.36038397  0.33417279  1  0.108691  0  0.113357  0.128536  0  1.004169  0
H  H55  1  0.52622768  0.16089056  0.16578793  1  0.117502  0  0.113895  0.129416  0  1.00479  0
H  H56  1  0.55155550  0.58310134  0.55906965  1  0.128337  0  0.120753  0.096561  0  1.015648  0
H  H57  1  0.52403899  0.99251303  0.94095443  1  0.131755  0  0.12136  0.097169  0  1.015948  0
H  H58  1  0.44844444  0.41689868  0.44093093  1  0.128325  0  0.120748  0.096562  0  1.015625  0
H  H59  1  0.47596031  0.00748709  0.05904552  1  0.131749  0  0.121366  0.097173  0  1.015966  0
H  H60  1  0.89986724  0.02916929  0.07676652  1  0.090892  0  0.108607  0.121528  0  0.995153  0
H  H61  1  0.45236637  0.82307477  0.42321458  1  0.082097  0  0.107981  0.121085  0  0.995944  0
H  H62  1  0.10013327  0.97083073  0.92323388  1  0.090886  0  0.108623  0.121551  0  0.99511  0
H  H63  1  0.54763366  0.17692477  0.57678534  1  0.082091  0  0.107976  0.121077  0  0.99595  0
H  H64  1  0.00190767  0.31357124  0.24946109  1  0.063137  0  0.101952  0.11048  0  1.003708  0
H  H65  1  0.56413529  0.75244212  0.25055422  1  0.068047  0  0.10189  0.110978  0  1.004187  0
H  H66  1  0.99809212  0.68642936  0.75053933  1  0.06314  0  0.101952  0.11048  0  1.003711  0
H  H67  1  0.43586475  0.24755742  0.74944571  1  0.068048  0  0.101886  0.110974  0  1.00418  0
H  H68  1  0.72757216  0.06262605  0.03130733  1  0.102238  0  0.103397  0.109059  0  1.018661  0
H  H69  1  0.53123462  0.69621488  0.46867140  1  0.098779  0  0.103473  0.109099  0  1.0184  0
H  H70  1  0.27242730  0.93737349  0.96869277  1  0.102233  0  0.103387  0.109038  0  1.018692  0
H  H71  1  0.46876589  0.30378515  0.53132901  1  0.098786  0  0.103484  0.109109  0  1.018398  0
H  H72  1  0.82870328  0.34768619  0.20137462  1  0.082933  0  0.104034  0.107263  0  1.003291  0
H  H73  1  0.64627897  0.62727082  0.29862079  1  0.092817  0  0.103436  0.107234  0  1.002798  0
H  H74  1  0.17129659  0.65231394  0.79862515  1  0.082943  0  0.104017  0.107251  0  1.003224  0
H  H75  1  0.35372033  0.37272930  0.70137916  1  0.092811  0  0.103445  0.107268  0  1.002791  0
H  H76  1  0.21964683  0.06873091  0.19480128  1  0.080808  0  0.102028  0.113152  0  1.007315  0
H  H77  1  0.37394913  0.02483672  0.30518604  1  0.046153  0  0.102544  0.114395  0  1.008123  0
H  H78  1  0.78035352  0.93126969  0.80519897  1  0.080815  0  0.102024  0.113139  0  1.007335  0
H  H79  1  0.62605122  0.97516388  0.69481420  1  0.046151  0  0.102543  0.11438  0  1.008136  0
H  H80  1  0.02713434  0.22866512  0.08403067  1  0.050164  0  0.099465  0.108558  0  1.023052  0
H  H81  1  0.64463236  0.94309790  0.41596874  1  0.08962  0  0.099306  0.108204  0  1.023301  0
H  H82  1  0.97286617  0.77133490  0.91596973  1  0.050146  0  0.099462  0.108535  0  1.023083  0
H  H83  1  0.35536751  0.05690222  0.58403102  1  0.089616  0  0.099308  0.108198  0  1.023312  0
H  H84  1  0.13021673  0.22997329  0.00761191  1  0.06516  0  0.101027  0.105433  0  0.999349  0
H  H85  1  0.72233924  0.12261266  0.49239186  1  0.065028  0  0.101192  0.105843  0  0.997991  0
H  H86  1  0.86978330  0.77002625  0.99238802  1  0.065162  0  0.101018  0.105411  0  0.999363  0
H  H87  1  0.27766137  0.87738689  0.50760788  1  0.065027  0  0.10119  0.10585  0  0.997997  0
H  H88  1  0.32444446  0.07622081  0.12068063  1  0.05232  0  0.101057  0.101301  0  1.0244  0
H  H89  1  0.45550801  0.20375942  0.37930257  1  0.084982  0  0.101283  0.101058  0  1.025419  0
H  H90  1  0.67555589  0.92377979  0.87931961  1  0.052323  0  0.101073  0.101338  0  1.02438  0
H  H91  1  0.54449234  0.79624118  0.62069768  1  0.08498  0  0.1013  0.101059  0  1.025465  0
H  H92  1  0.24963914  0.24416449  0.28946364  1  0.073668  0  0.09662  0.100797  0  1.047861  0
H  H93  1  0.45470888  0.96014774  0.21051725  1  0.094895  0  0.096537  0.100168  0  1.048421  0
H  H94  1  0.75036121  0.75583611  0.71053660  1  0.073681  0  0.096614  0.100786  0  1.047826  0
H  H95  1  0.54529163  0.03985229  0.78948315  1  0.094898  0  0.096538  0.100156  0  1.04846  0
H  H96  1  0.95629750  0.06178972  0.25003673  1  0.047411  0  0.10192  0.109732  0  1.009082  0
H  H97  1  0.31175101  0.70625200  0.24996788  1  0.078572  0  0.101777  0.109141  0  1.00805  0
H  H98  1  0.04370228  0.93821087  0.74996370  1  0.047412  0  0.101904  0.109707  0  1.009088  0
H  H99  1  0.68824903  0.29374755  0.75003205  1  0.078576  0  0.101781  0.109149  0  1.00804  0
H  H100  1  0.01914487  0.06004622  0.37517289  1  0.027634  0  0.096211  0.089218  0  0.999997  0
H  H101  1  0.18486067  0.64393674  0.12482896  1  0.036332  0  0.096669  0.090001  0  0.999434  0
H  H102  1  0.98085500  0.93995391  0.62482688  1  0.027633  0  0.096209  0.089209  0  1.000001  0
H  H103  1  0.81513904  0.35606396  0.87517065  1  0.036324  0  0.09665  0.089974  0  0.999409  0
H  H104  1  0.31162724  0.24401108  0.41497907  1  0.079745  0  0.098852  0.097356  0  1.029671  0
H  H105  1  0.32903049  0.89660601  0.08500038  1  0.083443  0  0.099294  0.098232  0  1.02995  0
H  H106  1  0.68837279  0.75598847  0.58502086  1  0.07975  0  0.098838  0.097296  0  1.029706  0
H  H107  1  0.67096938  0.10339411  0.91499939  1  0.083449  0  0.099268  0.098219  0  1.029987  0
H  H108  1  0.19851056  0.15046706  0.45804828  1  0.049713  0  0.097699  0.096819  0  1.001876  0
H  H109  1  0.19243098  0.74041977  0.04194871  1  0.061574  0  0.097616  0.096809  0  1.000901  0
H  H110  1  0.80148931  0.84953307  0.54195148  1  0.04971  0  0.097693  0.096814  0  1.001867  0
H  H111  1  0.80756962  0.25957978  0.95805103  1  0.06157  0  0.097633  0.096816  0  1.000917  0
C  C112  1  0.58190288  0.35557837  0.96807225  1  0.446579  0  0.049924  0.102118  0  3.94672  0
C  C113  1  0.88745543  0.61381783  0.53193681  1  0.452547  0  0.051015  0.103691  0  3.946204  0
C  C114  1  0.41809699  0.64442175  0.03192751  1  0.446543  0  0.049913  0.102087  0  3.946769  0
C  C115  1  0.11254445  0.38618229  0.46806295  1  0.452522  0  0.051013  0.103711  0  3.946246  0
C  C116  1  0.60342537  0.43910632  0.94856515  1  -0.04624  0  -0.081609  -0.18556  0  3.952042  0
C  C117  1  0.99049445  0.65485754  0.55143622  1  -0.06307  0  -0.082199  -0.187074  0  3.951181  0
C  C118  1  0.39657457  0.56089370  0.05143544  1  -0.046211  0  -0.081607  -0.185537  0  3.952025  0
C  C119  1  0.00950542  0.34514258  0.44856355  1  -0.063062  0  -0.082248  -0.187123  0  3.951237  0
C  C120  1  0.52395708  0.47630636  0.91300436  1  0.020836  0  0.021481  0.185277  0  3.939835  0
C  C121  1  0.06324422  0.61096356  0.58700560  1  0.03631  0  0.020612  0.185318  0  3.939415  0
C  C122  1  0.47604295  0.52369318  0.08699557  1  0.020913  0  0.021465  0.185266  0  3.939857  0
C  C123  1  0.93675565  0.38903657  0.41299417  1  0.036311  0  0.020677  0.185457  0  3.93933  0
C  C124  1  0.42426211  0.42460437  0.89807538  1  -0.006656  0  -0.082114  -0.189417  0  3.942307  0
C  C125  1  0.02647472  0.52614683  0.60190162  1  -0.053327  0  -0.081387  -0.187804  0  3.94216  0
C  C126  1  0.57573792  0.57539518  0.10192455  1  -0.006741  0  -0.082112  -0.189452  0  3.942298  0
C  C127  1  0.97352516  0.47385329  0.39809814  1  -0.053328  0  -0.08143  -0.187946  0  3.942205  0
C  C128  1  0.40793949  0.34187852  0.91989604  1  0.426892  0  0.044418  0.081515  0  3.961039  0
C  C129  1  0.92193465  0.48801476  0.58010395  1  0.443988  0  0.044092  0.080456  0  3.961938  0
C  C130  1  0.59206029  0.65812208  0.08010439  1  0.426869  0  0.044427  0.081551  0  3.960992  0
C  C131  1  0.07806570  0.51198585  0.41989630  1  0.444024  0  0.044117  0.08051  0  3.961877  0
C  C132  1  0.54599535  0.56530183  0.89026977  1  -0.053891  0  -0.161942  -0.222055  0  3.928744  0
C  C133  1  0.17499886  0.65573255  0.60973975  1  -0.028779  0  -0.161691  -0.223891  0  3.92908  0
C  C134  1  0.45400452  0.43469829  0.10973000  1  -0.053895  0  -0.161947  -0.222075  0  3.928718  0
C  C135  1  0.82500117  0.34426700  0.39026018  1  -0.028774  0  -0.161686  -0.223916  0  3.9291  0
C  C136  1  0.57889071  0.53479855  0.82569278  1  0.013085  0  -0.159134  -0.116934  0  3.92311  0
C  C137  1  0.20909162  0.75321428  0.67431774  1  -0.009654  0  -0.159392  -0.116738  0  3.922852  0
C  C138  1  0.42110980  0.46520147  0.17430763  1  0.013126  0  -0.159132  -0.116932  0  3.923124  0
C  C139  1  0.79090890  0.24678574  0.32568266  1  -0.00966  0  -0.159406  -0.116743  0  3.922829  0
C  C140  1  0.59977794  0.62241856  0.79891180  1  -0.008675  0  -0.155814  -0.200621  0  3.930981  0
C  C141  1  0.32350669  0.80086703  0.70111640  1  -0.02514  0  -0.155719  -0.200959  0  3.929973  0
C  C142  1  0.40022257  0.37758146  0.20108860  1  -0.008675  0  -0.155803  -0.200638  0  3.931038  0
C  C143  1  0.67649318  0.19913309  0.29888337  1  -0.02512  0  -0.15574  -0.200991  0  3.930012  0
C  C144  1  0.62479904  0.58998390  0.73277161  1  -0.011491  0  0.019282  0.176041  0  3.93269  0
C  C145  1  0.35717507  0.89203406  0.76724795  1  0.003897  0  0.019657  0.177621  0  3.931741  0
C  C146  1  0.37520099  0.41001564  0.26722831  1  -0.011499  0  0.019291  0.176053  0  3.93273  0
C  C147  1  0.64282480  0.10796606  0.23275181  1  0.003892  0  0.019662  0.177658  0  3.931742  0
C  C148  1  0.70410919  0.54160616  0.73148455  1  -0.105898  0  -0.08372  -0.186368  0  3.952677  0
C  C149  1  0.31012333  0.97266302  0.76854774  1  -0.056891  0  -0.083727  -0.18608  0  3.951335  0
C  C150  1  0.29589132  0.45839386  0.26851585  1  -0.1058  0  -0.083719  -0.186355  0  3.952715  0
C  C151  1  0.68987670  0.02733652  0.23145219  1  -0.05689  0  -0.083725  -0.186079  0  3.951318  0
C  C152  1  0.72277659  0.50910258  0.66862874  1  0.500024  0  0.045495  0.088089  0  3.985073  0
C  C153  1  0.34050287  0.05419864  0.83140778  1  0.48305  0  0.045149  0.087617  0  3.985232  0
C  C154  1  0.27722287  0.49089695  0.33137137  1  0.499961  0  0.045455  0.088025  0  3.984986  0
C  C155  1  0.65949700  0.94580148  0.16859198  1  0.483045  0  0.045147  0.087611  0  3.985235  0
C  C156  1  0.56871200  0.60430494  0.66934246  1  0.02629  0  -0.079528  -0.180673  0  3.912655  0
C  C157  1  0.43494520  0.89938631  0.83066866  1  0.026476  0  -0.080393  -0.18346  0  3.914863  0
C  C158  1  0.43128835  0.39569566  0.33065779  1  0.026299  0  -0.079532  -0.180657  0  3.912614  0
C  C159  1  0.56505531  0.10061372  0.16933174  1  0.026473  0  -0.080397  -0.183533  0  3.914856  0
C  C160  1  0.59302414  0.57143640  0.60874023  1  0.450623  0  0.052688  0.111503  0  3.912826  0
C  C161  1  0.46272145  0.98432979  0.89127503  1  0.43083  0  0.052696  0.111651  0  3.912509  0
C  C162  1  0.40697589  0.42856314  0.39125969  1  0.450619  0  0.052693  0.111498  0  3.912769  0
C  C163  1  0.53727842  0.01567033  0.10872473  1  0.430831  0  0.052697  0.111672  0  3.912458  0
C  C164  1  0.96062077  0.16989131  0.16545497  1  0.295722  0  0.09187  0.178671  0  4.04425  0
C  C165  1  0.50445359  0.79517711  0.33455220  1  0.287445  0  0.090804  0.17898  0  4.043482  0
C  C166  1  0.03937668  0.83010678  0.83454388  1  0.296111  0  0.091902  0.178699  0  4.044285  0
C  C167  1  0.49554571  0.20482301  0.66544775  1  0.28746  0  0.090805  0.178979  0  4.043442  0
C  C168  1  0.88390914  0.09869678  0.10409636  1  -0.011043  0  -0.092717  -0.170286  0  3.977737  0
C  C169  1  0.49458696  0.77979561  0.39589976  1  -0.001004  0  -0.091556  -0.169933  0  3.976765  0
C  C170  1  0.11609016  0.90130334  0.89590359  1  -0.011337  0  -0.092718  -0.17029  0  3.977639  0
C  C171  1  0.50541307  0.22020393  0.60410017  1  -0.001018  0  -0.09156  -0.16994  0  3.976775  0
C  C172  1  0.94127256  0.25934040  0.20149594  1  -0.012851  0  -0.095653  -0.17652  0  4.000718  0
C  C173  1  0.55783057  0.73975360  0.29850164  1  -0.016866  0  -0.094797  -0.177398  0  4.00036  0
C  C174  1  0.05872747  0.74065914  0.79850398  1  -0.012875  0  -0.095667  -0.176533  0  4.000707  0
C  C175  1  0.44216873  0.26024652  0.70149831  1  -0.01688  0  -0.094822  -0.177396  0  4.000381  0
C  C176  1  0.78835612  0.11770476  0.07851695  1  -0.009029  0  -0.082589  -0.073499  0  3.965807  0
C  C177  1  0.53914306  0.70979955  0.42146934  1  -0.040903  0  -0.083018  -0.073817  0  3.966253  0
C  C178  1  0.21164424  0.88229584  0.92148329  1  -0.009046  0  -0.082554  -0.073446  0  3.96577  0
C  C179  1  0.46085745  0.29020048  0.57853107  1  -0.040895  0  -0.083013  -0.073808  0  3.966236  0
C  C180  1  0.84568926  0.27808395  0.17524508  1  -0.070814  0  -0.089532  -0.093419  0  4.019499  0
C  C181  1  0.60277075  0.67037188  0.32471518  1  -0.055579  0  -0.08933  -0.093497  0  4.0171  0
C  C182  1  0.15431052  0.72191665  0.82475535  1  -0.07081  0  -0.089505  -0.093409  0  4.01941  0
C  C183  1  0.39722912  0.32962824  0.67528458  1  -0.055573  0  -0.089327  -0.093552  0  4.017181  0
C  C184  1  0.76862327  0.20768494  0.11358563  1  -0.07992  0  -0.024393  -0.045803  0  3.983326  0
C  C185  1  0.59405059  0.65498954  0.38639008  1  -0.045299  0  -0.023672  -0.044403  0  3.982185  0
C  C186  1  0.23137724  0.79231508  0.88641477  1  -0.079947  0  -0.024427  -0.04583  0  3.983265  0
C  C187  1  0.40594977  0.34501106  0.61361017  1  -0.045309  0  -0.023659  -0.044386  0  3.982179  0
C  C188  1  0.66625172  0.22954893  0.08565563  1  1.575702  0  0.191999  0.555365  0  4.258239  0
C  C189  1  0.64382402  0.58051045  0.41431712  1  1.56301  0  0.190606  0.551638  0  4.264175  0
C  C190  1  0.33374831  0.77045061  0.91434429  1  1.575702  0  0.192022  0.555439  0  4.258178  0
C  C191  1  0.35617601  0.41948910  0.58568281  1  1.562959  0  0.190616  0.551684  0  4.264097  0
C  C192  1  0.11771865  0.15134054  0.14655477  1  0.347146  0  0.102937  0.205352  0  4.022319  0
C  C193  1  0.50480114  0.97116976  0.35343133  1  0.319522  0  0.102397  0.20589  0  4.023977  0
C  C194  1  0.88228113  0.84866006  0.85344565  1  0.347134  0  0.102953  0.205348  0  4.022338  0
C  C195  1  0.49519921  0.02883084  0.64656891  1  0.319515  0  0.102395  0.205869  0  4.023982  0
C  C196  1  0.20090969  0.10605417  0.15493383  1  -0.030759  0  -0.103426  -0.189825  0  3.98784  0
C  C197  1  0.45115095  0.04598639  0.34505064  1  -0.008805  0  -0.104239  -0.19247  0  3.989816  0
C  C198  1  0.79909034  0.89394537  0.84506609  1  -0.030757  0  -0.103441  -0.189794  0  3.98786  0
C  C199  1  0.54884892  0.95401373  0.65494913  1  -0.0088  0  -0.104217  -0.192423  0  3.989822  0
C  C200  1  0.09198931  0.19471047  0.09197302  1  -0.012365  0  -0.106972  -0.197312  0  4.00768  0
C  C201  1  0.60273494  0.00000876  0.40802444  1  -0.028415  0  -0.106834  -0.197316  0  4.006475  0
C  C202  1  0.90801104  0.80529013  0.90802722  1  -0.012349  0  -0.106946  -0.197246  0  4.007663  0
C  C203  1  0.39726598  0.99999185  0.59197562  1  -0.028406  0  -0.10681  -0.197248  0  4.006436  0
C  C204  1  0.14918955  0.19524056  0.04906514  1  -0.020675  0  -0.087557  -0.079154  0  4.022269  0
C  C205  1  0.64615500  0.10013045  0.45093180  1  -0.024197  0  -0.087425  -0.080105  0  4.01841  0
C  C206  1  0.85081039  0.80475946  0.95093545  1  -0.020676  0  -0.087563  -0.079131  0  4.022232  0
C  C207  1  0.35384487  0.89986967  0.54906797  1  -0.024184  0  -0.087438  -0.080189  0  4.018394  0
C  C208  1  0.25889554  0.10924395  0.11274137  1  -0.022453  0  -0.085982  -0.077272  0  4.000551  0
C  C209  1  0.49647734  0.14617495  0.38728355  1  -0.014315  0  -0.086498  -0.077437  0  4.000723  0
C  C210  1  0.74110392  0.89075559  0.88725874  1  -0.022453  0  -0.086012  -0.077352  0  4.000603  0
C  C211  1  0.50352317  0.85382507  0.61271686  1  -0.014317  0  -0.086548  -0.0775  0  4.000815  0
C  C212  1  0.23500071  0.15483726  0.05972716  1  -0.033234  0  -0.038363  -0.076071  0  4.027423  0
C  C213  1  0.59508732  0.17528922  0.44028615  1  -0.099655  0  -0.037118  -0.072104  0  4.025815  0
C  C214  1  0.76499933  0.84516228  0.94027276  1  -0.03325  0  -0.038336  -0.076081  0  4.02746  0
C  C215  1  0.40491271  0.82471032  0.55971378  1  -0.099635  0  -0.037115  -0.07203  0  4.025736  0
C  C216  1  0.30263622  0.16872423  0.01958459  1  1.524155  0  0.188334  0.551226  0  4.252158  0
C  C217  1  0.64909903  0.28306061  0.48042897  1  1.55265  0  0.188726  0.547867  0  4.250334  0
C  C218  1  0.69736365  0.83127590  0.98041518  1  1.524161  0  0.188337  0.551252  0  4.252133  0
C  C219  1  0.35089979  0.71693902  0.51957049  1  1.552653  0  0.18875  0.547918  0  4.25032  0
C  C220  1  0.09932405  0.15157106  0.26125502  1  0.337969  0  0.090911  0.184273  0  4.027669  0
C  C221  1  0.39032693  0.83806420  0.23873706  1  0.31416  0  0.090956  0.183897  0  4.028641  0
C  C222  1  0.90067598  0.84842848  0.73874491  1  0.337963  0  0.09096  0.184389  0  4.027714  0
C  C223  1  0.60967295  0.16193592  0.76126270  1  0.314148  0  0.090937  0.18386  0  4.028673  0
C  C224  1  0.19975806  0.20271359  0.30810438  1  -0.076703  0  -0.101994  -0.182691  0  3.979869  0
C  C225  1  0.39461345  0.89164210  0.19188361  1  -0.086314  0  -0.102148  -0.18187  0  3.980426  0
C  C226  1  0.80024181  0.79728653  0.69189538  1  -0.076706  0  -0.10202  -0.182718  0  3.979902  0
C  C227  1  0.60538642  0.10835802  0.80811615  1  -0.086304  0  -0.102129  -0.181837  0  3.980429  0
C  C228  1  0.03448329  0.10084115  0.28634486  1  -0.056818  0  -0.100385  -0.180019  0  3.991707  0
C  C229  1  0.31448701  0.74813900  0.21365859  1  -0.102482  0  -0.100665  -0.17964  0  3.993484  0
C  C230  1  0.96551617  0.89915839  0.71365524  1  -0.056806  0  -0.100464  -0.180149  0  3.991914  0
C  C231  1  0.68551302  0.25186054  0.78634134  1  -0.102474  0  -0.100674  -0.179632  0  3.993451  0
C  C232  1  0.07015303  0.10052981  0.35668943  1  -0.02866  0  -0.100573  -0.082151  0  4.077327  0
C  C233  1  0.24383443  0.71342845  0.14331374  1  0.026854  0  -0.100443  -0.08264  0  4.079913  0
C  C234  1  0.92984748  0.89947021  0.64331098  1  -0.028647  0  -0.100558  -0.082109  0  4.077268  0
C  C235  1  0.75616608  0.28657158  0.85668667  1  0.026854  0  -0.100463  -0.08271  0  4.079921  0
C  C236  1  0.23458949  0.20187991  0.37831973  1  -0.022622  0  -0.092806  -0.064723  0  4.018893  0
C  C237  1  0.32356392  0.85624365  0.12166929  1  -0.027311  0  -0.093104  -0.065334  0  4.019872  0
C  C238  1  0.76541086  0.79812069  0.62168052  1  -0.022631  0  -0.092756  -0.064603  0  4.019031  0
C  C239  1  0.67643643  0.14375695  0.87833096  1  -0.0273  0  -0.09311  -0.065363  0  4.019842  0
C  C240  1  0.17037383  0.15056587  0.40299562  1  -0.006305  0  -0.103751  -0.108774  0  4.040978  0
C  C241  1  0.24757879  0.76735701  0.09700767  1  -0.050592  0  -0.103799  -0.109077  0  4.04232  0
C  C242  1  0.82962547  0.84943424  0.59700433  1  -0.006304  0  -0.103728  -0.108766  0  4.040922  0
C  C243  1  0.75242157  0.23264360  0.90299258  1  -0.050609  0  -0.103744  -0.108951  0  4.042233  0
N  N244  1  0.48557464  0.30766793  0.95452348  1  -1.266269  0  -0.333642  -0.23811  0  3.597217  0
N  N245  1  0.85309870  0.53103246  0.54548034  1  -1.253634  0  -0.333767  -0.238006  0  3.595274  0
N  N246  1  0.51442482  0.69233161  0.04547663  1  -1.266264  0  -0.333626  -0.238063  0  3.597226  0
N  N247  1  0.14690117  0.46896766  0.45451943  1  -1.253618  0  -0.333767  -0.237991  0  3.595225  0
N  N248  1  0.66867167  0.52432749  0.60815870  1  -1.236279  0  -0.334773  -0.238893  0  3.58259  0
N  N249  1  0.41620282  0.06056588  0.89187326  1  -1.271465  0  -0.334638  -0.238225  0  3.583188  0
N  N250  1  0.33132836  0.47567206  0.39184123  1  -1.236278  0  -0.334721  -0.238824  0  3.582367  0
N  N251  1  0.58379705  0.93943424  0.10812651  1  -1.271469  0  -0.33465  -0.238239  0  3.583172  0
N  N252  1  0.06026909  0.15305687  0.19015664  1  -1.243616  0  -0.254769  -0.162445  0  3.674044  0
N  N253  1  0.46291099  0.87011436  0.30983782  1  -1.227813  0  -0.254731  -0.162359  0  3.673915  0
N  N254  1  0.93973142  0.84694315  0.80984376  1  -1.243638  0  -0.254808  -0.16252  0  3.674154  0
N  N255  1  0.53708937  0.12988624  0.69016242  1  -1.227823  0  -0.254738  -0.162365  0  3.673941  0
O  O256  1  0.64611130  0.30610256  0.11969311  1  -1.186741  0  -0.339115  -0.566807  0  2.095973  0
O  O257  1  0.68636995  0.52636531  0.38029281  1  -1.187571  0  -0.338889  -0.565526  0  2.098637  0
O  O258  1  0.35388816  0.69389697  0.88030700  1  -1.186748  0  -0.33912  -0.566844  0  2.095986  0
O  O259  1  0.31363008  0.47363423  0.61970711  1  -1.187546  0  -0.338895  -0.565548  0  2.098602  0
O  O260  1  0.60439828  0.16375193  0.02423818  1  -1.179046  0  -0.340711  -0.573498  0  2.37283  0
O  O261  1  0.63940090  0.58004194  0.47572322  1  -1.179469  0  -0.339687  -0.571423  0  2.374545  0
O  O262  1  0.39560165  0.83624809  0.97576240  1  -1.178976  0  -0.340718  -0.573523  0  2.372797  0
O  O263  1  0.36059897  0.41995819  0.52427654  1  -1.179441  0  -0.339693  -0.571433  0  2.374484  0
O  O264  1  0.27573426  0.19997668  0.96722890  1  -1.188431  0  -0.343487  -0.58552  0  2.126853  0
O  O265  1  0.73267595  0.30849133  0.53281073  1  -1.196345  0  -0.344546  -0.585176  0  2.122867  0
O  O266  1  0.72426577  0.80002287  0.03277102  1  -1.188425  0  -0.343485  -0.585514  0  2.126822  0
O  O267  1  0.26732449  0.69150880  0.46718885  1  -1.196368  0  -0.344553  -0.585195  0  2.122895  0
O  O268  1  0.39214919  0.15095687  0.04404463  1  -1.167109  0  -0.33458  -0.550353  0  2.311365  0
O  O269  1  0.60687714  0.34810864  0.45596529  1  -1.166889  0  -0.334826  -0.549515  0  2.311788  0
O  O270  1  0.60785068  0.84904325  0.95595513  1  -1.167123  0  -0.334591  -0.550376  0  2.311365  0
O  O271  1  0.39312321  0.65189197  0.54403495  1  -1.166874  0  -0.334815  -0.549541  0  2.311777  0
