# generated using pymatgen
data_ZnH11C20NCl2O7
_symmetry_space_group_name_H-M   'P 1'
_cell_length_a   11.10285556
_cell_length_b   16.38350951
_cell_length_c   17.59995066
_cell_angle_alpha   95.51795789
_cell_angle_beta   90.97872847
_cell_angle_gamma   93.26999816
_symmetry_Int_Tables_number   1
_chemical_formula_structural   ZnH11C20NCl2O7
_chemical_formula_sum   'Zn2 H22 C40 N2 Cl4 O14'
_cell_volume   3180.65261579
_cell_formula_units_Z   2
loop_
 _symmetry_equiv_pos_site_id
 _symmetry_equiv_pos_as_xyz
  1  'x, y, z'
loop_
 _atom_site_type_symbol
 _atom_site_label
 _atom_site_symmetry_multiplicity
 _atom_site_fract_x
 _atom_site_fract_y
 _atom_site_fract_z
 _atom_site_occupancy
 _atom_site_pbe_bader_charge
 _atom_site_pbe_bader_spin_density
 _atom_site_pbe_cm5_charge
 _atom_site_pbe_ddec_charge
 _atom_site_pbe_ddec_spin_density
 _atom_site_pbe_ddec_sum_bond_order
 _atom_site_pbe_magmom
Zn  Zn0  1  0.48980416  0.41697603  0.51320098  1  1.292287  0  0.677554  0.852524  0  2.37468  0
Zn  Zn1  1  0.50862640  0.59218349  0.51378958  1  1.297051  0  0.677255  0.839788  0  2.371184  0
H  H2  1  0.37526180  0.71399435  0.44471576  1  0.135931  0  0.128407  0.101833  0  1.009589  0
H  H3  1  0.37246938  0.86366861  0.43893360  1  0.083194  0  0.117761  0.12643  0  0.9869  0
H  H4  1  0.68644905  0.88972387  0.59128700  1  0.114063  0  0.116125  0.136477  0  0.982756  0
H  H5  1  0.31555226  0.12296119  0.41338174  1  0.092248  0  0.117876  0.13986  0  0.979331  0
H  H6  1  0.62884725  0.14006547  0.56595723  1  0.075387  0  0.117054  0.124932  0  0.990377  0
H  H7  1  0.61850916  0.29096267  0.57427962  1  0.12762  0  0.133962  0.110602  0  0.967526  0
H  H8  1  0.60939849  0.01042811  0.55674464  1  0.082239  0  0.109569  0.105973  0  0.995494  0
H  H9  1  0.39391118  0.99813731  0.44253356  1  0.062164  0  0.111602  0.109286  0  0.988406  0
H  H10  1  0.48922551  0.61321600  0.27747285  1  0.112524  0  0.107609  0.113343  0  0.999423  0
H  H11  1  0.49102177  0.61028076  0.13682391  1  0.049149  0  0.103765  0.104036  0  1.003093  0
H  H12  1  0.51823372  0.34732763  0.12283355  1  0.084585  0  0.10247  0.115038  0  1.000344  0
H  H13  1  0.48685811  0.65447406  0.90259898  1  0.079016  0  0.103311  0.116148  0  0.998795  0
H  H14  1  0.50736217  0.39099086  0.88815682  1  0.066776  0  0.103339  0.103712  0  1.004789  0
H  H15  1  0.50946245  0.38819157  0.74771698  1  0.116477  0  0.106183  0.111525  0  1.000859  0
H  H16  1  0.50721268  0.40682393  0.00891214  1  0.035256  0  0.10212  0.098426  0  1.003588  0
H  H17  1  0.49478201  0.59473749  0.01642787  1  0.020811  0  0.103184  0.100646  0  1.002557  0
H  H18  1  0.20161387  0.39837390  0.55324004  1  0.625689  0  0.299164  0.348035  0  0.987854  0
H  H19  1  0.79047616  0.38019135  0.53529413  1  0.64784  0  0.297804  0.33919  0  1.006464  0
H  H20  1  0.29451582  0.59445388  0.41223671  1  0.635644  0  0.295613  0.341224  0  1.020325  0
H  H21  1  0.21726472  0.67830449  0.28940882  1  0.609557  0  0.317272  0.351009  0  0.92116  0
H  H22  1  0.79781249  0.68395927  0.29601085  1  0.63926  0  0.318634  0.352873  0  0.918033  0
H  H23  1  0.71556848  0.59447274  0.41538060  1  0.652084  0  0.297152  0.35007  0  1.004037  0
C  C24  1  0.49664410  0.49521895  0.36580613  1  1.591127  0  0.217381  0.60637  0  4.13949  0
C  C25  1  0.25840359  0.51326794  0.50262417  1  1.484012  0  0.211847  0.602632  0  4.098801  0
C  C26  1  0.50427652  0.50716588  0.65900304  1  1.579736  0  0.218927  0.615686  0  4.138446  0
C  C27  1  0.74181829  0.49731187  0.49365951  1  1.494439  0  0.215633  0.609842  0  4.094762  0
C  C28  1  0.44284932  0.75549438  0.47610344  1  0.445703  0  0.059194  0.126549  0  3.901289  0
C  C29  1  0.44226908  0.83945877  0.47312539  1  -0.025945  0  -0.077916  -0.181418  0  3.919871  0
C  C30  1  0.53061586  0.89130764  0.51514398  1  0.056466  0  0.012634  0.168704  0  4.034459  0
C  C31  1  0.61563584  0.85346298  0.55765210  1  0.07872  0  -0.081803  -0.23927  0  3.909865  0
C  C32  1  0.60976236  0.76825392  0.55756563  1  0.601323  0  0.153736  0.296559  0  4.058321  0
C  C33  1  0.53799162  0.98049594  0.51858621  1  -0.047047  0  -0.073395  -0.111927  0  3.951004  0
C  C34  1  0.46536742  0.02743276  0.48102919  1  0.016683  0  -0.072058  -0.110967  0  3.942493  0
C  C35  1  0.38532891  0.15732617  0.44945921  1  0.067669  0  -0.080119  -0.239064  0  3.901569  0
C  C36  1  0.47157383  0.11684572  0.48845829  1  -0.056466  0  0.013648  0.171299  0  4.026299  0
C  C37  1  0.55825437  0.16646183  0.53420123  1  -0.037998  0  -0.079462  -0.183617  0  3.928573  0
C  C38  1  0.55370710  0.25083959  0.53897644  1  0.481693  0  0.05854  0.119048  0  3.924409  0
C  C39  1  0.38723025  0.24295823  0.45741964  1  0.588864  0  0.153998  0.297308  0  4.054927  0
C  C40  1  0.50139094  0.48414177  0.28075432  1  -0.037117  0  -0.016224  -0.089945  0  3.902483  0
C  C41  1  0.49521997  0.55538777  0.24213040  1  -0.016279  0  -0.075838  -0.057912  0  3.981825  0
C  C42  1  0.49622557  0.55323208  0.16351515  1  0.01876  0  -0.088867  -0.138794  0  3.966522  0
C  C43  1  0.50337843  0.47777568  0.11837332  1  -0.012584  0  -0.004228  0.138246  0  4.046345  0
C  C44  1  0.51118050  0.40646885  0.15612580  1  -0.022766  0  -0.094873  -0.208345  0  3.943201  0
C  C45  1  0.51094961  0.40895759  0.23563264  1  0.085955  0  0.025466  0.157329  0  3.994779  0
C  C46  1  0.50323039  0.46978614  0.03535738  1  -0.026785  0  -0.083111  -0.119476  0  3.979913  0
C  C47  1  0.49850784  0.53175913  0.99001819  1  -0.022379  0  -0.084476  -0.123103  0  3.980343  0
C  C48  1  0.49229742  0.59520198  0.86927982  1  -0.005121  0  -0.094595  -0.207399  0  3.941237  0
C  C49  1  0.49836200  0.52373949  0.90698942  1  0.001558  0  -0.003882  0.138502  0  4.048987  0
C  C50  1  0.50381795  0.44825895  0.86162033  1  -0.023262  0  -0.091562  -0.14131  0  3.975881  0
C  C51  1  0.50495316  0.44628800  0.78294459  1  -0.070341  0  -0.079921  -0.069705  0  3.993245  0
C  C52  1  0.50030380  0.51771628  0.74430487  1  0.015492  0  -0.021071  -0.100187  0  3.910664  0
C  C53  1  0.49245389  0.59295464  0.78978946  1  0.076894  0  0.023833  0.156265  0  4.00208  0
C  C54  1  0.87145955  0.49464633  0.47502900  1  -0.005217  0  -0.039115  -0.20442  0  3.944041  0
C  C55  1  0.93681339  0.55192972  0.43032154  1  0.011621  0  -0.033509  -0.050486  0  4.030004  0
C  C56  1  0.93365913  0.43465212  0.50883497  1  0.605328  0  0.083922  0.21667  0  4.029584  0
C  C57  1  0.87935684  0.60096577  0.37979130  1  0.589639  0  0.044633  0.119507  0  4.111853  0
C  C58  1  0.94404455  0.65093182  0.33260655  1  0.432449  0  0.051338  0.10904  0  4.139972  0
C  C59  1  0.12936645  0.50196251  0.47999998  1  0.016731  0  -0.04536  -0.219391  0  3.961002  0
C  C60  1  0.06270832  0.43983084  0.51366540  1  0.539313  0  0.085772  0.2208  0  4.037016  0
C  C61  1  0.06779971  0.55342034  0.43081747  1  0.046017  0  -0.033841  -0.04471  0  4.031886  0
C  C62  1  0.12908604  0.60047546  0.37826690  1  0.488143  0  0.039434  0.111601  0  4.117722  0
C  C63  1  0.06924511  0.64978349  0.33105937  1  0.582071  0  0.051121  0.110124  0  4.139721  0
N  N64  1  0.52491015  0.71931026  0.51775997  1  -1.232598  0  -0.319149  -0.263441  0  3.459397  0
N  N65  1  0.46981641  0.28962184  0.50132199  1  -1.206111  0  -0.320073  -0.268682  0  3.473398  0
Cl  Cl66  1  0.71433048  0.72424124  0.61050841  1  -0.129242  0  0.047034  -0.025368  0  1.519072  0
Cl  Cl67  1  0.27898717  0.29006607  0.41032894  1  -0.123906  0  0.056155  -0.019733  0  1.54769  0
Cl  Cl68  1  0.52629087  0.31562138  0.27252285  1  -0.201916  0  -0.029453  -0.095933  0  1.507488  0
Cl  Cl69  1  0.48076139  0.68685988  0.75348172  1  -0.19665  0  -0.028048  -0.09464  0  1.516806  0
O  O70  1  0.48713282  0.43147176  0.40191022  1  -1.161496  0  -0.318729  -0.561268  0  2.463139  0
O  O71  1  0.50132464  0.56892293  0.39716701  1  -1.163922  0  -0.313291  -0.541392  0  2.372373  0
O  O72  1  0.31721225  0.58271503  0.49854831  1  -1.18176  0  -0.316578  -0.544081  0  2.34925  0
O  O73  1  0.31015979  0.45300166  0.52941222  1  -1.173771  0  -0.316793  -0.567274  0  2.396587  0
O  O74  1  0.50500735  0.57111446  0.62321262  1  -1.157948  0  -0.318259  -0.554878  0  2.453655  0
O  O75  1  0.50718268  0.43365182  0.62768294  1  -1.153384  0  -0.320498  -0.543237  0  2.328143  0
O  O76  1  0.68419038  0.43091139  0.51038540  1  -1.170015  0  -0.311728  -0.552107  0  2.332955  0
O  O77  1  0.69134817  0.56614036  0.49692843  1  -1.178974  0  -0.316019  -0.562302  0  2.434087  0
O  O78  1  0.11147212  0.38569968  0.55592115  1  -1.123688  0  -0.354206  -0.4225  0  2.299768  0
O  O79  1  0.87941216  0.37359795  0.54404086  1  -1.156537  0  -0.358688  -0.425001  0  2.28899  0
O  O80  1  0.25014566  0.59905671  0.36291865  1  -1.180885  0  -0.381664  -0.488798  0  2.389297  0
O  O81  1  0.13396492  0.69389545  0.28200568  1  -1.115645  0  -0.366462  -0.41769  0  2.245248  0
O  O82  1  0.88327108  0.69705822  0.28589270  1  -1.135488  0  -0.365372  -0.415617  0  2.246873  0
O  O83  1  0.75733363  0.60137939  0.36628871  1  -1.180015  0  -0.378795  -0.479673  0  2.377079  0
