# generated using pymatgen
data_MgH6C5(NO3)2
_symmetry_space_group_name_H-M   'P 1'
_cell_length_a   7.74080617
_cell_length_b   7.74083105
_cell_length_c   13.59997936
_cell_angle_alpha   89.12808017
_cell_angle_beta   89.12802420
_cell_angle_gamma   76.65785983
_symmetry_Int_Tables_number   1
_chemical_formula_structural   MgH6C5(NO3)2
_chemical_formula_sum   'Mg4 H24 C20 N8 O24'
_cell_volume   792.77024152
_cell_formula_units_Z   4
loop_
 _symmetry_equiv_pos_site_id
 _symmetry_equiv_pos_as_xyz
  1  'x, y, z'
loop_
 _atom_site_type_symbol
 _atom_site_label
 _atom_site_symmetry_multiplicity
 _atom_site_fract_x
 _atom_site_fract_y
 _atom_site_fract_z
 _atom_site_occupancy
 _atom_site_hle17_bader_spin_density
 _atom_site_hle17_ddec_charge
 _atom_site_hle17_ddec_spin_density
 _atom_site_hle17_ddec_sum_bond_order
 _atom_site_hle17_magmom
 _atom_site_hse06_10hf_bader_spin_density
 _atom_site_hse06_10hf_ddec_charge
 _atom_site_hse06_10hf_ddec_spin_density
 _atom_site_hse06_10hf_ddec_sum_bond_order
 _atom_site_hse06_10hf_magmom
 _atom_site_hse06_bader_spin_density
 _atom_site_hse06_ddec_charge
 _atom_site_hse06_ddec_spin_density
 _atom_site_hse06_ddec_sum_bond_order
 _atom_site_hse06_magmom
 _atom_site_pbe_bader_spin_density
 _atom_site_pbe_cm5_charge
 _atom_site_pbe_ddec_charge
 _atom_site_pbe_ddec_spin_density
 _atom_site_pbe_ddec_sum_bond_order
 _atom_site_pbe_magmom
Mg  Mg0  1  0.92964398  0.58929946  0.39311261  1  0  1.51092  0  1.130049  0  0  1.39803  0  1.391499  0  0  1.421398  0  1.355396  0  0  0.847901  1.381472  0  1.416775  0
Mg  Mg1  1  0.41070172  0.07036075  0.10690277  1  0  1.510946  0  1.13005  0  0  1.397889  0  1.391763  0  0  1.42126  0  1.355659  0  0  0.847865  1.381327  0  1.417044  0
Mg  Mg2  1  0.07035421  0.41070093  0.60689602  1  0  1.510939  0  1.130063  0  0  1.398102  0  1.391436  0  0  1.421467  0  1.355338  0  0  0.847925  1.381549  0  1.416703  0
Mg  Mg3  1  0.58930300  0.92963803  0.89309840  1  0  1.510944  0  1.130034  0  0  1.397895  0  1.391732  0  0  1.421268  0  1.355628  0  0  0.847889  1.381335  0  1.417008  0
H  H4  1  0.25589460  0.44131464  0.24418584  1  0  0.299729  0  0.921067  0  0  0.270706  0  0.998451  0  0  0.281528  0  0.98856  0  0  0.323286  0.263008  0  1.005592  0
H  H5  1  0.55869313  0.74411273  0.25581328  1  0  0.299658  0  0.921158  0  0  0.270611  0  0.998533  0  0  0.281423  0  0.988656  0  0  0.323279  0.262914  0  1.005671  0
H  H6  1  0.74410297  0.55867469  0.75580980  1  0  0.299668  0  0.921096  0  0  0.270649  0  0.998475  0  0  0.281481  0  0.988573  0  0  0.323263  0.262951  0  1.005613  0
H  H7  1  0.44131928  0.25588072  0.74418857  1  0  0.299697  0  0.921198  0  0  0.270642  0  0.998564  0  0  0.281447  0  0.98869  0  0  0.323274  0.262946  0  1.005701  0
H  H8  1  0.99457638  0.91162929  0.41579399  1  0  0.427888  0  0.877965  0  0  0.3943  0  0.945821  0  0  0.404493  0  0.930777  0  0  0.29707  0.387134  0  0.956391  0
H  H9  1  0.08837595  0.00542521  0.08420671  1  0  0.427928  0  0.87792  0  0  0.394343  0  0.945773  0  0  0.404536  0  0.930731  0  0  0.297082  0.387177  0  0.956343  0
H  H10  1  0.00541960  0.08837343  0.58420507  1  0  0.427856  0  0.878011  0  0  0.394257  0  0.945885  0  0  0.404452  0  0.930837  0  0  0.297057  0.387092  0  0.956454  0
H  H11  1  0.91162622  0.99457883  0.91579292  1  0  0.427886  0  0.877979  0  0  0.394283  0  0.945859  0  0  0.404474  0  0.930818  0  0  0.297062  0.387117  0  0.956429  0
H  H12  1  0.12743851  0.69361579  0.96456562  1  0  0.144708  0  0.940384  0  0  0.155544  0  0.996465  0  0  0.159969  0  0.993105  0  0  0.11865  0.152315  0  0.999066  0
H  H13  1  0.30637643  0.87255802  0.53543490  1  0  0.14462  0  0.940434  0  0  0.155488  0  0.996479  0  0  0.159913  0  0.99312  0  0  0.118664  0.152263  0  0.99908  0
H  H14  1  0.87257187  0.30638704  0.03543827  1  0  0.144591  0  0.94046  0  0  0.155464  0  0.996517  0  0  0.159889  0  0.993157  0  0  0.11865  0.152235  0  0.999117  0
H  H15  1  0.69361195  0.12743806  0.46456301  1  0  0.14465  0  0.940402  0  0  0.155522  0  0.99645  0  0  0.159946  0  0.993092  0  0  0.118678  0.152292  0  0.99905  0
H  H16  1  0.92085511  0.86798002  0.52252374  1  0  0.430229  0  0.875636  0  0  0.397702  0  0.940889  0  0  0.407734  0  0.926319  0  0  0.298315  0.390633  0  0.951152  0
H  H17  1  0.13202240  0.07914626  0.97747556  1  0  0.430258  0  0.875591  0  0  0.397717  0  0.94087  0  0  0.40775  0  0.926298  0  0  0.298308  0.390647  0  0.951132  0
H  H18  1  0.07914343  0.13202267  0.47747453  1  0  0.430225  0  0.875625  0  0  0.397703  0  0.940874  0  0  0.407735  0  0.926303  0  0  0.298329  0.390633  0  0.951137  0
H  H19  1  0.86797721  0.92085782  0.02252486  1  0  0.430252  0  0.875592  0  0  0.397744  0  0.940813  0  0  0.407776  0  0.926243  0  0  0.298363  0.390675  0  0.951074  0
H  H20  1  0.83332944  0.39979386  0.24848233  1  0  0.450115  0  0.813302  0  0  0.423096  0  0.872808  0  0  0.432579  0  0.858648  0  0  0.320668  0.416319  0  0.882952  0
H  H21  1  0.60020810  0.16667947  0.25151819  1  0  0.450047  0  0.813381  0  0  0.423031  0  0.87289  0  0  0.432514  0  0.858731  0  0  0.320634  0.416255  0  0.883033  0
H  H22  1  0.16667141  0.60021017  0.75151659  1  0  0.450155  0  0.81322  0  0  0.423114  0  0.872789  0  0  0.432601  0  0.858622  0  0  0.320662  0.416337  0  0.882934  0
H  H23  1  0.39979532  0.83331931  0.74848300  1  0  0.450055  0  0.813374  0  0  0.42304  0  0.872876  0  0  0.432523  0  0.858718  0  0  0.320646  0.416263  0  0.883021  0
H  H24  1  0.97549258  0.25194960  0.31162609  1  0  0.45014  0  0.841318  0  0  0.411964  0  0.913714  0  0  0.424349  0  0.895445  0  0  0.298215  0.403198  0  0.926637  0
H  H25  1  0.74806175  0.02450496  0.18837220  1  0  0.450175  0  0.841274  0  0  0.412052  0  0.913578  0  0  0.424436  0  0.895311  0  0  0.298252  0.40329  0  0.926495  0
H  H26  1  0.02450663  0.74805571  0.68837137  1  0  0.450205  0  0.841227  0  0  0.412008  0  0.913636  0  0  0.424391  0  0.895371  0  0  0.29824  0.403248  0  0.926548  0
H  H27  1  0.25194164  0.97549380  0.81162826  1  0  0.450225  0  0.841186  0  0  0.412025  0  0.913604  0  0  0.424408  0  0.895339  0  0  0.298236  0.403265  0  0.926517  0
C  C28  1  0.17956025  0.60119302  0.02328948  1  0  -0.159687  0  3.645737  0  0  -0.200138  0  3.912882  0  0  -0.202567  0  3.930549  0  0  -0.084651  -0.198439  0  3.90104  0
C  C29  1  0.39879497  0.82043416  0.47671115  1  0  -0.159524  0  3.645531  0  0  -0.200005  0  3.912683  0  0  -0.202432  0  3.930353  0  0  -0.084656  -0.198312  0  3.90085  0
C  C30  1  0.82043327  0.39879258  0.97671296  1  0  -0.159388  0  3.645541  0  0  -0.199918  0  3.912662  0  0  -0.202343  0  3.930328  0  0  -0.084614  -0.198216  0  3.900825  0
C  C31  1  0.60119934  0.17955939  0.52329109  1  0  -0.159513  0  3.645721  0  0  -0.200072  0  3.912848  0  0  -0.202497  0  3.930516  0  0  -0.084709  -0.198366  0  3.90101  0
C  C32  1  0.01602529  0.75452951  0.18261714  1  0  0.69105  0  3.905236  0  0  0.629096  0  4.214273  0  0  0.663953  0  4.20337  0  0  0.233917  0.605464  0  4.221005  0
C  C33  1  0.24547710  0.98398053  0.31738586  1  0  0.691058  0  3.905163  0  0  0.629059  0  4.214266  0  0  0.663916  0  4.203365  0  0  0.233898  0.605428  0  4.220997  0
C  C34  1  0.98397433  0.24548500  0.81737790  1  0  0.691204  0  3.905042  0  0  0.62897  0  4.214463  0  0  0.663825  0  4.203568  0  0  0.233911  0.60534  0  4.221189  0
C  C35  1  0.75451933  0.01602101  0.68261763  1  0  0.691143  0  3.905048  0  0  0.62899  0  4.214334  0  0  0.663845  0  4.203439  0  0  0.233937  0.605363  0  4.221061  0
C  C36  1  0.37297182  0.32156211  0.93028556  1  0  0.682221  0  3.88593  0  0  0.626211  0  4.191998  0  0  0.659997  0  4.182467  0  0  0.229624  0.603274  0  4.197857  0
C  C37  1  0.67843028  0.62702928  0.56971839  1  0  0.682393  0  3.885821  0  0  0.626341  0  4.191993  0  0  0.660124  0  4.182465  0  0  0.229656  0.603405  0  4.197854  0
C  C38  1  0.62703809  0.67843667  0.06971623  1  0  0.682121  0  3.886151  0  0  0.626062  0  4.192269  0  0  0.659843  0  4.182746  0  0  0.229542  0.603129  0  4.198127  0
C  C39  1  0.32156449  0.37296670  0.43027717  1  0  0.682512  0  3.885538  0  0  0.626382  0  4.191754  0  0  0.660165  0  4.182225  0  0  0.229687  0.603447  0  4.197615  0
C  C40  1  0.29454574  0.43246798  0.01519590  1  0  0.027863  0  3.768078  0  0  0.024526  0  4.035734  0  0  0.021576  0  4.054915  0  0  0.087281  0.026464  0  4.022717  0
C  C41  1  0.56752898  0.70545736  0.48480721  1  0  0.027637  0  3.767864  0  0  0.024335  0  4.035561  0  0  0.021378  0  4.054749  0  0  0.087293  0.026276  0  4.022545  0
C  C42  1  0.70545920  0.56752419  0.98480613  1  0  0.027679  0  3.767924  0  0  0.024453  0  4.035494  0  0  0.021497  0  4.05468  0  0  0.087278  0.026391  0  4.022475  0
C  C43  1  0.43246973  0.29453345  0.51519279  1  0  0.027562  0  3.767805  0  0  0.02439  0  4.035372  0  0  0.021437  0  4.054558  0  0  0.087314  0.02633  0  4.022352  0
C  C44  1  0.14176856  0.62113766  0.12396673  1  0  0.025772  0  3.695395  0  0  0.012854  0  3.964191  0  0  0.011957  0  3.981796  0  0  0.090762  0.013438  0  3.952257  0
C  C45  1  0.37886175  0.85824475  0.37603619  1  0  0.025925  0  3.695198  0  0  0.012952  0  3.964021  0  0  0.012048  0  3.981628  0  0  0.0908  0.013529  0  3.952103  0
C  C46  1  0.85823752  0.37886639  0.87603354  1  0  0.025794  0  3.695025  0  0  0.012963  0  3.963916  0  0  0.012066  0  3.981522  0  0  0.090817  0.013533  0  3.952001  0
C  C47  1  0.62113334  0.14175676  0.62396586  1  0  0.025763  0  3.69531  0  0  0.012896  0  3.964061  0  0  0.011985  0  3.981671  0  0  0.090779  0.01346  0  3.952156  0
N  N48  1  0.23424323  0.47031944  0.16917989  1  0  -0.104879  0  3.477468  0  0  -0.050758  0  3.712581  0  0  -0.060942  0  3.728678  0  0  -0.241944  -0.043905  0  3.701849  0
N  N49  1  0.52968602  0.76576655  0.33081776  1  0  -0.105033  0  3.477417  0  0  -0.050777  0  3.712413  0  0  -0.060948  0  3.728517  0  0  -0.241981  -0.043922  0  3.701685  0
N  N50  1  0.76576192  0.52968856  0.83081959  1  0  -0.104959  0  3.477439  0  0  -0.050846  0  3.712568  0  0  -0.061038  0  3.728659  0  0  -0.241963  -0.043986  0  3.701835  0
N  N51  1  0.47031066  0.23423362  0.66918428  1  0  -0.105062  0  3.477553  0  0  -0.05077  0  3.71246  0  0  -0.060928  0  3.728562  0  0  -0.241951  -0.043914  0  3.701732  0
N  N52  1  0.32578076  0.35648694  0.10544029  1  0  -0.293779  0  3.130126  0  0  -0.26483  0  3.392998  0  0  -0.269136  0  3.407083  0  0  -0.262503  -0.261667  0  3.383474  0
N  N53  1  0.64350949  0.67422538  0.39456127  1  0  -0.293583  0  3.12986  0  0  -0.264702  0  3.392655  0  0  -0.269011  0  3.406744  0  0  -0.262455  -0.261539  0  3.38313  0
N  N54  1  0.67422164  0.64351050  0.89456021  1  0  -0.293678  0  3.130055  0  0  -0.264752  0  3.39289  0  0  -0.269056  0  3.406979  0  0  -0.262499  -0.261588  0  3.383361  0
N  N55  1  0.35648359  0.32577346  0.60544015  1  0  -0.293556  0  3.129981  0  0  -0.264741  0  3.392731  0  0  -0.269058  0  3.406823  0  0  -0.262481  -0.261575  0  3.383201  0
O  O56  1  0.99152686  0.71703646  0.27125423  1  0  -0.695753  0  2.042335  0  0  -0.642262  0  2.30178  0  0  -0.664621  0  2.287829  0  0  -0.349187  -0.626835  0  2.311025  0
O  O57  1  0.28297602  0.00847222  0.22874853  1  0  -0.695762  0  2.04233  0  0  -0.642258  0  2.30186  0  0  -0.664618  0  2.287906  0  0  -0.349199  -0.626829  0  2.311103  0
O  O58  1  0.00848084  0.28296466  0.72873799  1  0  -0.695773  0  2.042209  0  0  -0.642264  0  2.301831  0  0  -0.664622  0  2.287882  0  0  -0.349261  -0.626838  0  2.311073  0
O  O59  1  0.71702863  0.99152127  0.77125349  1  0  -0.695737  0  2.042398  0  0  -0.642222  0  2.302019  0  0  -0.664581  0  2.288069  0  0  -0.349237  -0.626792  0  2.311258  0
O  O60  1  0.45832083  0.16243652  0.95498017  1  0  -0.803508  0  2.066669  0  0  -0.730712  0  2.309526  0  0  -0.754243  0  2.29507  0  0  -0.375795  -0.714372  0  2.319125  0
O  O61  1  0.83756032  0.54168425  0.54502278  1  0  -0.803495  0  2.06652  0  0  -0.730791  0  2.309435  0  0  -0.7543  0  2.294964  0  0  -0.37581  -0.714455  0  2.319037  0
O  O62  1  0.54168996  0.83755825  0.04502094  1  0  -0.803368  0  2.066602  0  0  -0.730627  0  2.30955  0  0  -0.754135  0  2.295079  0  0  -0.37576  -0.714289  0  2.319152  0
O  O63  1  0.16244285  0.45831591  0.45497985  1  0  -0.803427  0  2.066455  0  0  -0.730705  0  2.3094  0  0  -0.754213  0  2.294927  0  0  -0.375746  -0.714373  0  2.319004  0
O  O64  1  0.90138356  0.37627162  0.30898824  1  0  -0.920476  0  1.829748  0  0  -0.868256  0  2.020907  0  0  -0.884427  0  1.985333  0  0  -0.60794  -0.856896  0  2.045884  0
O  O65  1  0.62373944  0.09861637  0.19101667  1  0  -0.920458  0  1.8298  0  0  -0.868222  0  2.020948  0  0  -0.884392  0  1.985375  0  0  -0.607919  -0.856863  0  2.045922  0
O  O66  1  0.09861476  0.62373247  0.69101221  1  0  -0.92058  0  1.829631  0  0  -0.868337  0  2.020877  0  0  -0.884504  0  1.985301  0  0  -0.607955  -0.85698  0  2.04585  0
O  O67  1  0.37626302  0.90138111  0.80898531  1  0  -0.920468  0  1.82977  0  0  -0.868201  0  2.021016  0  0  -0.88437  0  1.985444  0  0  -0.607899  -0.856843  0  2.04599  0
O  O68  1  0.93652339  0.82964343  0.45314426  1  0  -0.929115  0  1.914585  0  0  -0.877569  0  2.11349  0  0  -0.895215  0  2.08251  0  0  -0.627843  -0.865082  0  2.135045  0
O  O69  1  0.17035925  0.06348203  0.04685715  1  0  -0.929201  0  1.91454  0  0  -0.877618  0  2.113458  0  0  -0.895265  0  2.082477  0  0  -0.627837  -0.865131  0  2.135015  0
O  O70  1  0.06346650  0.17036328  0.54685411  1  0  -0.929094  0  1.914609  0  0  -0.877547  0  2.113494  0  0  -0.895194  0  2.082517  0  0  -0.627848  -0.865063  0  2.13505  0
O  O71  1  0.82964083  0.93652611  0.95314538  1  0  -0.929158  0  1.914533  0  0  -0.877578  0  2.113447  0  0  -0.895224  0  2.082469  0  0  -0.627901  -0.865094  0  2.135003  0
O  O72  1  0.93701341  0.90027879  0.14029287  1  0  -0.651729  0  2.042197  0  0  -0.573841  0  2.25218  0  0  -0.600464  0  2.240023  0  0  -0.299517  -0.555326  0  2.260161  0
O  O73  1  0.09971822  0.06299549  0.35970271  1  0  -0.651794  0  2.042127  0  0  -0.573813  0  2.252089  0  0  -0.60044  0  2.239934  0  0  -0.299481  -0.555295  0  2.260068  0
O  O74  1  0.06297475  0.09973596  0.85970757  1  0  -0.651954  0  2.042265  0  0  -0.573801  0  2.252236  0  0  -0.600419  0  2.240078  0  0  -0.2995  -0.555286  0  2.260209  0
O  O75  1  0.90027587  0.93700989  0.64029633  1  0  -0.651855  0  2.042068  0  0  -0.573782  0  2.252042  0  0  -0.600406  0  2.239887  0  0  -0.299507  -0.555268  0  2.260014  0
O  O76  1  0.35145290  0.38142203  0.84399688  1  0  -0.581744  0  1.920282  0  0  -0.535639  0  2.140957  0  0  -0.557912  0  2.130695  0  0  -0.296334  -0.520175  0  2.147671  0
O  O77  1  0.61856955  0.64853120  0.65600673  1  0  -0.58176  0  1.920379  0  0  -0.535693  0  2.141123  0  0  -0.557957  0  2.130823  0  0  -0.296362  -0.520228  0  2.147838  0
O  O78  1  0.64856373  0.61857533  0.15600331  1  0  -0.581682  0  1.920481  0  0  -0.535573  0  2.141169  0  0  -0.557835  0  2.130884  0  0  -0.296299  -0.520108  0  2.14788  0
O  O79  1  0.38141991  0.35145945  0.34398759  1  0  -0.581874  0  1.920388  0  0  -0.535776  0  2.141152  0  0  -0.55804  0  2.130861  0  0  -0.296414  -0.520309  0  2.147866  0
