# generated using pymatgen
data_NaDyH12(CO)12
_symmetry_space_group_name_H-M   'P 1'
_cell_length_a   6.83957332
_cell_length_b   7.47397367
_cell_length_c   15.62471905
_cell_angle_alpha   90.00016771
_cell_angle_beta   102.63538015
_cell_angle_gamma   90.00011347
_symmetry_Int_Tables_number   1
_chemical_formula_structural   NaDyH12(CO)12
_chemical_formula_sum   'Na2 Dy2 H24 C24 O24'
_cell_volume   779.37332151
_cell_formula_units_Z   2
loop_
 _symmetry_equiv_pos_site_id
 _symmetry_equiv_pos_as_xyz
  1  'x, y, z'
loop_
 _atom_site_type_symbol
 _atom_site_label
 _atom_site_symmetry_multiplicity
 _atom_site_fract_x
 _atom_site_fract_y
 _atom_site_fract_z
 _atom_site_occupancy
 _atom_site_hle17_bader_spin_density
 _atom_site_hle17_ddec_charge
 _atom_site_hle17_ddec_spin_density
 _atom_site_hle17_ddec_sum_bond_order
 _atom_site_hle17_magmom
 _atom_site_hse06_10hf_bader_spin_density
 _atom_site_hse06_10hf_ddec_charge
 _atom_site_hse06_10hf_ddec_spin_density
 _atom_site_hse06_10hf_ddec_sum_bond_order
 _atom_site_hse06_10hf_magmom
 _atom_site_hse06_bader_spin_density
 _atom_site_hse06_ddec_charge
 _atom_site_hse06_ddec_spin_density
 _atom_site_hse06_ddec_sum_bond_order
 _atom_site_hse06_magmom
 _atom_site_pbe_bader_spin_density
 _atom_site_pbe_cm5_charge
 _atom_site_pbe_ddec_charge
 _atom_site_pbe_ddec_spin_density
 _atom_site_pbe_ddec_sum_bond_order
 _atom_site_pbe_magmom
Na  Na0  1  0.14055788  0.74985645  0.28134801  1  0  0.927368  0  0.356469  0  0  0.899465  0  0.489368  0  0  0.907799  0  0.468808  0  0  0.696938  0.892958  0  0.504494  0
Na  Na1  1  0.85944081  0.24985400  0.71865131  1  0  0.927361  0  0.356496  0  0  0.899455  0  0.489398  0  0  0.907797  0  0.468844  0  0  0.696932  0.892933  0  0.504533  0
Dy  Dy2  1  0.30445111  0.25013681  0.60881448  1  0  2.206432  0  1.733651  0  0  2.058049  0  2.222054  0  0  2.105918  0  2.179668  0  0  1.543764  2.021197  0  2.255833  0
Dy  Dy3  1  0.69554608  0.75013559  0.39118789  1  0  2.20637  0  1.733506  0  0  2.058  0  2.221846  0  0  2.105859  0  2.179478  0  0  1.543739  2.021157  0  2.255633  0
H  H4  1  0.51353720  0.76852248  0.58299360  1  0  0.102868  0  0.92279  0  0  0.109324  0  0.981455  0  0  0.112737  0  0.978437  0  0  0.130821  0.106888  0  0.983691  0
H  H5  1  0.48645856  0.26852554  0.41700546  1  0  0.102939  0  0.922654  0  0  0.109307  0  0.981417  0  0  0.112719  0  0.978403  0  0  0.130811  0.106871  0  0.983656  0
H  H6  1  0.06932175  0.73177590  0.58309186  1  0  0.103553  0  0.922446  0  0  0.109958  0  0.980599  0  0  0.11327  0  0.977766  0  0  0.131325  0.107559  0  0.982736  0
H  H7  1  0.93067689  0.23177307  0.41690870  1  0  0.103516  0  0.922488  0  0  0.109944  0  0.980641  0  0  0.113251  0  0.977807  0  0  0.131298  0.107545  0  0.982774  0
H  H8  1  0.45771229  0.61591187  0.69985975  1  0  0.401356  0  0.890443  0  0  0.371713  0  0.965794  0  0  0.383911  0  0.95232  0  0  0.306107  0.363152  0  0.975077  0
H  H9  1  0.54228901  0.11590896  0.30013899  1  0  0.401356  0  0.89044  0  0  0.371715  0  0.965791  0  0  0.383913  0  0.952317  0  0  0.306115  0.363156  0  0.975072  0
H  H10  1  0.24225306  0.88430705  0.69986883  1  0  0.401615  0  0.890722  0  0  0.371796  0  0.966267  0  0  0.383941  0  0.952879  0  0  0.306386  0.363262  0  0.9755  0
H  H11  1  0.75774903  0.38430454  0.30013293  1  0  0.401811  0  0.890444  0  0  0.371933  0  0.966082  0  0  0.384085  0  0.952691  0  0  0.306442  0.363399  0  0.975326  0
H  H12  1  0.98988606  0.09789190  0.20742244  1  0  0.416456  0  0.872338  0  0  0.390274  0  0.929636  0  0  0.399079  0  0.916529  0  0  0.297402  0.384031  0  0.938932  0
H  H13  1  0.01010918  0.59789054  0.79257633  1  0  0.416506  0  0.872306  0  0  0.390327  0  0.929569  0  0  0.399133  0  0.91646  0  0  0.297426  0.384084  0  0.938866  0
H  H14  1  0.21750022  0.40162922  0.20750950  1  0  0.416522  0  0.871714  0  0  0.390346  0  0.929573  0  0  0.399156  0  0.916458  0  0  0.297018  0.384094  0  0.938881  0
H  H15  1  0.78249744  0.90162927  0.79248993  1  0  0.416534  0  0.871726  0  0  0.390364  0  0.929549  0  0  0.399172  0  0.916436  0  0  0.296994  0.384112  0  0.938859  0
H  H16  1  0.21281571  0.08640730  0.19589378  1  0  0.416922  0  0.88735  0  0  0.386529  0  0.951217  0  0  0.396581  0  0.936227  0  0  0.288892  0.379391  0  0.961863  0
H  H17  1  0.78718099  0.58641011  0.80410511  1  0  0.416879  0  0.887417  0  0  0.386481  0  0.951292  0  0  0.396534  0  0.9363  0  0  0.288852  0.379339  0  0.961943  0
H  H18  1  0.98303232  0.41317260  0.19598972  1  0  0.416234  0  0.888488  0  0  0.38545  0  0.953099  0  0  0.395507  0  0.938098  0  0  0.288312  0.378277  0  0.963802  0
H  H19  1  0.01696536  0.91317534  0.80401037  1  0  0.416266  0  0.888449  0  0  0.385481  0  0.953065  0  0  0.395538  0  0.938065  0  0  0.28831  0.378307  0  0.963771  0
H  H20  1  0.78395246  0.73818922  0.93947385  1  0  0.091315  0  0.965174  0  0  0.102019  0  1.026346  0  0  0.105461  0  1.024011  0  0  0.104729  0.099448  0  1.028263  0
H  H21  1  0.21605369  0.23818559  0.06052745  1  0  0.091339  0  0.965164  0  0  0.102021  0  1.02635  0  0  0.10548  0  1.023995  0  0  0.104763  0.099452  0  1.02827  0
H  H22  1  0.15516158  0.76165407  0.93944125  1  0  0.090653  0  0.964194  0  0  0.100871  0  1.02605  0  0  0.104252  0  1.023769  0  0  0.104072  0.098347  0  1.027929  0
H  H23  1  0.84483868  0.26165828  0.06055439  1  0  0.090668  0  0.96419  0  0  0.100858  0  1.026064  0  0  0.104238  0  1.023784  0  0  0.104054  0.098337  0  1.027941  0
H  H24  1  0.86559341  0.74338879  0.10298572  1  0  0.108144  0  0.954995  0  0  0.11874  0  1.015366  0  0  0.122038  0  1.013262  0  0  0.113124  0.116308  0  1.017068  0
H  H25  1  0.13440826  0.24338879  0.89701452  1  0  0.108153  0  0.955029  0  0  0.118747  0  1.015397  0  0  0.122049  0  1.013295  0  0  0.113136  0.116313  0  1.0171  0
H  H26  1  0.23675155  0.75643750  0.10295074  1  0  0.108431  0  0.955378  0  0  0.118758  0  1.016121  0  0  0.12204  0  1.014006  0  0  0.11358  0.116312  0  1.01786  0
H  H27  1  0.76324568  0.25643998  0.89704717  1  0  0.108417  0  0.955364  0  0  0.118731  0  1.01612  0  0  0.122014  0  1.014006  0  0  0.113573  0.116284  0  1.017857  0
C  C28  1  0.60474738  0.75009749  0.20983648  1  0  0.673073  0  3.888612  0  0  0.630766  0  4.172331  0  0  0.664667  0  4.164102  0  0  0.206365  0.607864  0  4.176963  0
C  C29  1  0.39525132  0.25009330  0.79016284  1  0  0.672972  0  3.888641  0  0  0.63068  0  4.172336  0  0  0.664577  0  4.16411  0  0  0.206301  0.607775  0  4.176963  0
C  C30  1  0.55596921  0.74996870  0.11252413  1  0  -0.054496  0  3.738874  0  0  -0.034413  0  3.973134  0  0  -0.042123  0  3.996282  0  0  -0.009498  -0.029414  0  3.957518  0
C  C31  1  0.44403698  0.24996787  0.88747463  1  0  -0.05446  0  3.738833  0  0  -0.034382  0  3.973091  0  0  -0.042089  0  3.996242  0  0  -0.009502  -0.029378  0  3.957463  0
C  C32  1  0.37662695  0.68687500  0.57322868  1  0  0.058434  0  3.599017  0  0  0.033581  0  3.845535  0  0  0.034843  0  3.850784  0  0  0.005428  0.032539  0  3.842052  0
C  C33  1  0.62336856  0.18687168  0.42677024  1  0  0.058408  0  3.598771  0  0  0.033689  0  3.845351  0  0  0.034948  0  3.850604  0  0  0.005497  0.032651  0  3.841868  0
C  C34  1  0.19647772  0.81338853  0.57325006  1  0  0.056171  0  3.600703  0  0  0.033247  0  3.845302  0  0  0.034342  0  3.850753  0  0  0.003745  0.032392  0  3.841586  0
C  C35  1  0.80352566  0.31338285  0.42674980  1  0  0.056221  0  3.600467  0  0  0.033265  0  3.84512  0  0  0.034371  0  3.850551  0  0  0.003778  0.032409  0  3.84141  0
C  C36  1  0.35218987  0.58720751  0.48652958  1  0  0.708653  0  3.830845  0  0  0.658182  0  4.132889  0  0  0.692766  0  4.121419  0  0  0.236615  0.634689  0  4.139855  0
C  C37  1  0.64781133  0.08720075  0.51347104  1  0  0.708831  0  3.83079  0  0  0.658065  0  4.133283  0  0  0.692649  0  4.121812  0  0  0.236557  0.634565  0  4.140245  0
C  C38  1  0.13418361  0.91302596  0.48655734  1  0  0.708703  0  3.831929  0  0  0.657657  0  4.13405  0  0  0.692377  0  4.122498  0  0  0.23621  0.634088  0  4.141018  0
C  C39  1  0.86581707  0.41303030  0.51344240  1  0  0.709093  0  3.831646  0  0  0.657965  0  4.133901  0  0  0.69269  0  4.122333  0  0  0.236298  0.634394  0  4.140876  0
C  C40  1  0.46437455  0.74994971  0.92912961  1  0  -0.064026  0  3.758719  0  0  -0.046015  0  4.000596  0  0  -0.052823  0  4.024799  0  0  -0.011885  -0.041479  0  3.984086  0
C  C41  1  0.53562715  0.24994539  0.07086935  1  0  -0.064115  0  3.758764  0  0  -0.046107  0  4.000683  0  0  -0.052916  0  4.024888  0  0  -0.011868  -0.041581  0  3.98419  0
C  C42  1  0.41545891  0.74997077  0.83115820  1  0  0.668722  0  3.830857  0  0  0.610031  0  4.133673  0  0  0.643831  0  4.125893  0  0  0.227453  0.587171  0  4.138083  0
C  C43  1  0.58454729  0.24996313  0.16884121  1  0  0.669009  0  3.830458  0  0  0.610244  0  4.13337  0  0  0.644044  0  4.12559  0  0  0.227603  0.58739  0  4.137783  0
C  C44  1  0.66462919  0.74355852  0.97549068  1  0  -0.064705  0  3.729571  0  0  -0.086425  0  3.976342  0  0  -0.088416  0  3.998036  0  0  -0.078307  -0.084941  0  3.96163  0
C  C45  1  0.33537398  0.24355355  0.02450906  1  0  -0.064781  0  3.729487  0  0  -0.086463  0  3.976274  0  0  -0.088467  0  3.997961  0  0  -0.078422  -0.084981  0  3.961569  0
C  C46  1  0.31045605  0.75636263  0.97548113  1  0  -0.064198  0  3.728678  0  0  -0.085489  0  3.975167  0  0  -0.087428  0  3.996857  0  0  -0.077851  -0.084042  0  3.960425  0
C  C47  1  0.68954116  0.25635965  0.02451870  1  0  -0.064167  0  3.728805  0  0  -0.085421  0  3.97528  0  0  -0.087361  0  3.99697  0  0  -0.077802  -0.083976  0  3.960544  0
C  C48  1  0.71053159  0.74569521  0.06660225  1  0  -0.057034  0  3.699505  0  0  -0.08109  0  3.945512  0  0  -0.081681  0  3.966382  0  0  -0.073927  -0.080517  0  3.93135  0
C  C49  1  0.28947160  0.24569437  0.93339685  1  0  -0.057003  0  3.699453  0  0  -0.081062  0  3.945454  0  0  -0.081659  0  3.966333  0  0  -0.073867  -0.080488  0  3.931286  0
C  C50  1  0.35548293  0.75418568  0.06659827  1  0  -0.055663  0  3.699717  0  0  -0.07945  0  3.945512  0  0  -0.079971  0  3.966291  0  0  -0.07337  -0.078898  0  3.93138  0
C  C51  1  0.64452177  0.25418014  0.93340291  1  0  -0.055676  0  3.699687  0  0  -0.079451  0  3.945459  0  0  -0.079974  0  3.966236  0  0  -0.073404  -0.078898  0  3.931323  0
O  O52  1  0.46454022  0.74365781  0.25238234  1  0  -0.743024  0  1.999  0  0  -0.696347  0  2.248994  0  0  -0.720134  0  2.238223  0  0  -0.442891  -0.679463  0  2.255778  0
O  O53  1  0.53545697  0.24365495  0.74761619  1  0  -0.743056  0  1.999136  0  0  -0.696386  0  2.249132  0  0  -0.720177  0  2.238366  0  0  -0.442875  -0.679493  0  2.255887  0
O  O54  1  0.78754434  0.75665655  0.25226667  1  0  -0.740985  0  2.001805  0  0  -0.694033  0  2.251106  0  0  -0.717826  0  2.240363  0  0  -0.44103  -0.677158  0  2.25788  0
O  O55  1  0.21245288  0.25665711  0.74773251  1  0  -0.740898  0  2.001754  0  0  -0.693944  0  2.251051  0  0  -0.717738  0  2.240313  0  0  -0.441011  -0.677071  0  2.25782  0
O  O56  1  0.28946272  0.42813009  0.48379524  1  0  -0.665219  0  2.033952  0  0  -0.613647  0  2.282409  0  0  -0.638104  0  2.271647  0  0  -0.365827  -0.596543  0  2.28924  0
O  O57  1  0.71053200  0.92814036  0.51620778  1  0  -0.665189  0  2.03431  0  0  -0.613546  0  2.282943  0  0  -0.637991  0  2.272173  0  0  -0.365793  -0.596444  0  2.289772  0
O  O58  1  0.19420515  0.07207576  0.48377994  1  0  -0.664745  0  2.033567  0  0  -0.613523  0  2.282477  0  0  -0.637965  0  2.271627  0  0  -0.365679  -0.596431  0  2.289346  0
O  O59  1  0.80579451  0.57205945  0.51621986  1  0  -0.664827  0  2.03402  0  0  -0.613547  0  2.282961  0  0  -0.637988  0  2.272109  0  0  -0.365597  -0.596456  0  2.289835  0
O  O60  1  0.09434686  0.01426352  0.19947988  1  0  -0.870917  0  1.757229  0  0  -0.835559  0  1.916588  0  0  -0.849743  0  1.885717  0  0  -0.658047  -0.825456  0  1.938374  0
O  O61  1  0.90564664  0.51426251  0.80051797  1  0  -0.870912  0  1.757239  0  0  -0.835555  0  1.916585  0  0  -0.849743  0  1.885714  0  0  -0.658029  -0.82545  0  1.938371  0
O  O62  1  0.10513003  0.48527938  0.19961675  1  0  -0.870655  0  1.756397  0  0  -0.835038  0  1.91614  0  0  -0.849228  0  1.885276  0  0  -0.657522  -0.824905  0  1.937985  0
O  O63  1  0.89486787  0.98528235  0.80038410  1  0  -0.870688  0  1.756357  0  0  -0.835078  0  1.916084  0  0  -0.849267  0  1.885233  0  0  -0.657501  -0.82495  0  1.937925  0
O  O64  1  0.39492996  0.55644795  0.64143389  1  0  -0.66466  0  2.184834  0  0  -0.614025  0  2.435196  0  0  -0.630877  0  2.421505  0  0  -0.450931  -0.601694  0  2.444226  0
O  O65  1  0.60506965  0.05644552  0.35856588  1  0  -0.664726  0  2.184896  0  0  -0.614077  0  2.435217  0  0  -0.630928  0  2.421528  0  0  -0.450974  -0.601745  0  2.44425  0
O  O66  1  0.24666739  0.94379866  0.64146128  1  0  -0.664719  0  2.185561  0  0  -0.614328  0  2.435379  0  0  -0.631076  0  2.421793  0  0  -0.450836  -0.602074  0  2.444308  0
O  O67  1  0.75333039  0.44379649  0.35853950  1  0  -0.664913  0  2.185377  0  0  -0.614472  0  2.435188  0  0  -0.631232  0  2.421607  0  0  -0.450885  -0.602214  0  2.444123  0
O  O68  1  0.39505280  0.66905404  0.42140359  1  0  -0.775841  0  2.078029  0  0  -0.732472  0  2.353068  0  0  -0.756301  0  2.33826  0  0  -0.441386  -0.715429  0  2.362479  0
O  O69  1  0.60494264  0.16906633  0.57859914  1  0  -0.776029  0  2.077733  0  0  -0.732515  0  2.352839  0  0  -0.756348  0  2.338027  0  0  -0.441412  -0.715468  0  2.362242  0
O  O70  1  0.02615678  0.83119637  0.42144045  1  0  -0.775364  0  2.07831  0  0  -0.731847  0  2.353428  0  0  -0.755625  0  2.338423  0  0  -0.44072  -0.714859  0  2.362963  0
O  O71  1  0.97385113  0.33117856  0.57856563  1  0  -0.775687  0  2.077861  0  0  -0.73213  0  2.35301  0  0  -0.755918  0  2.338005  0  0  -0.440881  -0.715132  0  2.362538  0
O  O72  1  0.23722504  0.79012851  0.79022086  1  0  -0.64349  0  2.006581  0  0  -0.57203  0  2.219769  0  0  -0.598099  0  2.209252  0  0  -0.300032  -0.553837  0  2.226549  0
O  O73  1  0.76277828  0.29012277  0.20977896  1  0  -0.643685  0  2.006422  0  0  -0.572148  0  2.21963  0  0  -0.598215  0  2.209104  0  0  -0.30011  -0.553961  0  2.22642  0
O  O74  1  0.55282857  0.70977662  0.79025602  1  0  -0.641818  0  2.007019  0  0  -0.570974  0  2.220342  0  0  -0.597036  0  2.209789  0  0  -0.298503  -0.552772  0  2.227107  0
O  O75  1  0.44717751  0.20977032  0.20974140  1  0  -0.6419  0  2.006828  0  0  -0.571041  0  2.220198  0  0  -0.597108  0  2.209653  0  0  -0.298592  -0.55284  0  2.22696  0
