# generated using pymatgen
data_GdH6(C3O4)2
_symmetry_space_group_name_H-M   'P 1'
_cell_length_a   8.38879174
_cell_length_b   10.40398710
_cell_length_c   10.67886052
_cell_angle_alpha   115.77085137
_cell_angle_beta   89.96610971
_cell_angle_gamma   89.98947631
_symmetry_Int_Tables_number   1
_chemical_formula_structural   GdH6(C3O4)2
_chemical_formula_sum   'Gd4 H24 C24 O32'
_cell_volume   839.31898642
_cell_formula_units_Z   4
loop_
 _symmetry_equiv_pos_site_id
 _symmetry_equiv_pos_as_xyz
  1  'x, y, z'
loop_
 _atom_site_type_symbol
 _atom_site_label
 _atom_site_symmetry_multiplicity
 _atom_site_fract_x
 _atom_site_fract_y
 _atom_site_fract_z
 _atom_site_occupancy
 _atom_site_hle17_ddec_charge
 _atom_site_hle17_ddec_spin_density
 _atom_site_hle17_ddec_sum_bond_order
 _atom_site_hle17_magmom
 _atom_site_hse06_10hf_ddec_charge
 _atom_site_hse06_10hf_ddec_spin_density
 _atom_site_hse06_10hf_ddec_sum_bond_order
 _atom_site_hse06_10hf_magmom
 _atom_site_hse06_ddec_charge
 _atom_site_hse06_ddec_spin_density
 _atom_site_hse06_ddec_sum_bond_order
 _atom_site_hse06_magmom
 _atom_site_pbe_cm5_charge
 _atom_site_pbe_ddec_charge
 _atom_site_pbe_ddec_spin_density
 _atom_site_pbe_ddec_sum_bond_order
 _atom_site_pbe_magmom
Gd  Gd0  1  0.02258737  0.12854329  0.30223205  1  2.222154  0.000745  1.803162  0.002  2.13749  0.005838  2.161002  0.006  2.18616  0.004339  2.111435  0.005  1.5008  2.094066  0.00608  2.209768  0.006
Gd  Gd1  1  0.52219533  0.37146655  0.69782216  1  2.222603  0.015877  1.80331  0.015  2.137525  0.021695  2.161806  0.019  2.186113  0.019326  2.112251  0.017  1.501055  2.094077  0.023014  2.210681  0.02
Gd  Gd2  1  0.97743115  0.87143703  0.69772778  1  2.222309  0.015751  1.803394  0.015  2.137201  0.021633  2.161777  0.019  2.185834  0.019194  2.112166  0.017  1.500672  2.093697  0.022685  2.210677  0.019
Gd  Gd3  1  0.47782193  0.62855860  0.30229900  1  2.222454  -0.001171  1.802878  -0.002  2.137557  -0.005928  2.161016  -0.006  2.186168  -0.004654  2.111491  -0.005  1.500963  2.09411  -0.00613  2.209842  -0.006
H  H4  1  0.90433189  0.58851128  0.19655512  1  0.144952  -0.000482  0.936924  -0.001  0.15387  0.000269  1.000017  0.0  0.157356  -3.9e-05  0.998506  0.0  0.113069  0.151243  0.000447  1.001375  0.0
H  H5  1  0.40360792  0.91157008  0.80353272  1  0.144996  -0.000761  0.93668  -0.001  0.154054  -0.000209  0.999516  0.0  0.157514  -0.000483  0.998022  0.0  0.113176  0.151425  -6.6e-05  1.000873  0.0
H  H6  1  0.09569135  0.41161846  0.80348205  1  0.144677  -0.000443  0.936801  -0.001  0.153713  0.000445  0.999744  0.0  0.157173  9.8e-05  0.998256  0.0  0.112961  0.15108  0.00061  1.001114  0.0
H  H7  1  0.59631040  0.08849351  0.19657946  1  0.144683  0.000763  0.937031  0.001  0.153777  0.00035  0.999843  0.0  0.157254  0.000567  0.99833  0.0  0.113063  0.151162  0.000166  1.00117  0.0
H  H8  1  0.10050700  0.58659522  0.13058652  1  0.134103  0.007945  0.937703  0.007  0.144038  0.009097  1.001069  0.007  0.146901  0.008615  0.999969  0.007  0.110455  0.141914  0.009273  1.002178  0.007
H  H9  1  0.59969213  0.91326429  0.86943848  1  0.133887  0.007769  0.937816  0.007  0.143893  0.00878  1.001273  0.007  0.14675  0.008344  1.000134  0.007  0.110434  0.141809  0.008909  1.002363  0.007
H  H10  1  0.89946741  0.41332428  0.86937471  1  0.134081  0.007965  0.93774  0.007  0.143971  0.009163  1.001188  0.007  0.146815  0.008668  1.000091  0.007  0.110481  0.141859  0.009356  1.002289  0.007
H  H11  1  0.40026435  0.08668296  0.13066374  1  0.133809  -0.008013  0.938149  -0.007  0.143852  -0.008989  1.001526  -0.007  0.146743  -0.008586  1.000347  -0.007  0.110462  0.141772  -0.009091  1.002613  -0.007
H  H12  1  0.99329719  0.67113526  0.96976219  1  0.140202  0.013184  0.903019  0.011  0.1589  0.014531  0.952066  0.011  0.161204  0.013831  0.951611  0.011  0.117078  0.157143  0.015075  0.952736  0.012
H  H13  1  0.49213543  0.82918033  0.03021427  1  0.139629  0.013017  0.903602  0.011  0.158712  0.014189  0.951992  0.011  0.161029  0.013532  0.951464  0.01  0.116826  0.15695  0.014776  0.952647  0.011
H  H14  1  0.00640190  0.32865515  0.03012758  1  0.139864  0.013273  0.90319  0.011  0.158957  0.01463  0.951765  0.011  0.161268  0.013919  0.951269  0.011  0.117059  0.157208  0.015194  0.952431  0.012
H  H15  1  0.50802374  0.17068363  0.96980674  1  0.139856  -0.013454  0.903273  -0.011  0.15881  -0.014549  0.951754  -0.011  0.161157  -0.01395  0.951193  -0.01  0.116882  0.157025  -0.015079  0.952461  -0.011
H  H16  1  0.79734219  0.68379534  0.03070014  1  0.150637  -0.001499  0.909936  -0.001  0.162528  -0.000108  0.969134  0.0  0.16634  -0.000499  0.966679  0.0  0.118872  0.159485  0.000136  0.971527  0.0
H  H17  1  0.29617707  0.81595319  0.96924954  1  0.15109  -0.001608  0.909442  -0.001  0.162643  -0.00032  0.968847  0.0  0.166442  -0.000697  0.966416  0.0  0.11893  0.159636  -7.7e-05  0.971194  0.0
H  H18  1  0.20249979  0.31644012  0.96947830  1  0.150694  -0.002138  0.909845  -0.001  0.162668  -0.001417  0.968861  0.0  0.166464  -0.001573  0.966425  0.0  0.118893  0.159669  -0.001279  0.971197  0.0
H  H19  1  0.70387470  0.18416482  0.03100364  1  0.151188  0.002164  0.909795  0.001  0.162596  0.001559  0.969311  0.0  0.166385  0.001697  0.966913  0.0  0.118931  0.159588  0.001422  0.97166  0.0
H  H20  1  0.15815199  0.42158371  0.48523552  1  0.446201  0.00198  0.83594  0.0  0.420524  0.002194  0.891233  0.0  0.430234  0.001935  0.877158  0.0  0.315587  0.413469  0.002417  0.901495  0.001
H  H21  1  0.65802266  0.07849456  0.51466311  1  0.446095  0.001976  0.836207  0.0  0.420486  0.002306  0.891281  0.001  0.430165  0.001995  0.877253  0.0  0.315647  0.413456  0.002588  0.901497  0.001
H  H22  1  0.84185465  0.57844357  0.51461311  1  0.446347  -0.002005  0.835783  0.0  0.420681  -0.002206  0.891056  0.0  0.430375  -0.001962  0.877013  0.0  0.315725  0.413615  -0.002417  0.901331  0.0
H  H23  1  0.34186113  0.92157544  0.48532163  1  0.445995  0.001945  0.83632  0.0  0.420332  0.002243  0.891557  0.001  0.430017  0.001944  0.877525  0.0  0.315446  0.413285  0.002507  0.901799  0.001
H  H24  1  0.18962146  0.39489926  0.33201735  1  0.451558  -7e-05  0.82039  0.0  0.423445  -0.000453  0.887932  0.0  0.432847  -0.000367  0.873924  0.0  0.315671  0.416628  -0.000508  0.898077  0.0
H  H25  1  0.68941450  0.10504459  0.66780698  1  0.451793  -5.5e-05  0.820135  0.0  0.42359  0.000397  0.88779  0.0  0.433007  0.000301  0.873761  0.0  0.315754  0.416736  0.000468  0.898  0.0
H  H26  1  0.81057834  0.60487716  0.66777367  1  0.451872  6.8e-05  0.820075  0.0  0.423713  0.000487  0.887555  0.0  0.433117  0.000394  0.873545  0.0  0.315829  0.416898  0.000526  0.897699  0.0
H  H27  1  0.31061835  0.89486421  0.33211600  1  0.45165  -5.7e-05  0.820126  0.0  0.423472  0.0004  0.887925  0.0  0.432885  0.000314  0.873901  0.0  0.315627  0.416627  0.000483  0.898115  0.0
C  C28  1  0.08485835  0.68218281  0.35239624  1  0.816525  0.000115  3.756497  0.0  0.774258  0.000793  4.045899  0.001  0.810655  0.000583  4.032379  0.001  0.247292  0.749422  0.001021  4.053417  0.001
C  C29  1  0.58447337  0.81787240  0.64766448  1  0.816249  0.00016  3.756537  0.0  0.773667  0.000925  4.046389  0.001  0.810055  0.000692  4.03285  0.001  0.246614  0.748826  0.001071  4.053918  0.001
C  C30  1  0.91517327  0.31789143  0.64755935  1  0.816952  1.3e-05  3.756246  0.0  0.774782  0.000788  4.045522  0.001  0.811221  0.000576  4.031926  0.001  0.247573  0.749906  0.00096  4.053091  0.001
C  C31  1  0.41552841  0.18211860  0.35241506  1  0.815734  -0.00025  3.757339  -0.001  0.773651  -0.000743  4.046585  -0.001  0.810009  -0.000593  4.033085  -0.001  0.246659  0.748826  -0.00083  4.054093  -0.001
C  C32  1  0.97855892  0.78386867  0.19041924  1  0.384115  0.142581  3.654358  0.069  0.368223  0.159945  3.929078  0.08  0.379541  0.152708  3.941447  0.072  0.107477  0.359905  0.163934  3.920886  0.085
C  C33  1  0.47787554  0.71607226  0.80952980  1  0.382976  0.142218  3.655949  0.069  0.366799  0.159649  3.931112  0.08  0.377924  0.152481  3.943657  0.072  0.107469  0.358512  0.163383  3.922842  0.084
C  C34  1  0.02155379  0.21609882  0.80949862  1  0.383873  0.142926  3.653415  0.069  0.367601  0.160488  3.928883  0.08  0.378755  0.15305  3.941388  0.073  0.107433  0.359345  0.164611  3.920565  0.085
C  C35  1  0.52199156  0.28388888  0.19049125  1  0.383534  -0.145901  3.656024  -0.069  0.367075  -0.162195  3.931576  -0.079  0.378294  -0.155823  3.944094  -0.072  0.107193  0.358797  -0.165195  3.923297  -0.084
C  C36  1  0.01454396  0.65062743  0.21122803  1  -0.39644  0.007778  3.644639  0.004  -0.436195  0.013172  3.88375  0.006  -0.444862  0.012769  3.889864  0.007  -0.167003  -0.429861  0.013508  3.87957  0.006
C  C37  1  0.51383065  0.84937657  0.78877716  1  -0.395735  0.007203  3.644004  0.004  -0.435586  0.01208  3.883465  0.006  -0.444224  0.011763  3.889637  0.006  -0.166775  -0.429311  0.012032  3.879406  0.006
C  C38  1  0.98551390  0.34940304  0.78872869  1  -0.396075  0.007846  3.642802  0.004  -0.435813  0.013281  3.882093  0.006  -0.444488  0.012894  3.888346  0.006  -0.166865  -0.429488  0.013677  3.877951  0.006
C  C39  1  0.48609961  0.15063472  0.21128665  1  -0.395465  -0.007268  3.644399  -0.004  -0.435329  -0.011849  3.883546  -0.006  -0.443928  -0.011836  3.88956  -0.006  -0.1667  -0.429076  -0.011186  3.879491  -0.005
C  C40  1  0.79585506  0.86491050  0.30650236  1  0.685985  0.241074  3.748616  0.136  0.644765  0.207946  4.060092  0.111  0.68255  0.21916  4.051256  0.117  0.293059  0.618505  0.199723  4.065641  0.106
C  C41  1  0.29555538  0.63505622  0.69350558  1  0.687098  0.240833  3.748722  0.136  0.645646  0.207846  4.06065  0.111  0.683444  0.219045  4.051769  0.117  0.29303  0.619317  0.199162  4.066224  0.106
C  C42  1  0.20416702  0.13512959  0.69346968  1  0.686737  0.240922  3.749566  0.136  0.64566  0.208098  4.060752  0.111  0.683466  0.219038  4.051892  0.117  0.293055  0.619372  0.199797  4.066317  0.106
C  C43  1  0.70448097  0.36495932  0.30658248  1  0.6868  -0.247157  3.747736  -0.137  0.645401  -0.211225  4.059817  -0.111  0.683224  -0.223825  4.050832  -0.117  0.293007  0.61908  -0.201801  4.065411  -0.106
C  C44  1  0.90842780  0.74525608  0.04583106  1  -0.386243  0.023728  3.626702  0.016  -0.426681  0.026953  3.869722  0.016  -0.434662  0.026272  3.875057  0.016  -0.158437  -0.420922  0.027663  3.866408  0.016
C  C45  1  0.40754896  0.75475842  0.95418352  1  -0.386492  0.023518  3.626228  0.016  -0.426354  0.026317  3.868585  0.016  -0.434339  0.02568  3.874034  0.016  -0.158142  -0.42057  0.026967  3.86519  0.016
C  C46  1  0.09154063  0.25475201  0.95417987  1  -0.386009  0.02326  3.626065  0.016  -0.426636  0.025759  3.869045  0.016  -0.43455  0.025266  3.874381  0.016  -0.158307  -0.420909  0.026428  3.865682  0.016
C  C47  1  0.59243375  0.24521338  0.04591318  1  -0.386716  -0.023433  3.627481  -0.016  -0.426223  -0.025264  3.86954  -0.015  -0.434247  -0.025083  3.875005  -0.016  -0.157988  -0.42043  -0.025638  3.866161  -0.015
C  C48  1  0.87994713  0.86690080  0.00594636  1  0.787214  -0.00119  3.801841  -0.001  0.742812  0.000359  4.102297  0.0  0.77791  6.1e-05  4.090391  0.0  0.234925  0.718695  0.00053  4.108953  0.0
C  C49  1  0.37958880  0.63312077  0.99417699  1  0.787698  -0.00119  3.801549  -0.001  0.742782  0.0004  4.102446  0.0  0.777876  8e-05  4.090596  0.0  0.235266  0.718661  0.000578  4.109095  0.0
C  C50  1  0.12012148  0.13305603  0.99397074  1  0.787245  -0.001689  3.803761  -0.001  0.743025  -0.000832  4.104005  0.0  0.77811  -0.000881  4.092084  0.0  0.234993  0.718889  -0.000884  4.110689  0.0
C  C51  1  0.62034980  0.36685210  0.00590893  1  0.787329  0.001758  3.802624  0.001  0.742487  0.001176  4.103391  0.0  0.777593  0.001115  4.091529  0.0  0.234971  0.718373  0.001299  4.110051  0.0
O  O52  1  0.21382757  0.61985656  0.35648569  1  -0.750016  -0.001062  2.043121  -0.001  -0.707761  -0.001251  2.300534  -0.001  -0.732875  -0.000776  2.285038  -0.001  -0.409944  -0.688378  -0.001241  2.310036  -0.001
O  O53  1  0.71348763  0.88017611  0.64371365  1  -0.749705  0.001283  2.042514  0.001  -0.707177  0.002494  2.299993  0.002  -0.732322  0.001595  2.284601  0.002  -0.409383  -0.687782  0.003845  2.309602  0.004
O  O54  1  0.78615155  0.38023157  0.64359941  1  -0.750412  0.000911  2.04339  0.001  -0.708074  0.001638  2.300623  0.002  -0.733207  0.000982  2.28512  0.001  -0.41005  -0.68866  0.002395  2.310185  0.002
O  O55  1  0.28648549  0.11991736  0.35646268  1  -0.749495  0.00135  2.043092  0.001  -0.707189  0.002104  2.300274  0.002  -0.732339  0.001317  2.284898  0.001  -0.409563  -0.687802  0.003215  2.309843  0.003
O  O56  1  0.00918619  0.76760352  0.45880527  1  -0.720143  0.000994  2.012942  0.001  -0.680857  0.001794  2.270553  0.001  -0.706324  0.001178  2.256497  0.001  -0.393739  -0.660925  0.002677  2.278976  0.002
O  O57  1  0.50906179  0.73247529  0.54122364  1  -0.72022  0.000172  2.013317  0.0  -0.680955  0.000655  2.271115  0.0  -0.706486  0.000432  2.25715  0.0  -0.393861  -0.661065  0.000476  2.279591  0.0
O  O58  1  0.99083470  0.23247606  0.54114042  1  -0.720099  0.000284  2.012887  0.0  -0.680989  0.00062  2.270469  0.0  -0.706518  0.000278  2.25645  0.0  -0.393864  -0.661053  0.001487  2.278921  0.001
O  O59  1  0.49095312  0.26752425  0.45883329  1  -0.719911  0.001532  2.01358  0.002  -0.681048  0.002078  2.271395  0.002  -0.706533  0.001508  2.257387  0.002  -0.393746  -0.661185  0.002901  2.27988  0.003
O  O60  1  0.70296520  0.77120987  0.29770632  1  -0.551925  0.170276  2.136826  0.15  -0.513559  0.166936  2.389763  0.145  -0.538399  0.167696  2.380641  0.148  -0.28305  -0.495946  0.165524  2.3959  0.142
O  O61  1  0.20255077  0.72869524  0.70227548  1  -0.552537  0.170474  2.137043  0.15  -0.513934  0.16701  2.389806  0.145  -0.538778  0.16777  2.380717  0.148  -0.283111  -0.496325  0.165482  2.396074  0.142
O  O62  1  0.29700440  0.22887826  0.70233196  1  -0.552191  0.170314  2.137343  0.15  -0.513823  0.167085  2.390097  0.145  -0.538621  0.167594  2.380903  0.148  -0.283046  -0.496165  0.165935  2.396256  0.143
O  O63  1  0.79758693  0.27135443  0.29773524  1  -0.552687  -0.174653  2.137117  -0.15  -0.513816  -0.169514  2.389426  -0.144  -0.538667  -0.171248  2.380265  -0.148  -0.283193  -0.496251  -0.167078  2.395783  -0.141
O  O64  1  0.86765509  0.83137361  0.87639281  1  -0.737509  0.002437  2.045156  0.002  -0.693978  0.00374  2.304809  0.003  -0.720435  0.002791  2.29277  0.002  -0.409469  -0.673817  0.005801  2.312615  0.005
O  O65  1  0.36802638  0.66861477  0.12377632  1  -0.737647  0.002381  2.046175  0.002  -0.693854  0.003558  2.30613  0.003  -0.720344  0.002599  2.294099  0.002  -0.409908  -0.673739  0.004367  2.313968  0.003
O  O66  1  0.13248982  0.16852343  0.12349707  1  -0.737201  0.000456  2.045656  0.001  -0.694139  0.000459  2.305515  0.001  -0.720601  7.8e-05  2.293583  0.0  -0.409487  -0.673964  0.001316  2.3133  0.002
O  O67  1  0.63194203  0.33136236  0.87631609  1  -0.73759  0.001022  2.046287  0.001  -0.693805  0.001903  2.306224  0.002  -0.720316  0.00128  2.294184  0.001  -0.409861  -0.673732  0.001898  2.314102  0.002
O  O68  1  0.80317333  0.99636619  0.36470752  1  -0.580351  0.084152  2.095655  0.075  -0.536682  0.083327  2.32695  0.072  -0.561031  0.08301  2.317909  0.074  -0.27134  -0.519675  0.083125  2.333351  0.071
O  O69  1  0.30301759  0.50359941  0.63519727  1  -0.580567  0.083524  2.095272  0.075  -0.536652  0.082612  2.326581  0.072  -0.561064  0.082289  2.317554  0.073  -0.271343  -0.519612  0.082448  2.333046  0.071
O  O70  1  0.19680351  0.00367924  0.63511697  1  -0.58055  0.083525  2.096063  0.075  -0.536774  0.082797  2.327147  0.072  -0.561137  0.082323  2.318066  0.073  -0.271024  -0.519759  0.082832  2.333655  0.071
O  O71  1  0.69696155  0.49642148  0.36486872  1  -0.580562  -0.08631  2.09582  -0.075  -0.536774  -0.084411  2.327279  -0.072  -0.561169  -0.084697  2.31822  -0.073  -0.27122  -0.519685  -0.083726  2.333742  -0.071
O  O72  1  0.08260025  0.88752588  0.23843853  1  -0.620813  0.293298  1.99674  0.25  -0.591964  0.276278  2.251326  0.23  -0.606169  0.288528  2.243601  0.244  -0.368985  -0.581035  0.266507  2.256883  0.219
O  O73  1  0.58200856  0.61242683  0.76149466  1  -0.620284  0.294559  1.997722  0.251  -0.591353  0.277372  2.252105  0.231  -0.60535  0.289584  2.24438  0.245  -0.36913  -0.580445  0.268073  2.257636  0.22
O  O74  1  0.91753158  0.11241065  0.76133604  1  -0.620914  0.294619  1.996599  0.251  -0.59191  0.27773  2.251343  0.231  -0.606094  0.289639  2.24377  0.245  -0.369023  -0.580872  0.268705  2.256783  0.221
O  O75  1  0.41783711  0.38751724  0.23847327  1  -0.620327  -0.300617  1.997279  -0.249  -0.591505  -0.280529  2.251858  -0.229  -0.605547  -0.294674  2.244124  -0.244  -0.368765  -0.58061  -0.268926  2.257369  -0.217
O  O76  1  0.86535688  0.99374402  0.09895029  1  -0.735324  -0.00014  2.050263  0.0  -0.696398  0.000121  2.304716  0.0  -0.721588  -0.000431  2.293981  0.0  -0.381476  -0.677394  0.001088  2.311639  0.001
O  O77  1  0.36465275  0.50630965  0.90115790  1  -0.735642  -0.000183  2.049543  0.001  -0.696678  0.000865  2.30432  0.001  -0.721867  -0.000119  2.293554  0.001  -0.381362  -0.677657  0.001597  2.311257  0.002
O  O78  1  0.13475348  0.00624162  0.90088348  1  -0.735356  -0.000757  2.051144  0.0  -0.696375  -0.000192  2.305441  0.001  -0.721524  -0.000779  2.294676  0.0  -0.38144  -0.677367  0.000489  2.312386  0.001
O  O79  1  0.63525249  0.49366643  0.09887975  1  -0.735474  0.000785  2.049242  0.0  -0.696584  0.001069  2.303948  0.001  -0.721784  0.001039  2.293209  0.001  -0.381359  -0.677612  0.000996  2.310898  0.001
O  O80  1  0.11412356  0.37367796  0.39074924  1  -0.885136  -4.7e-05  1.888785  0.001  -0.846981  -0.000784  2.08275  0.001  -0.865465  -0.000138  2.052726  0.001  -0.631022  -0.83263  -0.001589  2.104366  0.0
O  O81  1  0.61392754  0.12633536  0.60917879  1  -0.885172  0.00748  1.888521  0.006  -0.847014  0.010918  2.082468  0.009  -0.865403  0.008964  2.052344  0.007  -0.631206  -0.832808  0.012709  2.104232  0.01
O  O82  1  0.88594150  0.62628633  0.60908112  1  -0.885436  0.00078  1.888262  0.0  -0.847267  0.001776  2.082149  0.001  -0.865743  0.000922  2.052072  0.0  -0.631181  -0.832866  0.002995  2.103805  0.002
O  O83  1  0.38605638  0.87366418  0.39083975  1  -0.88507  0.006639  1.888614  0.005  -0.846946  0.009849  2.082749  0.008  -0.865335  0.008067  2.052607  0.006  -0.630995  -0.832677  0.011381  2.104485  0.009
