# generated using pymatgen
data_ZnH16C22N4O
_symmetry_space_group_name_H-M   'P 1'
_cell_length_a   11.54298030
_cell_length_b   13.40712172
_cell_length_c   15.41287265
_cell_angle_alpha   90.00010739
_cell_angle_beta   98.74804175
_cell_angle_gamma   90.00005795
_symmetry_Int_Tables_number   1
_chemical_formula_structural   ZnH16C22N4O
_chemical_formula_sum   'Zn4 H64 C88 N16 O4'
_cell_volume   2357.51902059
_cell_formula_units_Z   4
loop_
 _symmetry_equiv_pos_site_id
 _symmetry_equiv_pos_as_xyz
  1  'x, y, z'
loop_
 _atom_site_type_symbol
 _atom_site_label
 _atom_site_symmetry_multiplicity
 _atom_site_fract_x
 _atom_site_fract_y
 _atom_site_fract_z
 _atom_site_occupancy
 _atom_site_pbe_bader_charge
 _atom_site_pbe_bader_spin_density
 _atom_site_pbe_cm5_charge
 _atom_site_pbe_ddec_charge
 _atom_site_pbe_ddec_spin_density
 _atom_site_pbe_ddec_sum_bond_order
 _atom_site_pbe_magmom
Zn  Zn0  1  0.11941536  0.91364344  0.56614674  1  1.248854  0  0.713953  0.707753  0  2.384489  0
Zn  Zn1  1  0.38058380  0.41364348  0.43385325  1  1.248854  0  0.713978  0.707786  0  2.384499  0
Zn  Zn2  1  0.88058324  0.08635645  0.43385338  1  1.248947  0  0.713942  0.707746  0  2.384525  0
Zn  Zn3  1  0.61941655  0.58635641  0.56614642  1  1.248857  0  0.713947  0.707745  0  2.384502  0
H  H4  1  0.53502491  0.59243031  0.84259440  1  0.05378  0  0.097245  0.10675  0  1.018584  0
H  H5  1  0.96497576  0.09243057  0.15740550  1  0.053766  0  0.097244  0.106753  0  1.018587  0
H  H6  1  0.46497719  0.40756958  0.15740611  1  0.053864  0  0.09724  0.10676  0  1.018601  0
H  H7  1  0.03502371  0.90757007  0.84259536  1  0.053871  0  0.09727  0.106814  0  1.018536  0
H  H8  1  0.70773402  0.46676663  0.89542958  1  0.081878  0  0.097964  0.114759  0  1.01213  0
H  H9  1  0.79226635  0.96676650  0.10456961  1  0.081862  0  0.097971  0.11475  0  1.012123  0
H  H10  1  0.29226633  0.53323400  0.10456879  1  0.08185  0  0.097946  0.114715  0  1.012139  0
H  H11  1  0.20773399  0.03323414  0.89543201  1  0.081823  0  0.097956  0.114724  0  1.012114  0
H  H12  1  0.87159825  0.37423743  0.81482164  1  0.074855  0  0.100384  0.116015  0  1.011847  0
H  H13  1  0.62840111  0.87423659  0.18517663  1  0.074827  0  0.100393  0.116048  0  1.011783  0
H  H14  1  0.12840122  0.62576246  0.18517663  1  0.07484  0  0.100369  0.116  0  1.011854  0
H  H15  1  0.37159836  0.12576330  0.81482359  1  0.074824  0  0.100385  0.11603  0  1.011794  0
H  H16  1  0.91783496  0.37180126  0.65145864  1  0.082061  0  0.097839  0.109605  0  1.044181  0
H  H17  1  0.58216440  0.87180072  0.34854028  1  0.082041  0  0.097837  0.109592  0  1.044212  0
H  H18  1  0.08216539  0.62819863  0.34853973  1  0.082047  0  0.097846  0.109644  0  1.04419  0
H  H19  1  0.41783420  0.12819842  0.65146114  1  0.082052  0  0.097849  0.109657  0  1.044154  0
H  H20  1  0.97335196  0.36914133  0.49095670  1  0.10822  0  0.101529  0.121623  0  1.03312  0
H  H21  1  0.52664739  0.86914035  0.50904221  1  0.108239  0  0.101522  0.121601  0  1.033096  0
H  H22  1  0.02665014  0.63085856  0.50904446  1  0.108127  0  0.10153  0.121604  0  1.033151  0
H  H23  1  0.47335033  0.13085880  0.49095586  1  0.108117  0  0.101533  0.121605  0  1.033148  0
H  H24  1  0.88598659  0.45905752  0.33804512  1  0.063905  0  0.100409  0.113719  0  1.023771  0
H  H25  1  0.61401290  0.95905694  0.66195396  1  0.063925  0  0.100421  0.113754  0  1.02377  0
H  H26  1  0.11401551  0.54094163  0.66195410  1  0.063968  0  0.100418  0.113731  0  1.023766  0
H  H27  1  0.38598482  0.04094146  0.33804541  1  0.063948  0  0.100425  0.113748  0  1.023742  0
H  H28  1  0.69969319  0.57639278  0.28775130  1  0.023574  0  0.101568  0.108841  0  1.004884  0
H  H29  1  0.80030571  0.07639260  0.71224838  1  0.023579  0  0.101571  0.108852  0  1.004891  0
H  H30  1  0.30030628  0.42360636  0.71224762  1  0.023603  0  0.101591  0.108887  0  1.004874  0
H  H31  1  0.19969289  0.92360580  0.28775238  1  0.023612  0  0.101583  0.108886  0  1.00487  0
H  H32  1  0.51500758  0.68783043  0.23176192  1  0.060644  0  0.100515  0.113706  0  1.007298  0
H  H33  1  0.98499236  0.18783053  0.76823741  1  0.060644  0  0.100523  0.113715  0  1.007318  0
H  H34  1  0.48499364  0.31216871  0.76823720  1  0.060669  0  0.100504  0.113685  0  1.007289  0
H  H35  1  0.01500535  0.81216861  0.23176326  1  0.060675  0  0.100507  0.113683  0  1.007292  0
H  H36  1  0.34192345  0.76987490  0.30996465  1  0.066992  0  0.099946  0.114568  0  1.023805  0
H  H37  1  0.15807636  0.26987380  0.69003518  1  0.067003  0  0.099921  0.114509  0  1.023808  0
H  H38  1  0.65807778  0.23012574  0.69003512  1  0.066989  0  0.099942  0.114543  0  1.023848  0
H  H39  1  0.84192136  0.73012460  0.30996549  1  0.066965  0  0.099945  0.114548  0  1.02381  0
H  H40  1  0.29301252  0.77076488  0.47273275  1  0.06935  0  0.106388  0.119437  0  1.031765  0
H  H41  1  0.20698729  0.27076496  0.52726838  1  0.069338  0  0.106382  0.119441  0  1.031782  0
H  H42  1  0.70698870  0.22923427  0.52726702  1  0.069341  0  0.106377  0.119417  0  1.031802  0
H  H43  1  0.79301130  0.72923418  0.47273369  1  0.06934  0  0.106372  0.119449  0  1.031795  0
H  H44  1  0.49641777  0.84103387  0.73324184  1  0.025093  0  0.091852  0.128926  0  1.00575  0
H  H45  1  0.00358302  0.34103322  0.26675886  1  0.025095  0  0.091848  0.128924  0  1.005779  0
H  H46  1  0.50358170  0.15896677  0.26675838  1  0.02509  0  0.091869  0.128956  0  1.005739  0
H  H47  1  0.99641733  0.65896667  0.73324080  1  0.025085  0  0.091843  0.128911  0  1.005771  0
H  H48  1  0.37046087  0.86386054  0.78459629  1  0.054184  0  0.090484  0.133217  0  1.025401  0
H  H49  1  0.12953908  0.36386064  0.21540371  1  0.054189  0  0.090491  0.133222  0  1.025435  0
H  H50  1  0.62953860  0.13613934  0.21540393  1  0.0542  0  0.090486  0.133209  0  1.025407  0
H  H51  1  0.87046126  0.63613925  0.78459596  1  0.054197  0  0.09049  0.133211  0  1.025408  0
H  H52  1  0.49106595  0.79344883  0.84041169  1  0.046521  0  0.088054  0.120255  0  1.001528  0
H  H53  1  0.00893389  0.29344869  0.15958883  1  0.046525  0  0.088043  0.120247  0  1.001557  0
H  H54  1  0.50893439  0.20655181  0.15958928  1  0.046525  0  0.088048  0.120238  0  1.001566  0
H  H55  1  0.99106646  0.70655120  0.84041149  1  0.046516  0  0.088037  0.120227  0  1.001578  0
H  H56  1  0.34613104  0.65730622  0.86364029  1  0.023106  0  0.085561  0.115441  0  1.007368  0
H  H57  1  0.15386859  0.15730542  0.13635998  1  0.023111  0  0.085556  0.11545  0  1.007383  0
H  H58  1  0.65386843  0.34269516  0.13635992  1  0.023101  0  0.085539  0.115417  0  1.007375  0
H  H59  1  0.84613175  0.84269522  0.86364099  1  0.02309  0  0.085558  0.115459  0  1.007408  0
H  H60  1  0.22724377  0.72136981  0.79980293  1  0.04232  0  0.091637  0.129806  0  1.013779  0
H  H61  1  0.27275596  0.22137000  0.20019617  1  0.042313  0  0.091642  0.129845  0  1.013779  0
H  H62  1  0.77275570  0.27863008  0.20019535  1  0.042315  0  0.091621  0.129781  0  1.013797  0
H  H63  1  0.72724438  0.77863064  0.79980415  1  0.042332  0  0.091635  0.129825  0  1.013787  0
H  H64  1  0.26179098  0.59707690  0.77201995  1  0.034666  0  0.085807  0.115882  0  1.032017  0
H  H65  1  0.23821032  0.09707711  0.22798041  1  0.034664  0  0.085802  0.115878  0  1.032028  0
H  H66  1  0.73821025  0.40292224  0.22798046  1  0.03467  0  0.085807  0.115866  0  1.032032  0
H  H67  1  0.76179003  0.90292352  0.77201926  1  0.034657  0  0.085816  0.115893  0  1.032022  0
C  C68  1  0.39075036  0.70180467  0.58301223  1  0.390757  0  0.083971  0.102215  0  4.04744  0
C  C69  1  0.10925022  0.20180593  0.41698823  1  0.390775  0  0.083958  0.102184  0  4.047356  0
C  C70  1  0.60925086  0.29819522  0.41698819  1  0.390774  0  0.083974  0.102193  0  4.047436  0
C  C71  1  0.89074926  0.79819471  0.58301264  1  0.390773  0  0.084001  0.102262  0  4.047303  0
C  C72  1  0.31718928  0.73806603  0.64583370  1  0.942763  0  0.166675  0.329168  0  3.919735  0
C  C73  1  0.18281223  0.23806647  0.35416627  1  0.942783  0  0.166703  0.329214  0  3.919738  0
C  C74  1  0.68281195  0.26193385  0.35416607  1  0.942778  0  0.166706  0.329176  0  3.919808  0
C  C75  1  0.81718811  0.76193416  0.64583469  1  0.942756  0  0.166676  0.329137  0  3.919837  0
C  C76  1  0.38108223  0.71114539  0.73701475  1  -0.003868  0  -0.014295  0.069769  0  3.856665  0
C  C77  1  0.11891836  0.21114633  0.26298507  1  -0.003911  0  -0.014278  0.069802  0  3.856655  0
C  C78  1  0.61891724  0.28885524  0.26298546  1  -0.003848  0  -0.014305  0.069766  0  3.856666  0
C  C79  1  0.88108198  0.78885506  0.73701460  1  -0.003875  0  -0.014307  0.069788  0  3.85676  0
C  C80  1  0.47591123  0.64213656  0.71326980  1  0.470008  0  0.107688  0.195523  0  3.971169  0
C  C81  1  0.02408838  0.14213597  0.28672979  1  0.470023  0  0.107695  0.195446  0  3.971215  0
C  C82  1  0.52408737  0.35786333  0.28672967  1  0.469992  0  0.107743  0.195527  0  3.971248  0
C  C83  1  0.97591284  0.85786243  0.71327062  1  0.470015  0  0.10776  0.195547  0  3.97124  0
C  C84  1  0.55027672  0.58724345  0.77458309  1  -0.026521  0  -0.105815  -0.275704  0  3.991211  0
C  C85  1  0.94972395  0.08724309  0.22541616  1  -0.02662  0  -0.105808  -0.275664  0  3.991204  0
C  C86  1  0.44972363  0.41275644  0.22541658  1  -0.026779  0  -0.105836  -0.275759  0  3.991342  0
C  C87  1  0.05027640  0.91275605  0.77458481  1  -0.026806  0  -0.105855  -0.275794  0  3.991252  0
C  C88  1  0.64390493  0.52590070  0.75955294  1  0.456876  0  0.09133  0.244814  0  4.096927  0
C  C89  1  0.85609564  0.02590030  0.24044620  1  0.456819  0  0.091325  0.244823  0  4.096939  0
C  C90  1  0.35609542  0.47409994  0.24044608  1  0.457  0  0.091279  0.244808  0  4.096994  0
C  C91  1  0.14390558  0.97409959  0.75955552  1  0.456889  0  0.091263  0.244791  0  4.097022  0
C  C92  1  0.71818166  0.46971872  0.82658055  1  -0.085107  0  -0.112949  -0.210005  0  4.010114  0
C  C93  1  0.78181784  0.96971798  0.17341920  1  -0.084956  0  -0.112964  -0.209995  0  4.01018  0
C  C94  1  0.28181869  0.53028117  0.17341912  1  -0.085098  0  -0.112946  -0.209959  0  4.010111  0
C  C95  1  0.21818251  0.03028191  0.82658242  1  -0.084992  0  -0.112944  -0.209966  0  4.010114  0
C  C96  1  0.80075896  0.42288167  0.78600497  1  -0.127703  0  -0.106303  -0.191437  0  4.003958  0
C  C97  1  0.69924047  0.92288169  0.21399339  1  -0.127523  0  -0.106306  -0.191476  0  4.003964  0
C  C98  1  0.19924051  0.57711748  0.21399330  1  -0.127513  0  -0.106262  -0.191414  0  4.003924  0
C  C99  1  0.30075988  0.07711820  0.78600692  1  -0.127517  0  -0.106297  -0.191423  0  4.003926  0
C  C100  1  0.77761311  0.45081000  0.69431334  1  0.41646  0  0.085248  0.22756  0  4.09159  0
C  C101  1  0.72238636  0.95081024  0.30568507  1  0.416252  0  0.085308  0.227618  0  4.091428  0
C  C102  1  0.22238899  0.54919138  0.30568523  1  0.416464  0  0.085335  0.22763  0  4.091433  0
C  C103  1  0.27761311  0.04919114  0.69431514  1  0.416446  0  0.085339  0.227568  0  4.091524  0
C  C104  1  0.84494476  0.42246159  0.63070510  1  -0.005069  0  -0.083592  -0.225626  0  3.918268  0
C  C105  1  0.65505467  0.92246117  0.36929326  1  -0.005055  0  -0.083619  -0.225631  0  3.918094  0
C  C106  1  0.15505471  0.57753979  0.36929446  1  -0.005061  0  -0.083669  -0.225742  0  3.918149  0
C  C107  1  0.34494568  0.07753872  0.63070576  1  -0.005013  0  -0.083653  -0.225718  0  3.918177  0
C  C108  1  0.82815845  0.45153112  0.54245897  1  0.410507  0  0.09148  0.236481  0  4.06436  0
C  C109  1  0.67184103  0.95153089  0.45754009  1  0.410691  0  0.09148  0.236486  0  4.064284  0
C  C110  1  0.17184365  0.54847026  0.45754155  1  0.410909  0  0.091474  0.236463  0  4.064412  0
C  C111  1  0.32815756  0.04846900  0.54245937  1  0.410925  0  0.091473  0.236489  0  4.064382  0
C  C112  1  0.89900168  0.41936907  0.47803521  1  -0.09934  0  -0.095613  -0.155824  0  3.935212  0
C  C113  1  0.60099774  0.91936892  0.52196444  1  -0.099394  0  -0.095598  -0.155767  0  3.935147  0
C  C114  1  0.10100042  0.58063231  0.52196465  1  -0.099138  0  -0.095634  -0.155771  0  3.935235  0
C  C115  1  0.39899997  0.08063171  0.47803688  1  -0.099179  0  -0.095584  -0.155732  0  3.935211  0
C  C116  1  0.85392462  0.46436072  0.40055851  1  -0.025985  0  -0.106948  -0.193905  0  3.968562  0
C  C117  1  0.64607488  0.96436078  0.59944058  1  -0.025992  0  -0.106972  -0.194019  0  3.968614  0
C  C118  1  0.14607748  0.53563991  0.59944071  1  -0.025995  0  -0.106949  -0.19399  0  3.968529  0
C  C119  1  0.35392371  0.03563985  0.40056019  1  -0.025939  0  -0.106981  -0.194012  0  3.968564  0
C  C120  1  0.75452406  0.52302728  0.41716246  1  0.428309  0  0.083809  0.222722  0  4.105279  0
C  C121  1  0.74547563  0.02302677  0.58283722  1  0.428298  0  0.08385  0.222873  0  4.105195  0
C  C122  1  0.24547804  0.47697410  0.58283546  1  0.428266  0  0.083926  0.222998  0  4.105043  0
C  C123  1  0.25452209  0.97697312  0.41716475  1  0.428134  0  0.083855  0.222851  0  4.105087  0
C  C124  1  0.67970299  0.57744453  0.35468907  1  0.018931  0  -0.086078  -0.234978  0  3.962049  0
C  C125  1  0.82029591  0.07744347  0.64531061  1  0.018943  0  -0.0861  -0.235059  0  3.96211  0
C  C126  1  0.32029736  0.42255685  0.64530995  1  0.018895  0  -0.08612  -0.23511  0  3.962133  0
C  C127  1  0.17970181  0.92255642  0.35469005  1  0.018879  0  -0.086087  -0.235056  0  3.962149  0
C  C128  1  0.57991743  0.63081017  0.36777735  1  0.400746  0  0.083884  0.225135  0  4.09132  0
C  C129  1  0.92008243  0.13080917  0.63222187  1  0.400758  0  0.083882  0.225117  0  4.091346  0
C  C130  1  0.42008029  0.36918749  0.63222137  1  0.400821  0  0.083884  0.225061  0  4.091401  0
C  C131  1  0.07991967  0.86918774  0.36777864  1  0.400822  0  0.083896  0.225086  0  4.091404  0
C  C132  1  0.50366503  0.68419736  0.30038696  1  -0.0712  0  -0.103402  -0.185416  0  3.983012  0
C  C133  1  0.99633578  0.18419508  0.69961377  1  -0.070987  0  -0.103373  -0.18537  0  3.982939  0
C  C134  1  0.49633794  0.31580402  0.69961236  1  -0.071157  0  -0.103398  -0.185383  0  3.983095  0
C  C135  1  0.00366194  0.81580332  0.30038755  1  -0.071161  0  -0.103384  -0.185355  0  3.983055  0
C  C136  1  0.41626613  0.72558581  0.33958690  1  -0.051396  0  -0.100622  -0.177367  0  3.965379  0
C  C137  1  0.08373449  0.22558459  0.66041230  1  -0.05159  0  -0.100629  -0.177328  0  3.965391  0
C  C138  1  0.58373597  0.27441408  0.66041232  1  -0.051463  0  -0.100624  -0.177325  0  3.965568  0
C  C139  1  0.91626410  0.77441381  0.33958782  1  -0.051408  0  -0.100623  -0.177325  0  3.965474  0
C  C140  1  0.43876076  0.69739792  0.43099666  1  0.423192  0  0.091148  0.233846  0  4.072993  0
C  C141  1  0.06123981  0.19739797  0.56900378  1  0.423189  0  0.091167  0.233835  0  4.073081  0
C  C142  1  0.56124134  0.30259973  0.56900385  1  0.423076  0  0.091086  0.233752  0  4.073084  0
C  C143  1  0.93876054  0.80260192  0.43099848  1  0.423986  0  0.091142  0.233845  0  4.073052  0
C  C144  1  0.37004597  0.72506609  0.49437714  1  0.075826  0  -0.084763  -0.214259  0  3.962162  0
C  C145  1  0.12995377  0.22506681  0.50562326  1  0.075826  0  -0.084764  -0.214255  0  3.962199  0
C  C146  1  0.62995525  0.27493306  0.50562328  1  0.075901  0  -0.084736  -0.214175  0  3.962198  0
C  C147  1  0.87004482  0.77493234  0.49437751  1  0.075793  0  -0.084798  -0.214369  0  3.962245  0
C  C148  1  0.43849098  0.80893602  0.77623389  1  -0.072861  0  -0.231459  -0.389508  0  3.857099  0
C  C149  1  0.06150889  0.30893682  0.22376601  1  -0.072822  0  -0.231466  -0.389512  0  3.857183  0
C  C150  1  0.56150849  0.19106386  0.22376568  1  -0.072877  0  -0.231466  -0.389492  0  3.857106  0
C  C151  1  0.93849146  0.69106381  0.77623431  1  -0.072866  0  -0.231438  -0.389445  0  3.857137  0
C  C152  1  0.29934001  0.66855910  0.79678898  1  -0.050936  0  -0.238074  -0.393289  0  3.923351  0
C  C153  1  0.20066052  0.16855923  0.20321141  1  -0.050933  0  -0.23808  -0.393341  0  3.923401  0
C  C154  1  0.70066034  0.33144079  0.20321069  1  -0.050933  0  -0.238054  -0.393229  0  3.92333  0
C  C155  1  0.79934071  0.83144141  0.79678900  1  -0.050924  0  -0.238085  -0.393359  0  3.923477  0
N  N156  1  0.47998996  0.64426444  0.62589201  1  -1.197239  0  -0.323329  -0.29528  0  3.414797  0
N  N157  1  0.02000965  0.14426404  0.37410759  1  -1.19728  0  -0.32332  -0.295227  0  3.414781  0
N  N158  1  0.52001038  0.35573545  0.37410766  1  -1.19721  0  -0.323326  -0.295237  0  3.414816  0
N  N159  1  0.97998982  0.85573585  0.62589262  1  -1.197226  0  -0.323355  -0.295277  0  3.414784  0
N  N160  1  0.68099532  0.51232501  0.68041291  1  -1.208197  0  -0.36366  -0.368954  0  3.426862  0
N  N161  1  0.81900435  0.01232549  0.31958610  1  -1.208161  0  -0.363695  -0.369016  0  3.426917  0
N  N162  1  0.31900415  0.48767488  0.31958601  1  -1.20833  0  -0.363696  -0.368995  0  3.426894  0
N  N163  1  0.18099775  0.98767514  0.68041571  1  -1.208323  0  -0.363685  -0.368975  0  3.426907  0
N  N164  1  0.74164491  0.51479741  0.50406507  1  -1.205972  0  -0.365366  -0.384793  0  3.426728  0
N  N165  1  0.75835389  0.01479673  0.49593450  1  -1.206098  0  -0.365374  -0.384833  0  3.426733  0
N  N166  1  0.25835719  0.48520546  0.49593350  1  -1.206401  0  -0.365416  -0.384898  0  3.426853  0
N  N167  1  0.24164383  0.98520391  0.50406746  1  -1.20624  0  -0.36539  -0.384846  0  3.426739  0
N  N168  1  0.53846188  0.64008814  0.44672076  1  -1.217313  0  -0.360657  -0.387429  0  3.419055  0
N  N169  1  0.96153887  0.14008701  0.55327858  1  -1.217352  0  -0.360682  -0.387448  0  3.419099  0
N  N170  1  0.46154022  0.35991175  0.55327846  1  -1.217293  0  -0.360644  -0.38739  0  3.41896  0
N  N171  1  0.03846060  0.85991214  0.44672228  1  -1.218108  0  -0.360668  -0.387407  0  3.41906  0
O  O172  1  0.22308287  0.78348960  0.63144036  1  -1.14574  0  -0.253442  -0.393747  0  2.346201  0
O  O173  1  0.27691784  0.28349089  0.36855894  1  -1.145783  0  -0.253447  -0.393781  0  2.34627  0
O  O174  1  0.77691835  0.21651029  0.36855941  1  -1.145773  0  -0.25344  -0.393752  0  2.346265  0
O  O175  1  0.72308251  0.71651049  0.63144202  1  -1.145762  0  -0.253425  -0.393725  0  2.346268  0
