# generated using pymatgen
data_CuH10C12(SN2)2
_symmetry_space_group_name_H-M   'P 1'
_cell_length_a   8.45021787
_cell_length_b   8.83059230
_cell_length_c   15.26298136
_cell_angle_alpha   92.21433000
_cell_angle_beta   97.06658759
_cell_angle_gamma   115.23837689
_symmetry_Int_Tables_number   1
_chemical_formula_structural   CuH10C12(SN2)2
_chemical_formula_sum   'Cu3 H30 C36 S6 N12'
_cell_volume   1017.10654535
_cell_formula_units_Z   3
loop_
 _symmetry_equiv_pos_site_id
 _symmetry_equiv_pos_as_xyz
  1  'x, y, z'
loop_
 _atom_site_type_symbol
 _atom_site_label
 _atom_site_symmetry_multiplicity
 _atom_site_fract_x
 _atom_site_fract_y
 _atom_site_fract_z
 _atom_site_occupancy
 _atom_site_hle17_ddec_charge
 _atom_site_hle17_ddec_spin_density
 _atom_site_hle17_ddec_sum_bond_order
 _atom_site_hle17_magmom
 _atom_site_hse06_10hf_ddec_charge
 _atom_site_hse06_10hf_ddec_spin_density
 _atom_site_hse06_10hf_ddec_sum_bond_order
 _atom_site_hse06_10hf_magmom
 _atom_site_hse06_ddec_charge
 _atom_site_hse06_ddec_spin_density
 _atom_site_hse06_ddec_sum_bond_order
 _atom_site_hse06_magmom
 _atom_site_pbe_cm5_charge
 _atom_site_pbe_ddec_charge
 _atom_site_pbe_ddec_spin_density
 _atom_site_pbe_ddec_sum_bond_order
 _atom_site_pbe_magmom
Cu  Cu0  1  0.17007131  0.17654691  0.16211909  1  0.794258  0.699479  2.072126  0.494  0.77926  0.806252  2.474881  0.629  0.863779  0.8794  2.406234  0.711  0.766797  0.727042  0.748603  2.521398  0.57
Cu  Cu1  1  0.82993770  0.82346905  0.83788923  1  0.794627  -0.743198  2.071844  -0.494  0.779307  -0.844807  2.474793  -0.629  0.863825  -0.93077  2.406045  -0.711  0.766836  0.727046  -0.777458  2.521422  -0.57
Cu  Cu2  1  0.49999046  0.49996504  0.49999022  1  0.805474  0.714117  2.060077  0.503  0.783564  0.801407  2.466028  0.624  0.867546  0.871976  2.395454  0.703  0.77766  0.732213  0.749276  2.513602  0.569
H  H3  1  0.00521642  0.90926315  0.28461953  1  0.079185  0.000927  0.959475  0.001  0.086608  0.001043  1.025825  0.001  0.087377  0.000736  1.025517  0.001  0.111376  0.085696  0.001269  1.026382  0.002
H  H4  1  0.99478067  0.09075026  0.71537155  1  0.079131  -0.001043  0.959531  -0.001  0.086592  -0.001124  1.025832  -0.001  0.087363  -0.000809  1.025525  -0.001  0.111394  0.08568  -0.001353  1.026395  -0.002
H  H5  1  0.72095653  0.78160544  0.34759787  1  0.109641  0.000478  0.976098  0.001  0.117136  0.000499  1.038129  0.001  0.118982  0.000334  1.039867  0.0  0.103652  0.115725  0.000629  1.037169  0.001
H  H6  1  0.27905194  0.21839911  0.65240560  1  0.109653  -0.000777  0.976047  -0.001  0.117119  -0.000682  1.0381  -0.001  0.118963  -0.000494  1.039842  -0.001  0.103637  0.115719  -0.000823  1.037126  -0.001
H  H7  1  0.49347480  0.88978922  0.30937878  1  0.095703  0.00031  0.949836  0.001  0.10637  -8e-06  1.010389  0.0  0.108093  -4.6e-05  1.009039  0.0  0.10351  0.104844  5.1e-05  1.011756  0.0
H  H8  1  0.50652073  0.11019780  0.69062738  1  0.095746  -0.00037  0.949904  -0.001  0.106386  -4.6e-05  1.010487  0.0  0.108119  -1e-06  1.00913  0.0  0.103519  0.10486  -0.000106  1.011862  0.0
H  H9  1  0.55981884  0.12289259  0.21052154  1  0.111275  0.000472  0.974711  0.001  0.117833  0.000506  1.037922  0.001  0.119815  0.000341  1.039333  0.0  0.103502  0.116374  0.000636  1.037141  0.001
H  H10  1  0.44015473  0.87709081  0.78947978  1  0.111261  -0.000512  0.974733  -0.001  0.117869  -0.000524  1.037897  -0.001  0.11985  -0.000355  1.039306  0.0  0.103548  0.116408  -0.000653  1.037118  -0.001
H  H11  1  0.85176193  0.23865962  0.15423080  1  0.077181  0.001135  0.971725  0.002  0.082663  0.001039  1.040886  0.001  0.083582  0.00072  1.040555  0.001  0.109557  0.081729  0.001302  1.04142  0.002
H  H12  1  0.14820149  0.76133014  0.84576340  1  0.077316  -0.000884  0.97162  -0.002  0.082819  -0.00099  1.040777  -0.001  0.083744  -0.000718  1.040437  -0.001  0.109559  0.081887  -0.001188  1.04131  -0.002
H  H13  1  0.53036677  0.45427286  0.21123936  1  0.077604  0.001144  0.967129  0.002  0.084743  0.001101  1.035535  0.002  0.085173  0.000745  1.034996  0.001  0.111649  0.084092  0.001386  1.036246  0.002
H  H14  1  0.46965650  0.54573532  0.78876256  1  0.077645  -0.001322  0.967043  -0.002  0.084852  -0.001191  1.035373  -0.002  0.085282  -0.000834  1.034835  -0.001  0.111689  0.0842  -0.00146  1.036087  -0.002
H  H15  1  0.81451257  0.58513597  0.14728538  1  0.096585  0.000695  0.984725  0.001  0.103122  0.000651  1.05204  0.001  0.105668  0.000465  1.052251  0.001  0.095125  0.101032  0.00079  1.052257  0.001
H  H16  1  0.18550846  0.41484948  0.85271528  1  0.096624  -0.00068  0.984733  -0.001  0.103134  -0.000647  1.052061  -0.001  0.105679  -0.000464  1.052272  -0.001  0.095129  0.101045  -0.000778  1.052282  -0.001
H  H17  1  0.82490060  0.46541368  0.99737270  1  0.098566  0.000439  0.937746  0.001  0.110785  8.8e-05  0.996002  0.0  0.112221  2.1e-05  0.995287  0.0  0.10541  0.109537  0.000176  0.996793  0.0
H  H18  1  0.17510674  0.53457566  0.00262383  1  0.098629  -0.000507  0.937768  -0.001  0.110829  -0.000107  0.996024  0.0  0.112266  -3.7e-05  0.995308  0.0  0.1054  0.10958  -0.000196  0.99682  0.0
H  H19  1  0.55363764  0.22249622  0.91749707  1  0.099551  0.000788  0.979352  0.001  0.104909  0.000619  1.048302  0.001  0.107202  0.000397  1.049038  0.001  0.097434  0.10307  0.000809  1.048064  0.001
H  H20  1  0.44635720  0.77749956  0.08249874  1  0.099548  -0.000681  0.979395  -0.001  0.104851  -0.000654  1.048418  -0.001  0.107142  -0.000445  1.04916  -0.001  0.097381  0.103024  -0.000814  1.048162  -0.001
H  H21  1  0.27984228  0.10908611  0.98988554  1  0.084805  0.001295  0.953792  0.002  0.093954  0.001212  1.015587  0.002  0.094117  0.000847  1.015844  0.001  0.115284  0.093419  0.001492  1.015769  0.002
H  H22  1  0.72016445  0.89090961  0.01011763  1  0.084754  -0.001387  0.953769  -0.002  0.09392  -0.001268  1.015524  -0.002  0.094083  -0.000896  1.015782  -0.001  0.115267  0.093383  -0.001549  1.015716  -0.002
H  H23  1  0.34025306  0.58001825  0.64459421  1  0.079085  0.001244  0.969193  0.002  0.085015  0.001081  1.03847  0.001  0.085439  0.000756  1.038036  0.001  0.111839  0.084443  0.001337  1.039042  0.002
H  H24  1  0.65978770  0.41992508  0.35537877  1  0.079148  0.001146  0.96881  0.002  0.08513  0.001058  1.038024  0.002  0.085551  0.00073  1.037589  0.001  0.111796  0.084561  0.001327  1.038602  0.002
H  H25  1  0.03882933  0.48258705  0.69111531  1  0.096185  0.0008  0.988089  0.001  0.102345  0.000586  1.056618  0.001  0.104829  0.000387  1.057029  0.0  0.094248  0.100439  0.000766  1.056526  0.001
H  H26  1  0.96121625  0.51744854  0.30886510  1  0.096277  0.000827  0.988116  0.001  0.102273  0.000613  1.056795  0.001  0.104756  0.000416  1.057208  0.001  0.094166  0.100379  0.000788  1.056697  0.001
H  H27  1  0.77883849  0.25427640  0.59359504  1  0.095226  0.000327  0.949521  0.001  0.10566  2e-05  1.011367  0.0  0.107312  -3.3e-05  1.010229  0.0  0.101877  0.10425  9e-05  1.012504  0.0
H  H28  1  0.22117752  0.74575715  0.40640887  1  0.095219  0.000279  0.949444  0.001  0.105681  1.6e-05  1.011245  0.0  0.10733  -3.2e-05  1.010112  0.0  0.1019  0.104267  7.6e-05  1.012383  0.0
H  H29  1  0.82778408  0.13550491  0.45356729  1  0.098935  0.00058  0.979197  0.001  0.105079  0.000584  1.046887  0.001  0.107155  0.000417  1.047818  0.001  0.098144  0.103447  0.000713  1.046513  0.001
H  H30  1  0.17216927  0.86448373  0.54643275  1  0.098845  0.000775  0.979205  0.001  0.105064  0.000693  1.046838  0.001  0.107173  0.000484  1.047738  0.001  0.098153  0.103395  0.000865  1.046498  0.001
H  H31  1  0.13619128  0.25017609  0.41547204  1  0.084043  0.00109  0.955227  0.002  0.091216  0.001047  1.020312  0.002  0.091473  0.00071  1.020535  0.001  0.11369  0.090748  0.001322  1.020398  0.002
H  H32  1  0.86374578  0.74974684  0.58450788  1  0.083829  0.001247  0.955167  0.002  0.091131  0.00117  1.02013  0.002  0.091381  0.000829  1.020354  0.001  0.113667  0.090664  0.001434  1.020219  0.002
C  C33  1  0.64410433  0.84704100  0.65559114  1  0.2842  0.009094  4.047446  0.006  0.283861  -0.001446  4.3568  -0.006  0.311313  -2.7e-05  4.367254  -0.004  0.143536  0.265394  -0.002393  4.34874  -0.007
C  C34  1  0.35592744  0.15305197  0.34443667  1  0.284069  -0.010075  4.047917  -0.006  0.283678  0.001187  4.357154  0.006  0.311122  -0.000277  4.367602  0.004  0.143481  0.265227  0.002213  4.349083  0.007
C  C35  1  0.03265579  0.82076652  0.01902471  1  0.291037  0.010395  4.035109  0.007  0.289831  -0.00204  4.352122  -0.006  0.317327  -0.000485  4.362811  -0.004  0.147562  0.2711  -0.002962  4.343453  -0.008
C  C36  1  0.96735164  0.17921532  0.98098216  1  0.291051  -0.011659  4.035055  -0.007  0.289916  0.001664  4.352151  0.006  0.317415  8.9e-05  4.362843  0.004  0.147654  0.271181  0.002617  4.343467  0.008
C  C37  1  0.90315953  0.95310815  0.27042385  1  0.117956  -0.006596  3.703773  -0.006  0.093426  -0.000648  3.949505  -0.001  0.10245  -0.001964  3.970536  -0.003  0.0451  0.087711  0.000355  3.935735  0.0
C  C38  1  0.09683403  0.04690279  0.72957087  1  0.117968  0.00588  3.70401  0.006  0.093387  0.000453  3.949774  0.001  0.10241  0.001722  3.970811  0.003  0.045026  0.08767  -0.000506  3.93601  0.0
C  C39  1  0.74501551  0.88258980  0.30491104  1  -0.121375  0.009488  3.715287  0.01  -0.127075  0.004357  3.952104  0.005  -0.134809  0.003938  3.973508  0.005  -0.084884  -0.122043  0.004766  3.937873  0.005
C  C40  1  0.25498347  0.11740975  0.69508710  1  -0.121289  -0.009636  3.715246  -0.009  -0.127011  -0.004527  3.952165  -0.005  -0.134745  -0.004196  3.973578  -0.005  -0.084851  -0.121982  -0.004817  3.937926  -0.005
C  C41  1  0.61848163  0.94287226  0.28362012  1  0.005943  -0.009172  3.714233  -0.008  -0.011355  -0.003261  3.95538  -0.003  -0.006866  -0.003567  3.973172  -0.003  -0.062547  -0.01448  -0.003014  3.94387  -0.003
C  C42  1  0.38150850  0.05712109  0.71638253  1  0.00585  0.008571  3.714411  0.008  -0.011478  0.003097  3.95562  0.003  -0.007  0.003351  3.97341  0.003  -0.062568  -0.014599  0.002898  3.944115  0.003
C  C43  1  0.65534204  0.07278690  0.22886395  1  -0.120131  0.009566  3.712269  0.01  -0.126076  0.004091  3.949408  0.005  -0.133864  0.003712  3.970729  0.004  -0.084168  -0.121058  0.0045  3.935235  0.005
C  C44  1  0.34463387  0.92719898  0.77113430  1  -0.119897  -0.009938  3.712145  -0.01  -0.125909  -0.004236  3.949358  -0.005  -0.133695  -0.003892  3.97068  -0.004  -0.084144  -0.12089  -0.004597  3.935186  -0.005
C  C45  1  0.81676418  0.13763422  0.19734580  1  0.120352  -0.006365  3.697995  -0.006  0.096258  -0.000876  3.942673  -0.002  0.105261  -0.002201  3.96331  -0.003  0.043328  0.090608  0.000188  3.929081  0.0
C  C46  1  0.18320573  0.86235925  0.80264630  1  0.12006  0.006025  3.697755  0.006  0.095882  0.000701  3.942516  0.002  0.104879  0.00194  3.963164  0.003  0.043297  0.090239  -0.000269  3.928913  0.001
C  C47  1  0.54248140  0.40748111  0.14654905  1  0.114823  -0.006891  3.709369  -0.007  0.087921  -0.000916  3.95902  -0.002  0.096875  -0.002398  3.980515  -0.003  0.042871  0.082318  0.000258  3.944816  0.0
C  C48  1  0.45753423  0.59251833  0.85345676  1  0.114855  0.006465  3.708997  0.007  0.087909  0.00072  3.958725  0.002  0.096861  0.002124  3.980221  0.003  0.042851  0.082308  -0.000367  3.944519  0.001
C  C49  1  0.69900227  0.47875719  0.11078935  1  -0.123789  0.010266  3.730738  0.011  -0.129476  0.004754  3.968779  0.006  -0.137611  0.004232  3.990765  0.005  -0.0862  -0.124112  0.005255  3.95425  0.006
C  C50  1  0.30101165  0.52122834  0.88921280  1  -0.123898  -0.010827  3.730708  -0.011  -0.129588  -0.004962  3.968837  -0.006  -0.137723  -0.004468  3.990826  -0.005  -0.086292  -0.124228  -0.005428  3.954311  -0.006
C  C51  1  0.70473193  0.41233486  0.02743365  1  0.012721  -0.009321  3.689683  -0.008  -0.004654  -0.003378  3.929266  -0.003  -0.000856  -0.003742  3.948507  -0.004  -0.062346  -0.007291  -0.003068  3.91667  -0.003
C  C52  1  0.29527603  0.58765323  0.97256486  1  0.012852  0.008855  3.689899  0.008  -0.004569  0.003223  3.929551  0.003  -0.000771  0.003533  3.948796  0.004  -0.062237  -0.007207  0.002956  3.916958  0.003
C  C53  1  0.55347019  0.27740180  0.98259965  1  -0.117495  0.009976  3.728767  0.01  -0.125497  0.004803  3.970712  0.006  -0.133027  0.004338  3.992502  0.005  -0.08282  -0.12063  0.005227  3.956328  0.006
C  C54  1  0.44653005  0.72258764  0.01740033  1  -0.117486  -0.010581  3.728894  -0.01  -0.125599  -0.005061  3.971035  -0.006  -0.13313  -0.00463  3.99283  -0.005  -0.082853  -0.120733  -0.00544  3.95663  -0.006
C  C55  1  0.40165881  0.21329031  0.02256500  1  0.122257  -0.006773  3.688827  -0.007  0.096873  -0.000685  3.933927  -0.001  0.105862  -0.002131  3.955462  -0.003  0.046837  0.091217  0.000412  3.919812  0.0
C  C56  1  0.59834855  0.78670163  0.97744010  1  0.122436  0.006197  3.688693  0.007  0.097037  0.000453  3.933869  0.001  0.106025  0.001849  3.955407  0.003  0.046814  0.091381  -0.000599  3.91975  0.0
C  C57  1  0.33502443  0.53125554  0.31451551  1  0.294741  -0.010165  4.033767  -0.006  0.292605  0.001447  4.346559  0.006  0.319725  -8.4e-05  4.3578  0.004  0.14698  0.274432  0.002535  4.337722  0.007
C  C58  1  0.66498265  0.46878699  0.68549452  1  0.294971  -0.010836  4.033597  -0.006  0.292861  0.001446  4.346448  0.006  0.319971  -0.000103  4.357689  0.004  0.147291  0.274693  0.002511  4.337615  0.007
C  C59  1  0.22252564  0.48248683  0.60448717  1  0.112865  -0.007449  3.70862  -0.007  0.086438  -0.001067  3.958385  -0.002  0.095323  -0.002431  3.979489  -0.003  0.042056  0.080858  -2.1e-05  3.944375  -0.001
C  C60  1  0.77748595  0.51747324  0.39548743  1  0.112907  -0.00689  3.708079  -0.007  0.086315  -0.00087  3.957914  -0.002  0.095202  -0.002323  3.979021  -0.003  0.042132  0.080726  0.000296  3.943904  -0.001
C  C61  1  0.05589204  0.42748078  0.62989062  1  -0.121253  0.010548  3.728913  0.011  -0.127763  0.004534  3.967085  0.005  -0.135815  0.004086  3.989038  0.005  -0.08705  -0.122439  0.005025  3.952372  0.006
C  C62  1  0.94412936  0.57253108  0.37009422  1  -0.121396  0.010376  3.728653  0.011  -0.127729  0.004548  3.966952  0.005  -0.13578  0.004104  3.988906  0.005  -0.086979  -0.12242  0.005029  3.952224  0.006
C  C63  1  0.91110402  0.30090394  0.57558517  1  0.009309  -0.009939  3.70086  -0.009  -0.008569  -0.003463  3.941393  -0.003  -0.004598  -0.003811  3.960263  -0.004  -0.063169  -0.011222  -0.003203  3.928887  -0.003
C  C64  1  0.08889663  0.69910944  0.42440746  1  0.00945  -0.009787  3.700722  -0.009  -0.008528  -0.003409  3.941315  -0.003  -0.004555  -0.003762  3.96019  -0.004  -0.063188  -0.011174  -0.003139  3.928789  -0.003
C  C65  1  0.93782853  0.23446443  0.49742264  1  -0.118242  0.010242  3.735729  0.011  -0.127771  0.004738  3.979758  0.006  -0.1351  0.004346  4.001606  0.005  -0.08366  -0.122995  0.005121  3.96513  0.006
C  C66  1  0.06215032  0.76552264  0.50256928  1  -0.118156  0.010163  3.735665  0.011  -0.127709  0.004725  3.979616  0.006  -0.135065  0.004329  4.001433  0.005  -0.083569  -0.122905  0.005106  3.96502  0.006
C  C67  1  0.10823602  0.29686241  0.47597333  1  0.121034  -0.00708  3.690087  -0.007  0.094596  -0.000807  3.938551  -0.002  0.103429  -0.00222  3.959911  -0.003  0.045729  0.089009  0.000288  3.924435  -0.001
C  C68  1  0.89172640  0.70308936  0.52400956  1  0.121382  -0.007089  3.689902  -0.007  0.094893  -0.000758  3.938294  -0.002  0.103736  -0.002161  3.959648  -0.003  0.045908  0.089296  0.000322  3.924172  0.0
S  S69  1  0.56924968  0.86270589  0.55560906  1  -0.308989  -0.029003  2.079512  -0.025  -0.320755  -0.002954  2.405042  -0.003  -0.336906  -0.000601  2.396928  0.0  -0.138758  -0.30805  -0.00615  2.409504  -0.006
S  S70  1  0.43078278  0.13748582  0.44444176  1  -0.309482  0.026979  2.080016  0.027  -0.320634  0.00152  2.405384  0.003  -0.336748  -0.001171  2.397219  0.001  -0.138626  -0.30799  0.005206  2.409873  0.007
S  S71  1  0.13334377  0.83752104  0.11836031  1  -0.304171  -0.036133  2.126742  -0.033  -0.321952  -0.003606  2.458848  -0.003  -0.338774  -0.000963  2.449649  -0.001  -0.135729  -0.307898  -0.00774  2.463836  -0.007
S  S72  1  0.86665374  0.16243183  0.88164596  1  -0.304224  0.034093  2.126765  0.033  -0.321978  0.003128  2.458939  0.003  -0.338816  0.00046  2.449739  0.001  -0.135737  -0.307901  0.007338  2.463926  0.007
S  S73  1  0.22463155  0.52903675  0.22001929  1  -0.312332  0.029122  2.101128  0.03  -0.3259  0.002645  2.429742  0.004  -0.342117  -0.000408  2.42099  0.001  -0.137518  -0.313088  0.006652  2.434617  0.008
S  S74  1  0.77536064  0.47079718  0.77996062  1  -0.312447  0.032832  2.100471  0.031  -0.326045  0.00303  2.429091  0.003  -0.342253  0.000395  2.420343  0.0  -0.137597  -0.313261  0.006853  2.433997  0.007
N  N75  1  0.69311609  0.83168397  0.72964827  1  -0.553517  -0.066309  3.119306  -0.073  -0.535084  -0.046124  3.440406  -0.054  -0.566721  -0.040586  3.443217  -0.049  -0.440897  -0.514779  -0.04869  3.439097  -0.056
N  N76  1  0.30686365  0.16826915  0.27036661  1  -0.553611  0.062075  3.119717  0.073  -0.535054  0.043723  3.440655  0.054  -0.56669  0.037912  3.443505  0.048  -0.440936  -0.514781  0.046739  3.439324  0.056
N  N77  1  0.96184000  0.80543151  0.94491028  1  -0.546342  -0.072984  3.123123  -0.081  -0.533134  -0.048161  3.450301  -0.057  -0.564695  -0.042215  3.453007  -0.051  -0.44015  -0.512575  -0.051144  3.448835  -0.059
N  N78  1  0.03817550  0.19459071  0.05509861  1  -0.546146  0.069078  3.123252  0.081  -0.533152  0.045922  3.45046  0.057  -0.564718  0.039733  3.453197  0.051  -0.440187  -0.512585  0.049312  3.448951  0.059
N  N79  1  0.93812394  0.07835833  0.21753312  1  -0.296693  0.085625  3.339707  0.106  -0.244603  0.065792  3.619781  0.088  -0.279562  0.053426  3.648699  0.076  -0.333644  -0.223575  0.072491  3.602077  0.093
N  N80  1  0.06185660  0.92164516  0.78245990  1  -0.296524  -0.090818  3.339744  -0.106  -0.244496  -0.068944  3.619902  -0.088  -0.279451  -0.056662  3.648808  -0.076  -0.333671  -0.223447  -0.075251  3.602206  -0.093
N  N81  1  0.39717933  0.27700333  0.10321497  1  -0.29362  0.088599  3.355557  0.109  -0.240221  0.070695  3.637349  0.095  -0.275529  0.057336  3.667093  0.081  -0.332959  -0.219177  0.077613  3.619199  0.1
N  N82  1  0.60283693  0.72298980  0.89679207  1  -0.293536  -0.094334  3.355335  -0.109  -0.240296  -0.074143  3.637315  -0.095  -0.275596  -0.060866  3.667035  -0.081  -0.332851  -0.219238  -0.080652  3.619182  -0.1
N  N83  1  0.42249949  0.53724297  0.38287554  1  -0.554004  0.06652  3.106201  0.078  -0.537627  0.045539  3.431693  0.056  -0.569094  0.039519  3.434402  0.051  -0.441619  -0.517491  0.04895  3.43031  0.059
N  N84  1  0.57752290  0.46305001  0.61718384  1  -0.554143  0.068779  3.106801  0.081  -0.537839  0.045805  3.432231  0.057  -0.569309  0.039821  3.434949  0.051  -0.441882  -0.517692  0.049265  3.430842  0.059
N  N85  1  0.24751009  0.41797894  0.52898852  1  -0.296135  0.091327  3.366651  0.113  -0.242832  0.069203  3.649836  0.093  -0.277676  0.056658  3.678514  0.08  -0.3379  -0.221764  0.076217  3.632229  0.098
N  N86  1  0.75247856  0.58194979  0.47099044  1  -0.296318  0.091284  3.366249  0.113  -0.242946  0.069159  3.649481  0.093  -0.277788  0.056612  3.678153  0.08  -0.338062  -0.221866  0.076177  3.631862  0.098
