# generated using pymatgen
data_SnH12Rh2C13N3(ClO2)2
_symmetry_space_group_name_H-M   'P 1'
_cell_length_a   9.14178709
_cell_length_b   12.82298681
_cell_length_c   19.77500000
_cell_angle_alpha   103.04212176
_cell_angle_beta   92.40400648
_cell_angle_gamma   94.82564056
_symmetry_Int_Tables_number   1
_chemical_formula_structural   SnH12Rh2C13N3(ClO2)2
_chemical_formula_sum   'Sn4 H48 Rh8 C52 N12 Cl8 O16'
_cell_volume   2245.88532480
_cell_formula_units_Z   4
loop_
 _symmetry_equiv_pos_site_id
 _symmetry_equiv_pos_as_xyz
  1  'x, y, z'
loop_
 _atom_site_type_symbol
 _atom_site_label
 _atom_site_symmetry_multiplicity
 _atom_site_fract_x
 _atom_site_fract_y
 _atom_site_fract_z
 _atom_site_occupancy
 _atom_site_hle17_bader_spin_density
 _atom_site_hle17_ddec_charge
 _atom_site_hle17_ddec_spin_density
 _atom_site_hle17_ddec_sum_bond_order
 _atom_site_hle17_magmom
 _atom_site_hse06_10hf_bader_spin_density
 _atom_site_hse06_10hf_ddec_charge
 _atom_site_hse06_10hf_ddec_spin_density
 _atom_site_hse06_10hf_ddec_sum_bond_order
 _atom_site_hse06_10hf_magmom
 _atom_site_hse06_bader_spin_density
 _atom_site_hse06_ddec_charge
 _atom_site_hse06_ddec_spin_density
 _atom_site_hse06_ddec_sum_bond_order
 _atom_site_hse06_magmom
 _atom_site_pbe_bader_charge
 _atom_site_pbe_bader_spin_density
 _atom_site_pbe_cm5_charge
 _atom_site_pbe_ddec_charge
 _atom_site_pbe_ddec_spin_density
 _atom_site_pbe_ddec_sum_bond_order
 _atom_site_pbe_magmom
Sn  Sn0  1  0.90367369  0.42530077  0.73829508  1  0  0.693349  0  2.901438  0  0  0.581298  0  3.360089  0  0  0.596631  0  3.367164  0  1.120579  0  0.311075  0.571161  0  3.354909  0
Sn  Sn1  1  0.09633471  0.57470248  0.26170586  1  0  0.693371  0  2.901348  0  0  0.581323  0  3.359968  0  0  0.59667  0  3.367056  0  1.120607  0  0.311044  0.571179  0  3.354792  0
Sn  Sn2  1  0.72105069  0.23410028  0.69465156  1  0  0.703646  0  2.842261  0  0  0.584959  0  3.304589  0  0  0.599847  0  3.312286  0  1.122327  0  0.319753  0.575083  0  3.299057  0
Sn  Sn3  1  0.27895103  0.76590217  0.30535166  1  0  0.70365  0  2.842116  0  0  0.585031  0  3.304325  0  0  0.599879  0  3.312096  0  1.122435  0  0.319804  0.575153  0  3.298795  0
H  H4  1  0.01451773  0.34626797  0.84501657  1  0  0.113151  0  0.977191  0  0  0.126569  0  1.039384  0  0  0.128362  0  1.040333  0  0.066349  0  0.08688  0.125309  0  1.038714  0
H  H5  1  0.98548883  0.65372966  0.15498706  1  0  0.113152  0  0.977247  0  0  0.126589  0  1.039412  0  0  0.128384  0  1.040354  0  0.066253  0  0.086887  0.125331  0  1.038741  0
H  H6  1  0.15782692  0.41857263  0.81218182  1  0  0.107697  0  0.978798  0  0  0.122671  0  1.037203  0  0  0.124066  0  1.039032  0  0.052104  0  0.085759  0.12168  0  1.035949  0
H  H7  1  0.84218215  0.58142741  0.18782220  1  0  0.107774  0  0.97879  0  0  0.122703  0  1.037232  0  0  0.124095  0  1.039064  0  0.052087  0  0.08578  0.121712  0  1.035978  0
H  H8  1  0.06842416  0.59624204  0.87802228  1  0  0.117016  0  0.957734  0  0  0.130073  0  1.019328  0  0  0.132066  0  1.019143  0  0.152712  0  0.100143  0.128556  0  1.019588  0
H  H9  1  0.93155467  0.40376121  0.12197455  1  0  0.117009  0  0.957664  0  0  0.130077  0  1.019274  0  0  0.13207  0  1.01909  0  0.152234  0  0.100172  0.12856  0  1.019537  0
H  H10  1  0.92691615  0.52115074  0.91038794  1  0  0.10762  0  0.953235  0  0  0.11773  0  1.024689  0  0  0.120115  0  1.022806  0  0.136843  0  0.103592  0.115846  0  1.026281  0
H  H11  1  0.07309056  0.47883965  0.08961564  1  0  0.107544  0  0.953284  0  0  0.117669  0  1.024773  0  0  0.120064  0  1.022872  0  0.137141  0  0.103578  0.115784  0  1.026366  0
H  H12  1  0.04604536  0.53775477  0.65247651  1  0  0.110393  0  0.964851  0  0  0.129783  0  1.016784  0  0  0.131258  0  1.018209  0  0.031174  0  0.087325  0.128727  0  1.015823  0
H  H13  1  0.95396173  0.46224688  0.34752721  1  0  0.110454  0  0.964889  0  0  0.129834  0  1.016817  0  0  0.131307  0  1.018247  0  0.031333  0  0.087357  0.128778  0  1.015854  0
H  H14  1  0.17075272  0.46353846  0.68901952  1  0  0.114249  0  0.973324  0  0  0.130525  0  1.030321  0  0  0.132201  0  1.031342  0  0.067864  0  0.088967  0.129331  0  1.029647  0
H  H15  1  0.82925406  0.53646077  0.31098232  1  0  0.114317  0  0.973376  0  0  0.130542  0  1.030444  0  0  0.132223  0  1.031461  0  0.068116  0  0.088957  0.129348  0  1.02977  0
H  H16  1  0.05796654  0.29127103  0.60557507  1  0  0.126462  0  0.928037  0  0  0.141711  0  0.985315  0  0  0.142724  0  0.985515  0  0.131953  0  0.121568  0.14093  0  0.98523  0
H  H17  1  0.94203945  0.70873061  0.39442862  1  0  0.126528  0  0.927995  0  0  0.141769  0  0.985262  0  0  0.142781  0  0.985462  0  0.131441  0  0.121604  0.140988  0  0.985178  0
H  H18  1  0.93703957  0.36824342  0.56828122  1  0  0.11494  0  0.946068  0  0  0.128825  0  1.00683  0  0  0.13087  0  1.005838  0  0.12703  0  0.105259  0.127274  0  1.007631  0
H  H19  1  0.06296074  0.63175662  0.43172163  1  0  0.114924  0  0.946052  0  0  0.128794  0  1.006823  0  0  0.130838  0  1.005834  0  0.126815  0  0.105239  0.127244  0  1.007625  0
H  H20  1  0.66269700  0.53438024  0.75315790  1  0  0.105336  0  0.984255  0  0  0.120474  0  1.043693  0  0  0.121704  0  1.046042  0  0.052847  0  0.08171  0.119534  0  1.042157  0
H  H21  1  0.33731701  0.46561578  0.24684665  1  0  0.105252  0  0.984374  0  0  0.120411  0  1.043787  0  0  0.121661  0  1.046118  0  0.052717  0  0.081714  0.119478  0  1.042242  0
H  H22  1  0.78838515  0.59308465  0.82483328  1  0  0.097275  0  1.002875  0  0  0.104761  0  1.083756  0  0  0.107207  0  1.082888  0  0.049819  0  0.07606  0.102899  0  1.0845  0
H  H23  1  0.21162448  0.40691136  0.17516916  1  0  0.097267  0  1.002862  0  0  0.104758  0  1.083779  0  0  0.107211  0  1.082901  0  0.049901  0  0.076034  0.102894  0  1.084526  0
H  H24  1  0.93299970  0.69727764  0.75344110  1  0  0.120888  0  0.93499  0  0  0.136025  0  0.991263  0  0  0.138189  0  0.990338  0  0.141743  0  0.104719  0.134378  0  0.992051  0
H  H25  1  0.06700545  0.30271757  0.24656113  1  0  0.120912  0  0.934822  0  0  0.136015  0  0.991183  0  0  0.138213  0  0.990232  0  0.141836  0  0.104724  0.13436  0  0.991973  0
H  H26  1  0.82171906  0.63009348  0.67634608  1  0  0.103394  0  0.948575  0  0  0.111558  0  1.022468  0  0  0.115148  0  1.018606  0  0.119555  0  0.100283  0.108921  0  1.025299  0
H  H27  1  0.17829354  0.36990012  0.32365960  1  0  0.103364  0  0.948487  0  0  0.11155  0  1.022413  0  0  0.11514  0  1.018555  0  0.119451  0  0.100299  0.108905  0  1.02524  0
H  H28  1  0.79614677  0.20176319  0.82264961  1  0  0.111866  0  0.988718  0  0  0.127118  0  1.047171  0  0  0.12868  0  1.048829  0  0.059175  0  0.082028  0.125978  0  1.04606  0
H  H29  1  0.20385563  0.79823604  0.17734962  1  0  0.111891  0  0.988657  0  0  0.127111  0  1.047155  0  0  0.12867  0  1.048813  0  0.059093  0  0.082022  0.125975  0  1.046038  0
H  H30  1  0.64198107  0.10976868  0.78653011  1  0  0.104173  0  0.999841  0  0  0.112765  0  1.075091  0  0  0.115495  0  1.074356  0  0.06041  0  0.077987  0.110703  0  1.075782  0
H  H31  1  0.35802086  0.89023537  0.21346728  1  0  0.104155  0  0.999802  0  0  0.112753  0  1.07505  0  0  0.115484  0  1.074309  0  0.05994  0  0.077976  0.11069  0  1.075743  0
H  H32  1  0.80153098  0.98889610  0.71178306  1  0  0.115339  0  0.909551  0  0  0.132979  0  0.962363  0  0  0.134495  0  0.962065  0  0.092528  0  0.115406  0.131812  0  0.9627  0
H  H33  1  0.19847205  0.01110796  0.28821739  1  0  0.115273  0  0.909522  0  0  0.132891  0  0.96237  0  0  0.134425  0  0.962081  0  0.092459  0  0.115387  0.131724  0  0.962706  0
H  H34  1  0.95936683  0.08220306  0.74094662  1  0  0.124339  0  0.925396  0  0  0.139815  0  0.980784  0  0  0.141462  0  0.980347  0  0.110229  0  0.118436  0.138582  0  0.981157  0
H  H35  1  0.04063860  0.91780260  0.25904552  1  0  0.124369  0  0.925415  0  0  0.139792  0  0.980847  0  0  0.141457  0  0.980416  0  0.11053  0  0.118406  0.13856  0  0.981219  0
H  H36  1  0.48212058  0.34866858  0.70091403  1  0  0.104472  0  0.98108  0  0  0.11808  0  1.04302  0  0  0.119853  0  1.04408  0  0.011623  0  0.080913  0.116821  0  1.042313  0
H  H37  1  0.51788400  0.65133065  0.29908322  1  0  0.104472  0  0.981162  0  0  0.118081  0  1.043107  0  0  0.119856  0  1.044163  0  0.01166  0  0.080902  0.116819  0  1.042402  0
H  H38  1  0.45328482  0.23635291  0.62876190  1  0  0.117841  0  0.975409  0  0  0.131554  0  1.036273  0  0  0.133421  0  1.03755  0  0.071781  0  0.085609  0.130245  0  1.035413  0
H  H39  1  0.54672524  0.76364632  0.37123647  1  0  0.117801  0  0.97549  0  0  0.131552  0  1.036317  0  0  0.133429  0  1.037578  0  0.071772  0  0.085594  0.130244  0  1.035453  0
H  H40  1  0.40090176  0.11320192  0.71123915  1  0  0.105018  0  0.971579  0  0  0.11932  0  1.034625  0  0  0.120574  0  1.035065  0  0.12835  0  0.095831  0.118326  0  1.034486  0
H  H41  1  0.59909142  0.88680213  0.28876009  1  0  0.10501  0  0.971721  0  0  0.119294  0  1.034767  0  0  0.120548  0  1.035205  0  0.128244  0  0.095835  0.118299  0  1.034625  0
H  H42  1  0.42287046  0.22703114  0.78274838  1  0  0.106373  0  0.922196  0  0  0.122803  0  0.978338  0  0  0.1235  0  0.978747  0  0.078282  0  0.10492  0.122259  0  0.978111  0
H  H43  1  0.57712720  0.77297372  0.21725411  1  0  0.106394  0  0.922232  0  0  0.122803  0  0.978378  0  0  0.123499  0  0.978788  0  0.078307  0  0.104905  0.122258  0  0.97815  0
H  H44  1  0.78694214  0.19451793  0.55911053  1  0  0.107732  0  0.98089  0  0  0.123857  0  1.039741  0  0  0.125915  0  1.040575  0  0.033886  0  0.084989  0.122381  0  1.039203  0
H  H45  1  0.21306937  0.80547567  0.44089008  1  0  0.107709  0  0.980961  0  0  0.123845  0  1.039792  0  0  0.125898  0  1.040638  0  0.034185  0  0.085017  0.122379  0  1.039242  0
H  H46  1  0.89553611  0.11839882  0.60267781  1  0  0.118583  0  0.969359  0  0  0.134319  0  1.026888  0  0  0.136307  0  1.027639  0  0.055787  0  0.089742  0.132927  0  1.026371  0
H  H47  1  0.10447692  0.88159799  0.39732531  1  0  0.118454  0  0.969551  0  0  0.134191  0  1.027051  0  0  0.13618  0  1.027799  0  0.055978  0  0.089673  0.132799  0  1.026534  0
H  H48  1  0.66408526  0.98583763  0.59959520  1  0  0.097802  0  0.949159  0  0  0.114795  0  1.008457  0  0  0.115874  0  1.008246  0  0.10866  0  0.097998  0.113974  0  1.008692  0
H  H49  1  0.33592272  0.01416240  0.40040577  1  0  0.097843  0  0.949111  0  0  0.114773  0  1.00842  0  0  0.115846  0  1.008216  0  0.108768  0  0.097991  0.113962  0  1.008656  0
H  H50  1  0.56532578  0.06271428  0.55446201  1  0  0.104663  0  0.927629  0  0  0.121319  0  0.986658  0  0  0.12191  0  0.987111  0  0.098989  0  0.110324  0.120826  0  0.986447  0
H  H51  1  0.43467912  0.93728737  0.44554166  1  0  0.104715  0  0.927603  0  0  0.121326  0  0.986645  0  0  0.121933  0  0.987074  0  0.098853  0  0.110339  0.12084  0  0.986436  0
Rh  Rh52  1  0.38641031  0.45621278  0.05061936  1  0  0.08533  0  3.999203  0  0  0.041154  0  4.652333  0  0  0.024703  0  4.621917  0  0.633894  0  0.479799  0.053908  0  4.670215  0
Rh  Rh53  1  0.61359808  0.54379048  0.94937602  1  0  0.085139  0  3.99919  0  0  0.04095  0  4.652299  0  0  0.024508  0  4.621864  0  0.633861  0  0.479774  0.053708  0  4.670185  0
Rh  Rh54  1  0.40881124  0.40975269  0.44288924  1  0  0.103539  0  3.980556  0  0  0.056164  0  4.632867  0  0  0.04179  0  4.599198  0  0.636295  0  0.477097  0.067487  0  4.652693  0
Rh  Rh55  1  0.59119892  0.59024734  0.55711329  1  0  0.103273  0  3.980312  0  0  0.055848  0  4.632642  0  0  0.041479  0  4.598966  0  0.636593  0  0.476927  0.067175  0  4.652464  0
Rh  Rh56  1  0.46403120  0.89111037  0.79085906  1  0  0.117019  0  3.895425  0  0  0.069555  0  4.531915  0  0  0.053924  0  4.504709  0  0.649152  0  0.478309  0.08108  0  4.548274  0
Rh  Rh57  1  0.53596703  0.10889047  0.20914487  1  0  0.117032  0  3.895587  0  0  0.069569  0  4.532098  0  0  0.05393  0  4.504899  0  0.648914  0  0.478345  0.081098  0  4.548452  0
Rh  Rh58  1  0.92796436  0.87816074  0.93518097  1  0  0.108197  0  3.922072  0  0  0.061538  0  4.564329  0  0  0.043704  0  4.539066  0  0.653712  0  0.478463  0.074924  0  4.579219  0
Rh  Rh59  1  0.07201271  0.12184573  0.06481731  1  0  0.108267  0  3.922277  0  0  0.061624  0  4.564557  0  0  0.043757  0  4.539364  0  0.653409  0  0.478477  0.075006  0  4.579427  0
C  C60  1  0.52192560  0.42854904  0.11419321  1  0  0.275934  0  3.433897  0  0  0.228036  0  3.814982  0  0  0.261769  0  3.80225  0  1.012208  0  0.052444  0.205092  0  3.822673  0
C  C61  1  0.47808029  0.57145180  0.88579620  1  0  0.276021  0  3.433189  0  0  0.228163  0  3.814248  0  0  0.261893  0  3.801509  0  1.0127  0  0.052489  0.205218  0  3.821946  0
C  C62  1  0.39642390  0.32575620  0.98858163  1  0  0.254002  0  3.441876  0  0  0.200821  0  3.842171  0  0  0.235538  0  3.826686  0  1.002855  0  0.04384  0.177266  0  3.851743  0
C  C63  1  0.60357496  0.67424946  0.01141746  1  0  0.25392  0  3.44214  0  0  0.200726  0  3.842462  0  0  0.235439  0  3.82698  0  1.002827  0  0.043754  0.177172  0  3.852037  0
C  C64  1  0.53963908  0.40505521  0.37443532  1  0  0.270455  0  3.434927  0  0  0.223122  0  3.818779  0  0  0.256071  0  3.806551  0  1.004464  0  0.050074  0.2007  0  3.826184  0
C  C65  1  0.46036802  0.59494643  0.62557194  1  0  0.270646  0  3.435415  0  0  0.223349  0  3.819217  0  0  0.256293  0  3.80698  0  1.004612  0  0.050184  0.20093  0  3.826627  0
C  C66  1  0.47830757  0.29046037  0.46613421  1  0  0.268841  0  3.424431  0  0  0.21864  0  3.814049  0  0  0.253261  0  3.799168  0  1.023135  0  0.05114  0.195096  0  3.823213  0
C  C67  1  0.52169821  0.70953966  0.53386823  1  0  0.268817  0  3.424857  0  0  0.21862  0  3.814488  0  0  0.253235  0  3.799609  0  1.023646  0  0.051168  0.19508  0  3.823648  0
C  C68  1  0.31914729  0.98224596  0.81316626  1  0  0.275691  0  3.43197  0  0  0.225214  0  3.818512  0  0  0.260846  0  3.803417  0  1.011718  0  0.051901  0.201099  0  3.827724  0
C  C69  1  0.68084864  0.01775407  0.18683750  1  0  0.275605  0  3.431527  0  0  0.225119  0  3.81806  0  0  0.260755  0  3.802968  0  1.011657  0  0.051861  0.201002  0  3.827271  0
C  C70  1  0.46014962  0.85322734  0.87532017  1  0  0.25848  0  3.440201  0  0  0.20737  0  3.836236  0  0  0.241943  0  3.823364  0  1.01497  0  0.039499  0.184131  0  3.843797  0
C  C71  1  0.53984490  0.14677028  0.12468170  1  0  0.258774  0  3.440142  0  0  0.207663  0  3.836142  0  0  0.242239  0  3.823263  0  1.015112  0  0.039655  0.184423  0  3.843709  0
C  C72  1  0.78672332  0.94602125  0.98809880  1  0  0.240477  0  3.448657  0  0  0.191527  0  3.843292  0  0  0.227229  0  3.827623  0  0.991368  0  0.039288  0.167289  0  3.853038  0
C  C73  1  0.21323245  0.05399809  0.01188426  1  0  0.240998  0  3.448866  0  0  0.191985  0  3.843522  0  0  0.227687  0  3.827851  0  0.991165  0  0.039438  0.16775  0  3.85326  0
C  C74  1  0.96486355  0.79945122  0.99994482  1  0  0.266343  0  3.436723  0  0  0.219696  0  3.818423  0  0  0.253468  0  3.805247  0  1.00072  0  0.049679  0.19677  0  3.82641  0
C  C75  1  0.03506524  0.20052951  0.00005077  1  0  0.266342  0  3.437646  0  0  0.219678  0  3.819353  0  0  0.253459  0  3.806181  0  1.001226  0  0.049629  0.196753  0  3.827332  0
C  C76  1  0.04562521  0.42161019  0.82958386  1  0  -0.411852  0  3.564946  0  0  -0.421443  0  3.821435  0  0  -0.431103  0  3.838488  0  -0.35897  0  -0.246821  -0.414653  0  3.809465  0
C  C77  1  0.95437938  0.57838904  0.17041692  1  0  -0.412016  0  3.565101  0  0  -0.421549  0  3.821577  0  0  -0.431209  0  3.838635  0  -0.358754  0  -0.246854  -0.41476  0  3.809607  0
C  C78  1  0.03812973  0.51810755  0.89107428  1  0  -0.144977  0  3.811436  0  0  -0.173079  0  4.042303  0  0  -0.176184  0  4.05483  0  0.007781  0  -0.140937  -0.170812  0  4.033933  0
C  C79  1  0.96186981  0.48189490  0.10892536  1  0  -0.144806  0  3.81132  0  0  -0.173015  0  4.042326  0  0  -0.176122  0  4.054837  0  0.007945  0  -0.140949  -0.170748  0  4.033957  0
C  C80  1  0.13968108  0.50817858  0.94664843  1  0  0.393896  0  3.577036  0  0  0.376594  0  3.842335  0  0  0.391036  0  3.858112  0  0.905944  0  0.238094  0.36663  0  3.832008  0
C  C81  1  0.86031757  0.49182547  0.05335345  1  0  0.393916  0  3.577128  0  0  0.376638  0  3.84243  0  0  0.391078  0  3.858214  0  0.905689  0  0.238107  0.366672  0  3.832103  0
C  C82  1  0.06115701  0.45882731  0.66312379  1  0  -0.407823  0  3.55008  0  0  -0.41889  0  3.807923  0  0  -0.427718  0  3.823933  0  -0.346189  0  -0.244989  -0.412745  0  3.796687  0
C  C83  1  0.93884768  0.54117272  0.33687812  1  0  -0.407907  0  3.550258  0  0  -0.418967  0  3.808131  0  0  -0.427788  0  3.824117  0  -0.346487  0  -0.244989  -0.412821  0  3.796891  0
C  C84  1  0.04594598  0.37123353  0.59529545  1  0  -0.149824  0  3.820743  0  0  -0.181694  0  4.059631  0  0  -0.183622  0  4.070665  0  0.063604  0  -0.134515  -0.180109  0  4.051931  0
C  C85  1  0.95405641  0.62876571  0.40470681  1  0  -0.149872  0  3.820901  0  0  -0.181682  0  4.059706  0  0  -0.183611  0  4.07075  0  0.064328  0  -0.134501  -0.180093  0  4.051996  0
C  C86  1  0.15614214  0.38877770  0.54762433  1  0  0.396407  0  3.572305  0  0  0.384563  0  3.827259  0  0  0.398575  0  3.842568  0  0.885988  0  0.24444  0.374795  0  3.817348  0
C  C87  1  0.84386410  0.61121751  0.45237641  1  0  0.396371  0  3.572589  0  0  0.384509  0  3.827534  0  0  0.398518  0  3.842842  0  0.88586  0  0.244409  0.374742  0  3.817623  0
C  C88  1  0.77797103  0.56491184  0.76797978  1  0  -0.41661  0  3.575086  0  0  -0.421444  0  3.823963  0  0  -0.43115  0  3.84132  0  -0.360945  0  -0.251319  -0.414597  0  3.811965  0
C  C89  1  0.22204048  0.43508176  0.23202284  1  0  -0.416707  0  3.575167  0  0  -0.421544  0  3.824028  0  0  -0.431281  0  3.841408  0  -0.360868  0  -0.251336  -0.414693  0  3.81198  0
C  C90  1  0.82293398  0.65765588  0.73340014  1  0  -0.13924  0  3.815159  0  0  -0.171222  0  4.050092  0  0  -0.173404  0  4.060597  0  0.029403  0  -0.140834  -0.169567  0  4.043017  0
C  C91  1  0.17707008  0.34233933  0.26660359  1  0  -0.139076  0  3.814839  0  0  -0.171085  0  4.049856  0  0  -0.173311  0  4.060381  0  0.029418  0  -0.140841  -0.169403  0  4.042753  0
C  C92  1  0.71820420  0.73674258  0.74889374  1  0  0.373746  0  3.594859  0  0  0.360532  0  3.864605  0  0  0.37467  0  3.879006  0  0.88374  0  0.232987  0.350643  0  3.855283  0
C  C93  1  0.28179413  0.26325907  0.25110677  1  0  0.373751  0  3.594266  0  0  0.360567  0  3.864078  0  0  0.374716  0  3.878486  0  0.88322  0  0.232937  0.350666  0  3.854751  0
C  C94  1  0.75069393  0.14311588  0.77560594  1  0  -0.416099  0  3.548747  0  0  -0.421767  0  3.800468  0  0  -0.431367  0  3.816669  0  -0.361724  0  -0.247122  -0.415033  0  3.789284  0
C  C95  1  0.24930889  0.85688657  0.22439427  1  0  -0.416109  0  3.548621  0  0  -0.421752  0  3.800376  0  0  -0.431316  0  3.816597  0  -0.361222  0  -0.247095  -0.415019  0  3.78919  0
C  C96  1  0.85157295  0.05238883  0.75589333  1  0  -0.130574  0  3.792117  0  0  -0.162461  0  4.03017  0  0  -0.164103  0  4.040766  0  0.106107  0  -0.129769  -0.161171  0  4.022868  0
C  C97  1  0.14842998  0.94761442  0.24410396  1  0  -0.13054  0  3.791945  0  0  -0.162405  0  4.030069  0  0  -0.164133  0  4.040782  0  0.105686  0  -0.129764  -0.161115  0  4.022771  0
C  C98  1  0.87726498  0.00124172  0.81307796  1  0  0.391382  0  3.570376  0  0  0.373407  0  3.83952  0  0  0.388871  0  3.853432  0  0.896734  0  0.241691  0.36272  0  3.830454  0
C  C99  1  0.12273695  0.99876233  0.18691741  1  0  0.391364  0  3.569671  0  0  0.373421  0  3.838803  0  0  0.388908  0  3.852733  0  0.897224  0  0.241733  0.362738  0  3.829739  0
C  C100  1  0.48809984  0.26160478  0.68426946  1  0  -0.407581  0  3.560069  0  0  -0.415564  0  3.815321  0  0  -0.423934  0  3.830492  0  -0.342263  0  -0.243929  -0.409755  0  3.804732  0
C  C101  1  0.51191142  0.73839526  0.31573005  1  0  -0.40757  0  3.560211  0  0  -0.415641  0  3.815431  0  0  -0.424034  0  3.830631  0  -0.342249  0  -0.243923  -0.409826  0  3.804833  0
C  C102  1  0.39057955  0.20041772  0.72671884  1  0  -0.133768  0  3.811083  0  0  -0.163616  0  4.043829  0  0  -0.165026  0  4.056645  0  0.075348  0  -0.143126  -0.162477  0  4.035027  0
C  C103  1  0.60941952  0.79958955  0.27328150  1  0  -0.133774  0  3.811435  0  0  -0.163539  0  4.044046  0  0  -0.164941  0  4.056841  0  0.075344  0  -0.143164  -0.162407  0  4.035263  0
C  C104  1  0.23535326  0.21424878  0.71764530  1  0  0.368166  0  3.637129  0  0  0.351556  0  3.917175  0  0  0.364289  0  3.932329  0  0.847578  0  0.204938  0.342901  0  3.906924  0
C  C105  1  0.76464158  0.78575125  0.28234732  1  0  0.368038  0  3.637224  0  0  0.351414  0  3.917229  0  0  0.364148  0  3.932381  0  0.847376  0  0.204897  0.342759  0  3.906975  0
C  C106  1  0.78343215  0.14007912  0.59473444  1  0  -0.417331  0  3.556322  0  0  -0.427002  0  3.813544  0  0  -0.436137  0  3.829343  0  -0.352401  0  -0.244295  -0.420605  0  3.802482  0
C  C107  1  0.21658173  0.85992413  0.40527166  1  0  -0.417095  0  3.556478  0  0  -0.426776  0  3.813618  0  0  -0.435901  0  3.829406  0  -0.352718  0  -0.2442  -0.420382  0  3.802559  0
C  C108  1  0.67663873  0.04006408  0.56379198  1  0  -0.110801  0  3.795973  0  0  -0.145342  0  4.034573  0  0  -0.144952  0  4.045972  0  0.047496  0  -0.140203  -0.145426  0  4.026689  0
C  C109  1  0.32337066  0.95993837  0.43621291  1  0  -0.110938  0  3.796143  0  0  -0.145343  0  4.034627  0  0  -0.144947  0  4.045993  0  0.047494  0  -0.140251  -0.145462  0  4.0268  0
C  C110  1  0.72162206  0.97715120  0.49821652  1  0  0.317961  0  3.692507  0  0  0.310905  0  3.972872  0  0  0.321203  0  3.989714  0  0.85706  0  0.176959  0.303902  0  3.961464  0
C  C111  1  0.27837963  0.02283436  0.50178271  1  0  0.317862  0  3.692317  0  0  0.310784  0  3.972643  0  0  0.321083  0  3.989487  0  0.856052  0  0.176825  0.303786  0  3.961244  0
N  N112  1  0.22702350  0.49232972  0.98667017  1  0  -0.356953  0  3.176474  0  0  -0.313314  0  3.478966  0  0  -0.326073  0  3.487372  0  -1.272722  0  -0.364134  -0.3055  0  3.473629  0
N  N113  1  0.77297703  0.50767192  0.01332786  1  0  -0.356949  0  3.176588  0  0  -0.313306  0  3.479068  0  0  -0.326069  0  3.48748  0  -1.272487  0  -0.364118  -0.305494  0  3.473739  0
N  N114  1  0.24675525  0.40416011  0.51054765  1  0  -0.350004  0  3.159896  0  0  -0.307983  0  3.457837  0  0  -0.320474  0  3.465333  0  -1.25954  0  -0.360319  -0.300342  0  3.453137  0
N  N115  1  0.75325121  0.59583671  0.48945130  1  0  -0.349988  0  3.160037  0  0  -0.307952  0  3.457975  0  0  -0.320444  0  3.465479  0  -1.259514  0  -0.360341  -0.300312  0  3.453275  0
N  N116  1  0.62699960  0.79412967  0.76378374  1  0  -0.342641  0  3.180166  0  0  -0.303676  0  3.484375  0  0  -0.316044  0  3.494252  0  -1.245318  0  -0.362406  -0.295912  0  3.477977  0
N  N117  1  0.37300382  0.20586072  0.23621876  1  0  -0.342722  0  3.179704  0  0  -0.303779  0  3.483985  0  0  -0.316146  0  3.493857  0  -1.244931  0  -0.362368  -0.296015  0  3.47759  0
N  N118  1  0.89437329  0.96139562  0.85971389  1  0  -0.346503  0  3.144056  0  0  -0.303402  0  3.445891  0  0  -0.317675  0  3.455703  0  -1.251809  0  -0.357851  -0.294501  0  3.439523  0
N  N119  1  0.10563454  0.03861165  0.14028308  1  0  -0.34651  0  3.143624  0  0  -0.30342  0  3.445487  0  0  -0.317685  0  3.455281  0  -1.252026  0  -0.35785  -0.294522  0  3.439122  0
N  N120  1  0.11079914  0.22553367  0.71018862  1  0  -0.476991  0  2.667061  0  0  -0.441359  0  2.905449  0  0  -0.455427  0  2.917733  0  -1.224181  0  -0.307941  -0.431908  0  2.897215  0
N  N121  1  0.88919831  0.77446958  0.28980907  1  0  -0.476872  0  2.666978  0  0  -0.44126  0  2.905355  0  0  -0.455327  0  2.917637  0  -1.223923  0  -0.307872  -0.431808  0  2.897119  0
N  N122  1  0.75852116  0.92606440  0.44621692  1  0  -0.447826  0  2.573901  0  0  -0.429586  0  2.784195  0  0  -0.44103  0  2.797715  0  -1.209154  0  -0.334077  -0.421898  0  2.775098  0
N  N123  1  0.24148890  0.07393483  0.55378902  1  0  -0.447708  0  2.573484  0  0  -0.429477  0  2.783778  0  0  -0.440927  0  2.797306  0  -1.208325  0  -0.333914  -0.421785  0  2.774673  0
Cl  Cl124  1  0.35643102  0.61655596  0.13202032  1  0  -0.410362  0  1.077042  0  0  -0.363516  0  1.346281  0  0  -0.384502  0  1.333843  0  -0.556231  0  -0.25702  -0.349137  0  1.354324  0
Cl  Cl125  1  0.64357356  0.38344327  0.86798198  1  0  -0.410293  0  1.077114  0  0  -0.363464  0  1.346388  0  0  -0.384457  0  1.333949  0  -0.556293  0  -0.256989  -0.349083  0  1.354431  0
Cl  Cl126  1  0.31022060  0.55652699  0.40958152  1  0  -0.436091  0  1.132741  0  0  -0.390052  0  1.418335  0  0  -0.411593  0  1.404066  0  -0.570897  0  -0.251571  -0.375257  0  1.42753  0
Cl  Cl127  1  0.68978466  0.44346902  0.59042083  1  0  -0.436096  0  1.132757  0  0  -0.390026  0  1.418318  0  0  -0.411575  0  1.404051  0  -0.570911  0  -0.251542  -0.375228  0  1.427511  0
Cl  Cl128  1  0.46883637  0.92675041  0.68005073  1  0  -0.424124  0  1.084552  0  0  -0.387511  0  1.353003  0  0  -0.407359  0  1.339185  0  -0.556896  0  -0.282955  -0.373766  0  1.362076  0
Cl  Cl129  1  0.53116748  0.07324319  0.31995074  1  0  -0.424089  0  1.084598  0  0  -0.387462  0  1.353022  0  0  -0.407307  0  1.339206  0  -0.556781  0  -0.28293  -0.373716  0  1.362093  0
Cl  Cl130  1  0.09604312  0.78422322  0.86412126  1  0  -0.410094  0  1.085612  0  0  -0.37142  0  1.354873  0  0  -0.392327  0  1.340728  0  -0.548348  0  -0.275467  -0.356997  0  1.364147  0
Cl  Cl131  1  0.90394229  0.21578003  0.13588986  1  0  -0.410133  0  1.085624  0  0  -0.371462  0  1.354894  0  0  -0.392357  0  1.340744  0  -0.5484  0  -0.275466  -0.357043  0  1.364171  0
O  O132  1  0.60681149  0.41698991  0.15647443  1  0  -0.187659  0  2.177873  0  0  -0.135816  0  2.385184  0  0  -0.152036  0  2.380438  0  -1.09062  0  -0.13327  -0.12504  0  2.388123  0
O  O133  1  0.39322248  0.58302460  0.84350741  1  0  -0.18767  0  2.177356  0  0  -0.135843  0  2.384652  0  0  -0.15207  0  2.37992  0  -1.090978  0  -0.133281  -0.125067  0  2.387594  0
O  O134  1  0.39422270  0.24380567  0.94894842  1  0  -0.186724  0  2.207266  0  0  -0.138561  0  2.423816  0  0  -0.155594  0  2.419119  0  -1.078106  0  -0.138525  -0.127274  0  2.426782  0
O  O135  1  0.60577313  0.75619356  0.05105017  1  0  -0.186646  0  2.207615  0  0  -0.138474  0  2.424169  0  0  -0.155507  0  2.419476  0  -1.078009  0  -0.138434  -0.127186  0  2.427132  0
O  O136  1  0.61867989  0.40180695  0.32984918  1  0  -0.189236  0  2.193019  0  0  -0.142255  0  2.408709  0  0  -0.158885  0  2.403605  0  -1.08351  0  -0.131035  -0.131308  0  2.412059  0
O  O137  1  0.38132526  0.59818826  0.67014850  1  0  -0.189219  0  2.193806  0  0  -0.142274  0  2.409512  0  0  -0.158898  0  2.404399  0  -1.083524  0  -0.130997  -0.131331  0  2.412867  0
O  O138  1  0.51781177  0.21512539  0.48170079  1  0  -0.185721  0  2.220549  0  0  -0.136104  0  2.439876  0  0  -0.152982  0  2.436499  0  -1.092655  0  -0.13009  -0.12505  0  2.442047  0
O  O139  1  0.48219494  0.78486499  0.51829824  1  0  -0.185631  0  2.220989  0  0  -0.136004  0  2.440309  0  0  -0.152878  0  2.436936  0  -1.093134  0  -0.130084  -0.124952  0  2.442481  0
O  O140  1  0.22968314  0.04154868  0.82537468  1  0  -0.201057  0  2.195834  0  0  -0.149588  0  2.40793  0  0  -0.168117  0  2.404051  0  -1.09147  0  -0.13796  -0.137212  0  2.410186  0
O  O141  1  0.77032823  0.95845216  0.17463204  1  0  -0.201047  0  2.195342  0  0  -0.149554  0  2.407396  0  0  -0.168086  0  2.403517  0  -1.091444  0  -0.137962  -0.137175  0  2.409652  0
O  O142  1  0.46113457  0.82325307  0.92642258  1  0  -0.209726  0  2.235941  0  0  -0.158389  0  2.457617  0  0  -0.177839  0  2.454483  0  -1.097722  0  -0.145205  -0.145459  0  2.459321  0
O  O143  1  0.53885469  0.17674616  0.07358094  1  0  -0.209981  0  2.236117  0  0  -0.158631  0  2.45781  0  0  -0.178083  0  2.454667  0  -1.0977  0  -0.145339  -0.145702  0  2.459523  0
O  O144  1  0.69352173  0.98512589  0.01963454  1  0  -0.179673  0  2.240384  0  0  -0.131537  0  2.463576  0  0  -0.14914  0  2.458572  0  -1.080672  0  -0.133351  -0.119902  0  2.466752  0
O  O145  1  0.30644570  0.01490712  0.98035428  1  0  -0.180094  0  2.24083  0  0  -0.131903  0  2.464045  0  0  -0.149502  0  2.459033  0  -1.080357  0  -0.133505  -0.12027  0  2.467222  0
O  O146  1  0.99166952  0.75002275  0.04053983  1  0  -0.191581  0  2.174093  0  0  -0.138443  0  2.376828  0  0  -0.154911  0  2.372728  0  -1.09184  0  -0.136929  -0.127453  0  2.379341  0
O  O147  1  0.00822160  0.24993788  0.95944299  1  0  -0.191717  0  2.174573  0  0  -0.13856  0  2.377269  0  0  -0.155026  0  2.373155  0  -1.092172  0  -0.136949  -0.127553  0  2.379738  0
