# generated using pymatgen
data_ZnH6(C5N3)2
_symmetry_space_group_name_H-M   'P 1'
_cell_length_a   7.25186109
_cell_length_b   15.21441733
_cell_length_c   18.70995220
_cell_angle_alpha   90.00034019
_cell_angle_beta   89.99961375
_cell_angle_gamma   93.22390599
_symmetry_Int_Tables_number   1
_chemical_formula_structural   ZnH6(C5N3)2
_chemical_formula_sum   'Zn4 H24 C40 N24'
_cell_volume   2061.05515735
_cell_formula_units_Z   4
loop_
 _symmetry_equiv_pos_site_id
 _symmetry_equiv_pos_as_xyz
  1  'x, y, z'
loop_
 _atom_site_type_symbol
 _atom_site_label
 _atom_site_symmetry_multiplicity
 _atom_site_fract_x
 _atom_site_fract_y
 _atom_site_fract_z
 _atom_site_occupancy
 _atom_site_pbe_bader_charge
 _atom_site_pbe_bader_spin_density
 _atom_site_pbe_cm5_charge
 _atom_site_pbe_ddec_charge
 _atom_site_pbe_ddec_spin_density
 _atom_site_pbe_ddec_sum_bond_order
 _atom_site_pbe_magmom
Zn  Zn0  1  0.35937563  0.97720657  0.92079848  1  1.189865  0  0.729296  0.588963  0  2.554931  0
Zn  Zn1  1  0.35938018  0.47720743  0.57919832  1  1.189884  0  0.729282  0.588977  0  2.554892  0
Zn  Zn2  1  0.64061950  0.52279416  0.42080161  1  1.189895  0  0.729282  0.588939  0  2.554998  0
Zn  Zn3  1  0.64062129  0.02279502  0.07920146  1  1.189739  0  0.729299  0.588964  0  2.554964  0
H  H4  1  0.33788360  0.61336424  0.33238992  1  0.150191  0  0.120932  0.111878  0  1.017017  0
H  H5  1  0.94590881  0.98500843  0.17284713  1  0.098363  0  0.11235  0.076962  0  1.026432  0
H  H6  1  0.33788614  0.11337295  0.16760422  1  0.150215  0  0.120983  0.111953  0  1.016961  0
H  H7  1  0.96862697  0.12980847  0.73863483  1  0.13044  0  0.113967  0.127033  0  0.99513  0
H  H8  1  0.96863511  0.62979796  0.76136939  1  0.130461  0  0.113906  0.126961  0  0.995269  0
H  H9  1  0.05409500  0.01499315  0.82715120  1  0.09819  0  0.112335  0.076929  0  1.026563  0
H  H10  1  0.66211852  0.38663471  0.66760948  1  0.150216  0  0.120905  0.111846  0  1.017021  0
H  H11  1  0.01882662  0.58582844  0.52740413  1  0.090092  0  0.118476  0.109697  0  1.007415  0
H  H12  1  0.98116738  0.41417182  0.47259313  1  0.090071  0  0.118464  0.109696  0  1.007417  0
H  H13  1  0.03136686  0.37019967  0.23863321  1  0.130473  0  0.113928  0.127025  0  0.995167  0
H  H14  1  0.05410983  0.51499126  0.67284790  1  0.098609  0  0.112362  0.076954  0  1.0266  0
H  H15  1  0.59037280  0.62354389  0.65732311  1  0.079674  0  0.118127  0.085364  0  0.982868  0
H  H16  1  0.40962396  0.87646688  0.15733230  1  0.081064  0  0.118145  0.085423  0  0.982741  0
H  H17  1  0.59037947  0.12353141  0.84266550  1  0.081066  0  0.118159  0.085443  0  0.98272  0
H  H18  1  0.98116288  0.91417156  0.02740721  1  0.089894  0  0.118468  0.109734  0  1.007415  0
H  H19  1  0.47104867  0.26018341  0.25250948  1  0.112916  0  0.116863  0.129852  0  0.991631  0
H  H20  1  0.94589505  0.48500769  0.32715578  1  0.09888  0  0.112404  0.077023  0  1.026552  0
H  H21  1  0.66211055  0.88662666  0.83239572  1  0.150201  0  0.120983  0.111933  0  1.01696  0
H  H22  1  0.03137531  0.87019180  0.26136350  1  0.130428  0  0.113957  0.127061  0  0.995086  0
H  H23  1  0.47104663  0.76018992  0.24749946  1  0.112875  0  0.116852  0.129842  0  0.991629  0
H  H24  1  0.40962940  0.37645573  0.34267950  1  0.079691  0  0.118145  0.085422  0  0.982808  0
H  H25  1  0.52895558  0.23980969  0.75249994  1  0.112851  0  0.116832  0.129834  0  0.991651  0
H  H26  1  0.52894940  0.73981620  0.74749259  1  0.112904  0  0.116859  0.129811  0  0.991652  0
H  H27  1  0.01882974  0.08582871  0.97259326  1  0.090015  0  0.11849  0.109763  0  1.007338  0
C  C28  1  0.58023067  0.30833447  0.26834648  1  -0.030998  0  -0.075342  -0.160996  0  3.923783  0
C  C29  1  0.24142170  0.19481724  0.73901808  1  0.018045  0  0.027364  0.101398  0  3.966256  0
C  C30  1  0.88108062  0.41675036  0.51550252  1  0.408851  0  0.007212  -0.048591  0  4.005171  0
C  C31  1  0.80678097  0.23790902  0.18835436  1  0.977323  0  0.18756  0.236502  0  4.112511  0
C  C32  1  0.15445439  0.56680392  0.69017771  1  0.417357  0  0.03966  0.085166  0  3.966972  0
C  C33  1  0.80677533  0.73790610  0.31164718  1  0.977361  0  0.187597  0.236551  0  4.112625  0
C  C34  1  0.03814298  0.84054971  0.87934309  1  0.958219  0  0.20095  0.289463  0  4.09544  0
C  C35  1  0.84556228  0.93319326  0.19017856  1  0.417378  0  0.039645  0.085195  0  3.966594  0
C  C36  1  0.28023663  0.09636948  0.11561427  1  0.440379  0  0.016234  -0.027241  0  3.960576  0
C  C37  1  0.88107462  0.91674664  0.98450279  1  0.408708  0  0.007263  -0.048509  0  4.005134  0
C  C38  1  0.88866583  0.88289932  0.91495094  1  -0.001716  0  -0.035499  -0.087727  0  4.099034  0
C  C39  1  0.19321993  0.76209125  0.81164878  1  0.977591  0  0.187572  0.236558  0  4.112469  0
C  C40  1  0.41977015  0.69166514  0.73165719  1  -0.031064  0  -0.075291  -0.160918  0  3.923778  0
C  C41  1  0.75858081  0.80518500  0.26098079  1  0.017974  0  0.027345  0.101368  0  3.966228  0
C  C42  1  0.45457069  0.12699183  0.81797562  1  0.473652  0  0.04415  0.085186  0  3.972642  0
C  C43  1  0.19322258  0.26209220  0.68835222  1  0.977533  0  0.187553  0.236536  0  4.11263  0
C  C44  1  0.11133078  0.11709963  0.08505006  1  -0.001399  0  -0.035489  -0.087689  0  4.09923  0
C  C45  1  0.71977196  0.40364046  0.61561893  1  0.440878  0  0.016286  -0.027158  0  3.96074  0
C  C46  1  0.15444008  0.06680767  0.80981977  1  0.417536  0  0.039609  0.085132  0  3.966882  0
C  C47  1  0.11891961  0.08325561  0.01549928  1  0.408983  0  0.00715  -0.048686  0  4.005238  0
C  C48  1  0.89255055  0.37010997  0.26084540  1  0.000653  0  -0.079139  -0.161038  0  3.92753  0
C  C49  1  0.71975745  0.90363144  0.88438566  1  0.440808  0  0.016254  -0.02715  0  3.960531  0
C  C50  1  0.41977637  0.19166137  0.76834127  1  -0.031018  0  -0.075306  -0.160944  0  3.92348  0
C  C51  1  0.24142510  0.69481331  0.76097980  1  0.018121  0  0.027386  0.10141  0  3.966213  0
C  C52  1  0.96185248  0.15945122  0.12065791  1  0.9583  0  0.200969  0.289497  0  4.095392  0
C  C53  1  0.96185521  0.65944744  0.37934124  1  0.958309  0  0.200978  0.289603  0  4.09518  0
C  C54  1  0.89255187  0.87010853  0.23915549  1  0.000801  0  -0.079202  -0.16115  0  3.927563  0
C  C55  1  0.84555195  0.43319569  0.30982490  1  0.417096  0  0.039581  0.08501  0  3.966934  0
C  C56  1  0.88866645  0.38290286  0.58505258  1  -0.001946  0  -0.035482  -0.087626  0  4.099229  0
C  C57  1  0.75857688  0.30518432  0.23902174  1  0.018068  0  0.027394  0.101464  0  3.966225  0
C  C58  1  0.54543434  0.87300844  0.18202325  1  0.473706  0  0.044139  0.085157  0  3.972785  0
C  C59  1  0.11133284  0.61709544  0.41494576  1  -0.001919  0  -0.035485  -0.087769  0  4.09923  0
C  C60  1  0.58022843  0.80833693  0.23165652  1  -0.03092  0  -0.075295  -0.160898  0  3.923501  0
C  C61  1  0.03814423  0.34055217  0.62065602  1  0.958248  0  0.201001  0.28948  0  4.095338  0
C  C62  1  0.28022618  0.59635981  0.38437940  1  0.440832  0  0.016246  -0.027152  0  3.960757  0
C  C63  1  0.45456990  0.62699921  0.68201924  1  0.47675  0  0.04416  0.085252  0  3.972855  0
C  C64  1  0.10745041  0.12989174  0.76084338  1  0.000884  0  -0.079157  -0.161049  0  3.92764  0
C  C65  1  0.11891883  0.58324926  0.48449635  1  0.408848  0  0.007252  -0.048464  0  4.005098  0
C  C66  1  0.54542970  0.37300172  0.31798283  1  0.475328  0  0.04415  0.08513  0  3.972793  0
C  C67  1  0.10744874  0.62988832  0.73915667  1  0.000697  0  -0.079141  -0.160975  0  3.927635  0
N  N68  1  0.62180744  0.94834829  0.93187506  1  -0.806472  0  -0.279289  -0.170603  0  3.590273  0
N  N69  1  0.68084664  0.18027734  0.15930354  1  -0.662733  0  -0.239663  -0.267215  0  3.187238  0
N  N70  1  0.78030656  0.63000398  0.38461079  1  -0.774926  0  -0.266326  -0.245342  0  3.551172  0
N  N71  1  0.78030636  0.13000509  0.11539136  1  -0.775182  0  -0.266321  -0.245286  0  3.551094  0
N  N72  1  0.98338620  0.72736560  0.33399332  1  -1.192645  0  -0.353574  -0.440384  0  3.154325  0
N  N73  1  0.31915296  0.81972359  0.84069746  1  -0.662708  0  -0.23967  -0.267235  0  3.187437  0
N  N74  1  0.72131306  0.95650064  0.99395261  1  -0.804709  0  -0.283238  -0.187342  0  3.608625  0
N  N75  1  0.27868147  0.54349400  0.49394823  1  -0.805201  0  -0.283236  -0.187365  0  3.608532  0
N  N76  1  0.21969339  0.86999715  0.88460910  1  -0.77525  0  -0.266316  -0.245313  0  3.551125  0
N  N77  1  0.67528581  0.93485962  0.16101783  1  -1.273149  0  -0.341265  -0.231563  0  3.586779  0
N  N78  1  0.31915319  0.31972302  0.65929761  1  -0.663005  0  -0.239531  -0.267117  0  3.187353  0
N  N79  1  0.32471962  0.56514328  0.66101332  1  -1.275042  0  -0.341327  -0.231611  0  3.586942  0
N  N80  1  0.37818521  0.55164460  0.43186940  1  -0.806165  0  -0.279198  -0.170451  0  3.590167  0
N  N81  1  0.21969159  0.36999628  0.61538700  1  -0.775033  0  -0.26636  -0.245341  0  3.551218  0
N  N82  1  0.37818933  0.05165197  0.06812327  1  -0.806346  0  -0.27925  -0.170548  0  3.590205  0
N  N83  1  0.01661543  0.77263059  0.83399864  1  -1.192952  0  -0.353507  -0.440235  0  3.1545  0
N  N84  1  0.68084649  0.68027856  0.34070179  1  -0.663124  0  -0.239592  -0.26713  0  3.187451  0
N  N85  1  0.32471624  0.06513867  0.83898157  1  -1.273124  0  -0.34129  -0.231572  0  3.586742  0
N  N86  1  0.62181585  0.44835698  0.56813000  1  -0.806284  0  -0.279197  -0.170441  0  3.59019  0
N  N87  1  0.67528396  0.43485634  0.33898875  1  -1.273688  0  -0.341303  -0.231479  0  3.586877  0
N  N88  1  0.27868233  0.04349963  0.00604626  1  -0.804965  0  -0.283182  -0.187221  0  3.608416  0
N  N89  1  0.72131813  0.45650693  0.50605170  1  -0.805154  0  -0.28322  -0.18732  0  3.608514  0
N  N90  1  0.98338271  0.22736968  0.16600344  1  -1.192721  0  -0.353462  -0.440182  0  3.154573  0
N  N91  1  0.01661455  0.27263336  0.66600287  1  -1.192828  0  -0.353566  -0.440311  0  3.154326  0
