# generated using pymatgen
data_ZnH16C12S(NO)4
_symmetry_space_group_name_H-M   'P 1'
_cell_length_a   6.05522109
_cell_length_b   10.65686403
_cell_length_c   12.77160234
_cell_angle_alpha   114.29028624
_cell_angle_beta   103.77194385
_cell_angle_gamma   89.98725068
_symmetry_Int_Tables_number   1
_chemical_formula_structural   ZnH16C12S(NO)4
_chemical_formula_sum   'Zn2 H32 C24 S2 N8 O8'
_cell_volume   725.13487824
_cell_formula_units_Z   2
loop_
 _symmetry_equiv_pos_site_id
 _symmetry_equiv_pos_as_xyz
  1  'x, y, z'
loop_
 _atom_site_type_symbol
 _atom_site_label
 _atom_site_symmetry_multiplicity
 _atom_site_fract_x
 _atom_site_fract_y
 _atom_site_fract_z
 _atom_site_occupancy
 _atom_site_hle17_bader_spin_density
 _atom_site_hle17_ddec_charge
 _atom_site_hle17_ddec_spin_density
 _atom_site_hle17_ddec_sum_bond_order
 _atom_site_hle17_magmom
 _atom_site_hse06_10hf_bader_spin_density
 _atom_site_hse06_10hf_ddec_charge
 _atom_site_hse06_10hf_ddec_spin_density
 _atom_site_hse06_10hf_ddec_sum_bond_order
 _atom_site_hse06_10hf_magmom
 _atom_site_hse06_bader_spin_density
 _atom_site_hse06_ddec_charge
 _atom_site_hse06_ddec_spin_density
 _atom_site_hse06_ddec_sum_bond_order
 _atom_site_hse06_magmom
 _atom_site_pbe_bader_spin_density
 _atom_site_pbe_cm5_charge
 _atom_site_pbe_ddec_charge
 _atom_site_pbe_ddec_spin_density
 _atom_site_pbe_ddec_sum_bond_order
 _atom_site_pbe_magmom
Zn  Zn0  1  0.50000652  0.00000254  0.50000150  1  0  1.009995  0  1.758658  0  0  0.836144  0  2.187303  0  0  0.876242  0  2.144564  0  0  0.682401  0.808461  0  2.216342  0
Zn  Zn1  1  0.49999301  0.50000252  0.49999794  1  0  1.011016  0  1.756971  0  0  0.838074  0  2.184849  0  0  0.878033  0  2.142138  0  0  0.683625  0.810326  0  2.213996  0
H  H2  1  0.03193589  0.15318647  0.00582831  1  0  0.086246  0  0.97113  0  0  0.0955  0  1.035752  0  0  0.097439  0  1.036593  0  0  0.095736  0.094141  0  1.035191  0
H  H3  1  0.52641766  0.34645431  0.99481873  1  0  0.085424  0  0.97197  0  0  0.094691  0  1.036383  0  0  0.096594  0  1.037333  0  0  0.095308  0.093289  0  1.035942  0
H  H4  1  0.96808485  0.84678446  0.99416072  1  0  0.086288  0  0.97123  0  0  0.095552  0  1.035816  0  0  0.0975  0  1.036636  0  0  0.095784  0.094187  0  1.035283  0
H  H5  1  0.47357653  0.65354872  0.00518130  1  0  0.085355  0  0.971985  0  0  0.094659  0  1.036368  0  0  0.096562  0  1.03732  0  0  0.095273  0.093258  0  1.035932  0
H  H6  1  0.02438825  0.23930025  0.85173965  1  0  0.098671  0  0.954866  0  0  0.11115  0  1.01403  0  0  0.113754  0  1.013158  0  0  0.101141  0.109156  0  1.014999  0
H  H7  1  0.67218210  0.26030852  0.14893321  1  0  0.09876  0  0.95436  0  0  0.111294  0  1.013355  0  0  0.113875  0  1.012546  0  0  0.101143  0.109329  0  1.014288  0
H  H8  1  0.97562304  0.76068419  0.14825758  1  0  0.098572  0  0.954731  0  0  0.111012  0  1.013968  0  0  0.113621  0  1.013086  0  0  0.101143  0.109017  0  1.014944  0
H  H9  1  0.32781495  0.73969143  0.85106766  1  0  0.098782  0  0.95442  0  0  0.11131  0  1.013413  0  0  0.113891  0  1.012604  0  0  0.101139  0.109344  0  1.014348  0
H  H10  1  0.34268180  0.95348245  0.82172107  1  0  0.098594  0  0.954171  0  0  0.110037  0  1.015598  0  0  0.113177  0  1.013699  0  0  0.101734  0.107776  0  1.017147  0
H  H11  1  0.02063339  0.54637400  0.17785779  1  0  0.098869  0  0.955049  0  0  0.110306  0  1.016303  0  0  0.11347  0  1.014383  0  0  0.101942  0.108027  0  1.017823  0
H  H12  1  0.65731733  0.04651957  0.17828073  1  0  0.098606  0  0.95421  0  0  0.110045  0  1.015654  0  0  0.113184  0  1.013755  0  0  0.101734  0.107783  0  1.017198  0
H  H13  1  0.97936131  0.45363210  0.82213942  1  0  0.098807  0  0.955035  0  0  0.110215  0  1.016342  0  0  0.113382  0  1.01441  0  0  0.101918  0.10793  0  1.017877  0
H  H14  1  0.83005835  0.20775166  0.64812406  1  0  0.328309  0  0.919152  0  0  0.313858  0  0.977583  0  0  0.320685  0  0.972119  0  0  0.295728  0.309079  0  0.981397  0
H  H15  1  0.68126525  0.29222362  0.35233894  1  0  0.328835  0  0.918811  0  0  0.313922  0  0.978071  0  0  0.320767  0  0.97255  0  0  0.295871  0.309104  0  0.981957  0
H  H16  1  0.16994606  0.79226075  0.35188418  1  0  0.328401  0  0.91911  0  0  0.313911  0  0.97759  0  0  0.320746  0  0.972126  0  0  0.295723  0.309117  0  0.981406  0
H  H17  1  0.31872458  0.70778356  0.64766279  1  0  0.328829  0  0.918902  0  0  0.313828  0  0.978254  0  0  0.320674  0  0.972744  0  0  0.295846  0.309011  0  0.982138  0
H  H18  1  0.57221544  0.25877432  0.65292299  1  0  0.311675  0  0.894377  0  0  0.300686  0  0.949512  0  0  0.306423  0  0.945791  0  0  0.298048  0.29655  0  0.952335  0
H  H19  1  0.41862511  0.24118943  0.34749967  1  0  0.312134  0  0.894759  0  0  0.301482  0  0.94931  0  0  0.307206  0  0.945563  0  0  0.29844  0.297296  0  0.952271  0
H  H20  1  0.42778674  0.74123502  0.34708709  1  0  0.311759  0  0.894374  0  0  0.300748  0  0.949513  0  0  0.30649  0  0.945791  0  0  0.29812  0.296605  0  0.952338  0
H  H21  1  0.58136062  0.75881363  0.65250256  1  0  0.31214  0  0.8948  0  0  0.301515  0  0.94931  0  0  0.30725  0  0.945548  0  0  0.298452  0.297329  0  0.952273  0
H  H22  1  0.21337785  0.09684525  0.62730084  1  0  0.31324  0  0.939367  0  0  0.29937  0  0.997413  0  0  0.306266  0  0.992123  0  0  0.288261  0.294513  0  1.001019  0
H  H23  1  0.08544055  0.40324803  0.37259410  1  0  0.313642  0  0.938713  0  0  0.299826  0  0.996706  0  0  0.306718  0  0.991404  0  0  0.2883  0.294965  0  1.000333  0
H  H24  1  0.78662940  0.90316406  0.37270667  1  0  0.313188  0  0.939438  0  0  0.299298  0  0.997527  0  0  0.306195  0  0.992236  0  0  0.2882  0.294439  0  1.00113  0
H  H25  1  0.91455028  0.59675504  0.62740870  1  0  0.313633  0  0.938692  0  0  0.299772  0  0.996727  0  0  0.30666  0  0.991434  0  0  0.288322  0.294913  0  1.000352  0
H  H26  1  0.20254003  0.93887440  0.62540776  1  0  0.309645  0  0.905064  0  0  0.295313  0  0.968004  0  0  0.301676  0  0.96299  0  0  0.29496  0.290733  0  0.971693  0
H  H27  1  0.07638662  0.56114645  0.37427041  1  0  0.309752  0  0.903881  0  0  0.295251  0  0.967357  0  0  0.301611  0  0.962315  0  0  0.294584  0.290693  0  0.971017  0
H  H28  1  0.79745774  0.06112967  0.37459223  1  0  0.309665  0  0.905023  0  0  0.295351  0  0.967965  0  0  0.301713  0  0.96295  0  0  0.29499  0.290771  0  0.971653  0
H  H29  1  0.92361980  0.43885863  0.62572775  1  0  0.309793  0  0.903846  0  0  0.295298  0  0.967308  0  0  0.301657  0  0.962268  0  0  0.294638  0.290743  0  0.970969  0
H  H30  1  0.69190879  0.00669512  0.98942391  1  0  0.079725  0  0.977683  0  0  0.090453  0  1.044036  0  0  0.092663  0  1.04337  0  0  0.096054  0.088995  0  1.044457  0
H  H31  1  0.20280686  0.49293375  0.01056975  1  0  0.07965  0  0.978155  0  0  0.090598  0  1.044117  0  0  0.092812  0  1.043395  0  0  0.096121  0.089151  0  1.044515  0
H  H32  1  0.30810400  0.99328827  0.01057157  1  0  0.079758  0  0.977678  0  0  0.090493  0  1.044034  0  0  0.092704  0  1.043363  0  0  0.096037  0.089035  0  1.044453  0
H  H33  1  0.79719393  0.50706824  0.98942910  1  0  0.079584  0  0.978125  0  0  0.090537  0  1.044076  0  0  0.092749  0  1.043361  0  0  0.096084  0.089089  0  1.044473  0
C  C34  1  0.68843819  0.04753359  0.92371695  1  0  -0.076002  0  3.814064  0  0  -0.09296  0  4.069103  0  0  -0.094306  0  4.090847  0  0  -0.101312  -0.092185  0  4.054752  0
C  C35  1  0.26471107  0.45219181  0.07638548  1  0  -0.076884  0  3.814332  0  0  -0.094117  0  4.069739  0  0  -0.095425  0  4.09149  0  0  -0.101941  -0.09336  0  4.055181  0
C  C36  1  0.31157060  0.95245599  0.07627939  1  0  -0.076013  0  3.814086  0  0  -0.09297  0  4.069113  0  0  -0.094316  0  4.090859  0  0  -0.101265  -0.092196  0  4.054764  0
C  C37  1  0.73528708  0.54781434  0.92361604  1  0  -0.076762  0  3.814265  0  0  -0.093993  0  4.069658  0  0  -0.095304  0  4.091412  0  0  -0.101873  -0.093236  0  4.055096  0
C  C38  1  0.67959716  0.14792929  0.75245836  1  0  0.184268  0  3.763916  0  0  0.180988  0  4.006363  0  0  0.18459  0  4.029357  0  0  0.073754  0.17847  0  3.991145  0
C  C39  1  0.42639287  0.35181003  0.24777467  1  0  0.184562  0  3.76466  0  0  0.181343  0  4.006864  0  0  0.184865  0  4.029947  0  0  0.073364  0.178851  0  3.991687  0
C  C40  1  0.32040786  0.85206758  0.24754393  1  0  0.184272  0  3.76383  0  0  0.180929  0  4.006352  0  0  0.184539  0  4.02935  0  0  0.073785  0.178395  0  3.991139  0
C  C41  1  0.57359622  0.64819300  0.75222479  1  0  0.1847  0  3.764784  0  0  0.181426  0  4.006921  0  0  0.18496  0  4.03001  0  0  0.073445  0.178935  0  3.991743  0
C  C42  1  0.87921445  0.12839786  0.93244149  1  0  -0.078314  0  3.796862  0  0  -0.092406  0  4.047635  0  0  -0.094412  0  4.069684  0  0  -0.102188  -0.091102  0  4.032755  0
C  C43  1  0.44666261  0.37124566  0.06796481  1  0  -0.076481  0  3.794727  0  0  -0.090457  0  4.045616  0  0  -0.092468  0  4.067638  0  0  -0.101068  -0.089141  0  4.030833  0
C  C44  1  0.12080646  0.87158345  0.06755341  1  0  -0.078518  0  3.797037  0  0  -0.092619  0  4.047828  0  0  -0.094625  0  4.069877  0  0  -0.102257  -0.091325  0  4.032957  0
C  C45  1  0.55334065  0.62876051  0.93203806  1  0  -0.076412  0  3.79462  0  0  -0.090416  0  4.045498  0  0  -0.092429  0  4.067525  0  0  -0.101035  -0.089098  0  4.030717  0
C  C46  1  0.87403564  0.17861741  0.84668917  1  0  -0.149633  0  3.753357  0  0  -0.169724  0  4.004648  0  0  -0.172431  0  4.025331  0  0  -0.09732  -0.167891  0  3.991024  0
C  C47  1  0.52684278  0.32097783  0.15374537  1  0  -0.14983  0  3.752284  0  0  -0.16987  0  4.003619  0  0  -0.172571  0  4.024321  0  0  -0.09703  -0.16806  0  3.990093  0
C  C48  1  0.12597754  0.82136807  0.15330940  1  0  -0.14944  0  3.752911  0  0  -0.169479  0  4.004228  0  0  -0.172184  0  4.024913  0  0  -0.097438  -0.167648  0  3.990615  0
C  C49  1  0.47314780  0.67902414  0.84625234  1  0  -0.149942  0  3.752373  0  0  -0.169992  0  4.003733  0  0  -0.172693  0  4.024432  0  0  -0.097067  -0.168183  0  3.990212  0
C  C50  1  0.48776598  0.06526578  0.74309128  1  0  0.190789  0  3.78143  0  0  0.186741  0  4.024564  0  0  0.191277  0  4.047009  0  0  0.075754  0.183656  0  4.009349  0
C  C51  1  0.24402601  0.43458756  0.25686412  1  0  0.187281  0  3.78532  0  0  0.183691  0  4.027992  0  0  0.188189  0  4.050541  0  0  0.074519  0.18057  0  4.012676  0
C  C52  1  0.51224370  0.93473831  0.25691082  1  0  0.190725  0  3.78117  0  0  0.186684  0  4.024358  0  0  0.191217  0  4.046799  0  0  0.075768  0.183602  0  4.009145  0
C  C53  1  0.75596475  0.56541543  0.74313239  1  0  0.18705  0  3.785283  0  0  0.183591  0  4.027762  0  0  0.18809  0  4.050306  0  0  0.074446  0.180476  0  4.012447  0
C  C54  1  0.49253847  0.01719474  0.82999449  1  0  -0.169773  0  3.769645  0  0  -0.190022  0  4.026335  0  0  -0.193623  0  4.047162  0  0  -0.102747  -0.187489  0  4.012787  0
C  C55  1  0.16220515  0.48264103  0.16987521  1  0  -0.168015  0  3.770188  0  0  -0.188345  0  4.026622  0  0  -0.191978  0  4.047502  0  0  -0.102227  -0.185609  0  4.012707  0
C  C56  1  0.50747032  0.98280420  0.17000813  1  0  -0.169828  0  3.769783  0  0  -0.190083  0  4.02647  0  0  -0.193683  0  4.047297  0  0  -0.102769  -0.187541  0  4.012911  0
C  C57  1  0.83779716  0.51736928  0.83012974  1  0  -0.167824  0  3.770067  0  0  -0.188172  0  4.026453  0  0  -0.191798  0  4.047331  0  0  -0.102159  -0.185439  0  4.012529  0
S  S58  1  0.83451922  0.74993999  0.49988155  1  0  1.541972  0  5.899294  0  0  1.419189  0  6.44139  0  0  1.47408  0  6.404668  0  0  0.552584  1.381214  0  6.465737  0
S  S59  1  0.16547988  0.25006201  0.50011789  1  0  1.541804  0  5.899313  0  0  1.419103  0  6.441332  0  0  1.47398  0  6.404625  0  0  0.552604  1.381145  0  6.465661  0
N  N60  1  0.67190336  0.18094275  0.65405852  1  0  -0.660961  0  3.153657  0  0  -0.603772  0  3.389902  0  0  -0.622806  0  3.387696  0  0  -0.606978  -0.590598  0  3.391423  0
N  N61  1  0.51711915  0.31899394  0.34632851  1  0  -0.660975  0  3.154596  0  0  -0.603662  0  3.391361  0  0  -0.622614  0  3.388985  0  0  -0.607089  -0.590499  0  3.393162  0
N  N62  1  0.32809821  0.81906342  0.34594574  1  0  -0.661116  0  3.154026  0  0  -0.603841  0  3.390228  0  0  -0.622903  0  3.388042  0  0  -0.607013  -0.590617  0  3.391716  0
N  N63  1  0.48286672  0.68101012  0.65367094  1  0  -0.661005  0  3.154833  0  0  -0.603597  0  3.391552  0  0  -0.622588  0  3.389214  0  0  -0.607058  -0.590434  0  3.393355  0
N  N64  1  0.30992797  0.01965299  0.63586763  1  0  -0.657926  0  3.129762  0  0  -0.606366  0  3.36703  0  0  -0.624935  0  3.364488  0  0  -0.604187  -0.593265  0  3.368531  0
N  N65  1  0.17332542  0.48037641  0.36395359  1  0  -0.658085  0  3.130189  0  0  -0.606683  0  3.367457  0  0  -0.625132  0  3.364805  0  0  -0.603381  -0.593567  0  3.369051  0
N  N66  1  0.69007682  0.98035215  0.36413663  1  0  -0.657785  0  3.129616  0  0  -0.606246  0  3.366905  0  0  -0.624806  0  3.364355  0  0  -0.604136  -0.593147  0  3.368402  0
N  N67  1  0.82666402  0.51961931  0.63603875  1  0  -0.658035  0  3.129856  0  0  -0.606672  0  3.367232  0  0  -0.625128  0  3.364595  0  0  -0.603475  -0.593533  0  3.368756  0
O  O68  1  0.92983367  0.77176826  0.41062412  1  0  -0.733778  0  1.952419  0  0  -0.672554  0  2.186537  0  0  -0.693542  0  2.169878  0  0  -0.360663  -0.657745  0  2.197656  0
O  O69  1  0.01947565  0.72821658  0.58919745  1  0  -0.734214  0  1.951639  0  0  -0.674271  0  2.187041  0  0  -0.695262  0  2.170358  0  0  -0.361763  -0.659407  0  2.198175  0
O  O70  1  0.07015919  0.22822750  0.58937097  1  0  -0.733762  0  1.952413  0  0  -0.672563  0  2.186512  0  0  -0.693535  0  2.169844  0  0  -0.360735  -0.65778  0  2.197655  0
O  O71  1  0.98051985  0.27177501  0.41079417  1  0  -0.734136  0  1.951571  0  0  -0.674244  0  2.186964  0  0  -0.695242  0  2.17029  0  0  -0.361684  -0.659385  0  2.198095  0
O  O72  1  0.72551834  0.87374866  0.56553316  1  0  -0.751166  0  2.039162  0  0  -0.683839  0  2.310153  0  0  -0.706937  0  2.292995  0  0  -0.363163  -0.667551  0  2.32142  0
O  O73  1  0.65982327  0.62606986  0.43417978  1  0  -0.750591  0  2.036522  0  0  -0.683751  0  2.30766  0  0  -0.706829  0  2.290528  0  0  -0.363311  -0.667491  0  2.31899  0
O  O74  1  0.27450421  0.12626067  0.43447605  1  0  -0.751078  0  2.039162  0  0  -0.683777  0  2.310143  0  0  -0.706873  0  2.293002  0  0  -0.363197  -0.66748  0  2.32138  0
O  O75  1  0.34015560  0.37394249  0.56582326  1  0  -0.750479  0  2.036446  0  0  -0.683722  0  2.307642  0  0  -0.706794  0  2.290516  0  0  -0.363292  -0.667463  0  2.31896  0
