# generated using pymatgen
data_NaH5C6S(ClO2)2
_symmetry_space_group_name_H-M   'P 1'
_cell_length_a   5.44895437
_cell_length_b   10.77050682
_cell_length_c   17.25462704
_cell_angle_alpha   106.42530076
_cell_angle_beta   90.00004205
_cell_angle_gamma   89.99985987
_symmetry_Int_Tables_number   1
_chemical_formula_structural   NaH5C6S(ClO2)2
_chemical_formula_sum   'Na4 H20 C24 S4 Cl8 O16'
_cell_volume   971.31292899
_cell_formula_units_Z   4
loop_
 _symmetry_equiv_pos_site_id
 _symmetry_equiv_pos_as_xyz
  1  'x, y, z'
loop_
 _atom_site_type_symbol
 _atom_site_label
 _atom_site_symmetry_multiplicity
 _atom_site_fract_x
 _atom_site_fract_y
 _atom_site_fract_z
 _atom_site_occupancy
 _atom_site_hle17_bader_spin_density
 _atom_site_hle17_ddec_charge
 _atom_site_hle17_ddec_spin_density
 _atom_site_hle17_ddec_sum_bond_order
 _atom_site_hle17_magmom
 _atom_site_hse06_10hf_bader_spin_density
 _atom_site_hse06_10hf_ddec_charge
 _atom_site_hse06_10hf_ddec_spin_density
 _atom_site_hse06_10hf_ddec_sum_bond_order
 _atom_site_hse06_10hf_magmom
 _atom_site_hse06_bader_spin_density
 _atom_site_hse06_ddec_charge
 _atom_site_hse06_ddec_spin_density
 _atom_site_hse06_ddec_sum_bond_order
 _atom_site_hse06_magmom
 _atom_site_pbe_bader_spin_density
 _atom_site_pbe_cm5_charge
 _atom_site_pbe_ddec_charge
 _atom_site_pbe_ddec_spin_density
 _atom_site_pbe_ddec_sum_bond_order
 _atom_site_pbe_magmom
Na  Na0  1  0.90129422  0.71803559  0.07995821  1  0  0.914168  0  0.378959  0  0  0.882846  0  0.515863  0  0  0.890902  0  0.49592  0  0  0.688234  0.876422  0  0.530787  0
Na  Na1  1  0.40129452  0.78196458  0.92004218  1  0  0.914164  0  0.378975  0  0  0.882857  0  0.515862  0  0  0.890925  0  0.495909  0  0  0.688234  0.876431  0  0.530785  0
Na  Na2  1  0.09870740  0.28196559  0.92004217  1  0  0.914164  0  0.378973  0  0  0.882852  0  0.515871  0  0  0.890908  0  0.495924  0  0  0.688225  0.876427  0  0.53079  0
Na  Na3  1  0.59870709  0.21803563  0.07995803  1  0  0.914176  0  0.378963  0  0  0.88286  0  0.515868  0  0  0.890909  0  0.495931  0  0  0.688243  0.876435  0  0.530793  0
H  H4  1  0.17574780  0.75477996  0.25967700  1  0  0.133654  0  0.935156  0  0  0.140538  0  0.998182  0  0  0.14479  0  0.995107  0  0  0.115447  0.137382  0  1.00065  0
H  H5  1  0.67574889  0.74522145  0.74032298  1  0  0.13367  0  0.935136  0  0  0.14055  0  0.998162  0  0  0.144802  0  0.995087  0  0  0.115452  0.137395  0  1.000631  0
H  H6  1  0.82425015  0.24522025  0.74032380  1  0  0.133647  0  0.935159  0  0  0.140551  0  0.998161  0  0  0.144804  0  0.995086  0  0  0.115453  0.137393  0  1.000631  0
H  H7  1  0.32424905  0.25477779  0.25967474  1  0  0.133654  0  0.935141  0  0  0.14056  0  0.998144  0  0  0.144812  0  0.995072  0  0  0.115443  0.137402  0  1.000613  0
H  H8  1  0.60064596  0.80525802  0.47786534  1  0  0.105456  0  0.955995  0  0  0.113449  0  1.022821  0  0  0.116524  0  1.020809  0  0  0.097315  0.111263  0  1.024285  0
H  H9  1  0.10064943  0.69474348  0.52213464  1  0  0.105458  0  0.95598  0  0  0.113443  0  1.022808  0  0  0.116517  0  1.020797  0  0  0.097317  0.111257  0  1.024273  0
H  H10  1  0.39935382  0.19474316  0.52213563  1  0  0.105476  0  0.955993  0  0  0.113466  0  1.022811  0  0  0.116541  0  1.0208  0  0  0.097328  0.111278  0  1.024275  0
H  H11  1  0.89935769  0.30525672  0.47786441  1  0  0.105427  0  0.95598  0  0  0.113445  0  1.02277  0  0  0.116519  0  1.020758  0  0  0.097323  0.111258  0  1.024234  0
H  H12  1  0.85501441  0.61394061  0.40754344  1  0  0.102126  0  0.960594  0  0  0.107956  0  1.030539  0  0  0.111272  0  1.028572  0  0  0.096479  0.105588  0  1.032045  0
H  H13  1  0.35501529  0.88605865  0.59245679  1  0  0.102144  0  0.960589  0  0  0.107978  0  1.03053  0  0  0.111292  0  1.028567  0  0  0.096486  0.105609  0  1.032036  0
H  H14  1  0.14498537  0.38605960  0.59245736  1  0  0.102128  0  0.960581  0  0  0.10796  0  1.030529  0  0  0.111274  0  1.028565  0  0  0.096485  0.105591  0  1.032034  0
H  H15  1  0.64498633  0.11394157  0.40754343  1  0  0.10212  0  0.960569  0  0  0.107959  0  1.030513  0  0  0.111275  0  1.028547  0  0  0.09647  0.10559  0  1.032018  0
H  H16  1  0.65908210  0.92396551  0.06591954  1  0  0.424645  0  0.878583  0  0  0.396323  0  0.939683  0  0  0.406111  0  0.925044  0  0  0.29495  0.389383  0  0.950054  0
H  H17  1  0.15908343  0.57603496  0.93408085  1  0  0.424598  0  0.878634  0  0  0.396298  0  0.939722  0  0  0.406087  0  0.92508  0  0  0.294913  0.389355  0  0.950099  0
H  H18  1  0.34091952  0.07603373  0.93408050  1  0  0.424706  0  0.878499  0  0  0.396379  0  0.939614  0  0  0.406168  0  0.924973  0  0  0.294947  0.389436  0  0.949991  0
H  H19  1  0.84091819  0.42396623  0.06592012  1  0  0.424662  0  0.878565  0  0  0.396339  0  0.939667  0  0  0.406128  0  0.925025  0  0  0.294937  0.389397  0  0.950041  0
H  H20  1  0.42516401  0.85577486  0.08537154  1  0  0.424737  0  0.876846  0  0  0.398083  0  0.934956  0  0  0.40743  0  0.92108  0  0  0.295388  0.391467  0  0.944785  0
H  H21  1  0.92516233  0.64422528  0.91462886  1  0  0.424761  0  0.876843  0  0  0.398119  0  0.934937  0  0  0.407468  0  0.921058  0  0  0.29539  0.391503  0  0.944766  0
H  H22  1  0.57483760  0.14422633  0.91462943  1  0  0.424756  0  0.876862  0  0  0.398116  0  0.934946  0  0  0.407464  0  0.921068  0  0  0.295393  0.391501  0  0.944775  0
H  H23  1  0.07483562  0.35577396  0.08537177  1  0  0.424804  0  0.87678  0  0  0.39812  0  0.934932  0  0  0.407469  0  0.921055  0  0  0.2954  0.391504  0  0.944762  0
C  C24  1  0.32196128  0.72361652  0.29290999  1  0  -0.115391  0  3.738692  0  0  -0.151029  0  3.995321  0  0  -0.150828  0  4.013531  0  0  -0.090136  -0.151062  0  3.983237  0
C  C25  1  0.82196215  0.77638374  0.70709041  1  0  -0.115371  0  3.738637  0  0  -0.151012  0  3.995259  0  0  -0.150808  0  4.013457  0  0  -0.090108  -0.151047  0  3.983181  0
C  C26  1  0.67803666  0.27638369  0.70709023  1  0  -0.115356  0  3.738654  0  0  -0.15101  0  3.995283  0  0  -0.150805  0  4.013476  0  0  -0.090112  -0.151046  0  3.983204  0
C  C27  1  0.17803396  0.22361550  0.29290848  1  0  -0.115369  0  3.738552  0  0  -0.151028  0  3.995185  0  0  -0.150826  0  4.013387  0  0  -0.090095  -0.151061  0  3.983101  0
C  C28  1  0.36912440  0.78924057  0.37355931  1  0  0.127834  0  3.808738  0  0  0.139244  0  4.078087  0  0  0.141241  0  4.099117  0  0  0.005707  0.137644  0  4.063948  0
C  C29  1  0.86912723  0.71076157  0.62644085  1  0  0.127799  0  3.808761  0  0  0.139232  0  4.078062  0  0  0.14123  0  4.099092  0  0  0.005633  0.137629  0  4.063928  0
C  C30  1  0.63087355  0.21075771  0.62644115  1  0  0.127816  0  3.808783  0  0  0.139221  0  4.078124  0  0  0.141219  0  4.099156  0  0  0.00563  0.137621  0  4.063985  0
C  C31  1  0.13087439  0.28923863  0.37355705  1  0  0.127699  0  3.808577  0  0  0.13913  0  4.077911  0  0  0.141128  0  4.098939  0  0  0.005638  0.137529  0  4.06377  0
C  C32  1  0.56146969  0.75193671  0.41546018  1  0  -0.114966  0  3.758734  0  0  -0.141032  0  4.014932  0  0  -0.141505  0  4.03388  0  0  -0.099  -0.140539  0  4.002111  0
C  C33  1  0.06147122  0.74806291  0.58454004  1  0  -0.114964  0  3.75871  0  0  -0.14101  0  4.014879  0  0  -0.141484  0  4.033827  0  0  -0.098967  -0.140515  0  4.002058  0
C  C34  1  0.43853009  0.24806253  0.58454045  1  0  -0.114989  0  3.758703  0  0  -0.141026  0  4.01487  0  0  -0.141501  0  4.033821  0  0  -0.098964  -0.140531  0  4.002048  0
C  C35  1  0.93853040  0.25193827  0.41545860  1  0  -0.114909  0  3.75871  0  0  -0.140992  0  4.014898  0  0  -0.141465  0  4.033845  0  0  -0.099003  -0.140499  0  4.002074  0
C  C36  1  0.70579301  0.64631313  0.37604440  1  0  -0.114028  0  3.769826  0  0  -0.135537  0  4.028222  0  0  -0.139012  0  4.048645  0  0  -0.098177  -0.133244  0  4.01449  0
C  C37  1  0.20579595  0.85368535  0.62395566  1  0  -0.114036  0  3.769838  0  0  -0.135557  0  4.028226  0  0  -0.139031  0  4.048647  0  0  -0.098194  -0.133263  0  4.014494  0
C  C38  1  0.29420494  0.35368612  0.62395623  1  0  -0.113966  0  3.769763  0  0  -0.13549  0  4.028151  0  0  -0.138964  0  4.048575  0  0  -0.098171  -0.133197  0  4.01442  0
C  C39  1  0.79420750  0.14631486  0.37604398  1  0  -0.113996  0  3.769776  0  0  -0.135526  0  4.028175  0  0  -0.139001  0  4.048598  0  0  -0.098148  -0.133232  0  4.014438  0
C  C40  1  0.66067983  0.57952849  0.29540654  1  0  0.128866  0  3.789543  0  0  0.128173  0  4.059515  0  0  0.1334  0  4.079509  0  0  0.014765  0.124548  0  4.046148  0
C  C41  1  0.16068264  0.92047100  0.70459368  1  0  0.128865  0  3.789453  0  0  0.128171  0  4.059447  0  0  0.133397  0  4.079443  0  0  0.014798  0.124546  0  4.046081  0
C  C42  1  0.33931811  0.42047172  0.70459425  1  0  0.128816  0  3.789514  0  0  0.128121  0  4.059505  0  0  0.133347  0  4.0795  0  0  0.014755  0.124496  0  4.04614  0
C  C43  1  0.83931714  0.07952920  0.29540538  1  0  0.128811  0  3.78944  0  0  0.128126  0  4.059423  0  0  0.133351  0  4.079424  0  0  0.014779  0.124502  0  4.046052  0
C  C44  1  0.46994217  0.61908695  0.25309033  1  0  -0.161475  0  3.706785  0  0  -0.144678  0  3.960878  0  0  -0.1509  0  3.980697  0  0  -0.019497  -0.140719  0  3.947711  0
C  C45  1  0.96994447  0.88091314  0.74691065  1  0  -0.161503  0  3.706791  0  0  -0.144713  0  3.960897  0  0  -0.150937  0  3.980719  0  0  -0.019535  -0.140759  0  3.947745  0
C  C46  1  0.53005577  0.38091423  0.74691063  1  0  -0.161501  0  3.706812  0  0  -0.144716  0  3.960934  0  0  -0.150942  0  3.980757  0  0  -0.01952  -0.14076  0  3.947767  0
C  C47  1  0.03005715  0.11908707  0.25308783  1  0  -0.161375  0  3.706738  0  0  -0.14459  0  3.960836  0  0  -0.150815  0  3.980659  0  0  -0.019505  -0.140635  0  3.947675  0
S  S48  1  0.41672835  0.54518305  0.14739283  1  0  1.347951  0  5.663143  0  0  1.253418  0  6.181109  0  0  1.30065  0  6.156455  0  0  0.525985  1.220865  0  6.196957  0
S  S49  1  0.91673420  0.95481807  0.85260716  1  0  1.348  0  5.663122  0  0  1.253466  0  6.181082  0  0  1.300697  0  6.156431  0  0  0.525999  1.220915  0  6.196934  0
S  S50  1  0.58326776  0.45481813  0.85260698  1  0  1.34798  0  5.663157  0  0  1.253443  0  6.181121  0  0  1.300673  0  6.15647  0  0  0.525997  1.220891  0  6.196973  0
S  S51  1  0.08326191  0.04517924  0.14739197  1  0  1.347953  0  5.663117  0  0  1.25343  0  6.181074  0  0  1.300661  0  6.15643  0  0  0.526019  1.220875  0  6.196923  0
Cl  Cl52  1  0.19195803  0.92270250  0.42101097  1  0  -0.092584  0  1.381038  0  0  -0.073142  0  1.621502  0  0  -0.078072  0  1.619573  0  0  0.004654  -0.069545  0  1.623007  0
Cl  Cl53  1  0.69195956  0.57729793  0.57898943  1  0  -0.092572  0  1.381028  0  0  -0.073151  0  1.621488  0  0  -0.078082  0  1.619559  0  0  0.004672  -0.06955  0  1.622994  0
Cl  Cl54  1  0.80804175  0.07729771  0.57898983  1  0  -0.092576  0  1.381076  0  0  -0.073149  0  1.621558  0  0  -0.078082  0  1.61963  0  0  0.004667  -0.069552  0  1.623062  0
Cl  Cl55  1  0.30804389  0.42270131  0.42100888  1  0  -0.092556  0  1.381008  0  0  -0.073125  0  1.621463  0  0  -0.078057  0  1.619534  0  0  0.004658  -0.069528  0  1.622967  0
Cl  Cl56  1  0.84478147  0.44879919  0.25124190  1  0  -0.047999  0  1.452658  0  0  -0.033375  0  1.704848  0  0  -0.036413  0  1.700115  0  0  0.049845  -0.031155  0  1.708224  0
Cl  Cl57  1  0.34478432  0.05120076  0.74875814  1  0  -0.048011  0  1.4526  0  0  -0.033381  0  1.704794  0  0  -0.036418  0  1.700058  0  0  0.049841  -0.031158  0  1.70817  0
Cl  Cl58  1  0.15521647  0.55120199  0.74875849  1  0  -0.047993  0  1.45263  0  0  -0.033358  0  1.704812  0  0  -0.036398  0  1.700081  0  0  0.049853  -0.031138  0  1.708192  0
Cl  Cl59  1  0.65521546  0.94879849  0.25124191  1  0  -0.047999  0  1.452619  0  0  -0.033369  0  1.704806  0  0  -0.036406  0  1.700072  0  0  0.049846  -0.031148  0  1.708181  0
O  O60  1  0.20989031  0.61470570  0.12662805  1  0  -0.685147  0  1.979003  0  0  -0.640111  0  2.23321  0  0  -0.659278  0  2.21777  0  0  -0.396678  -0.626538  0  2.243692  0
O  O61  1  0.70989471  0.88529278  0.87337258  1  0  -0.685149  0  1.978937  0  0  -0.640113  0  2.233145  0  0  -0.659282  0  2.217704  0  0  -0.396653  -0.626538  0  2.243626  0
O  O62  1  0.79010763  0.38529258  0.87337240  1  0  -0.685151  0  1.978934  0  0  -0.640112  0  2.233147  0  0  -0.659278  0  2.217706  0  0  -0.396669  -0.626537  0  2.243627  0
O  O63  1  0.29011425  0.11470646  0.12662630  1  0  -0.685187  0  1.978832  0  0  -0.640183  0  2.233074  0  0  -0.659329  0  2.217593  0  0  -0.396711  -0.626606  0  2.243554  0
O  O64  1  0.36516465  0.40729241  0.13836319  1  0  -0.733339  0  2.00582  0  0  -0.684762  0  2.258411  0  0  -0.705461  0  2.243117  0  0  -0.388118  -0.670133  0  2.268831  0
O  O65  1  0.86516676  0.09270656  0.86163784  1  0  -0.733327  0  2.005807  0  0  -0.684768  0  2.258409  0  0  -0.705462  0  2.243112  0  0  -0.388133  -0.670139  0  2.268832  0
O  O66  1  0.63483513  0.59270684  0.86163743  1  0  -0.733331  0  2.005872  0  0  -0.68476  0  2.258448  0  0  -0.705453  0  2.24315  0  0  -0.388105  -0.670129  0  2.268871  0
O  O67  1  0.13483302  0.90729366  0.13836296  1  0  -0.733367  0  2.005854  0  0  -0.684796  0  2.258444  0  0  -0.705489  0  2.243145  0  0  -0.388162  -0.670168  0  2.26887  0
O  O68  1  0.64707521  0.56278982  0.10703487  1  0  -0.726597  0  1.99944  0  0  -0.676293  0  2.249695  0  0  -0.696187  0  2.23214  0  0  -0.392077  -0.662097  0  2.261274  0
O  O69  1  0.14707470  0.93720873  0.89296518  1  0  -0.726634  0  1.999487  0  0  -0.676329  0  2.249748  0  0  -0.696226  0  2.232196  0  0  -0.392093  -0.662127  0  2.261321  0
O  O70  1  0.35292274  0.43720942  0.89296517  1  0  -0.726609  0  1.999466  0  0  -0.67631  0  2.249729  0  0  -0.696201  0  2.232173  0  0  -0.392108  -0.662107  0  2.261301  0
O  O71  1  0.85292508  0.06279052  0.10703429  1  0  -0.726558  0  1.999511  0  0  -0.676249  0  2.249765  0  0  -0.696147  0  2.232216  0  0  -0.392062  -0.662056  0  2.261349  0
O  O72  1  0.57091674  0.84034893  0.04994848  1  0  -0.917908  0  1.760775  0  0  -0.880057  0  1.920677  0  0  -0.894658  0  1.889322  0  0  -0.705084  -0.869514  0  1.942679  0
O  O73  1  0.07091587  0.65965261  0.95005150  1  0  -0.917903  0  1.76085  0  0  -0.880099  0  1.920656  0  0  -0.894699  0  1.889299  0  0  -0.70505  -0.869555  0  1.942658  0
O  O74  1  0.42908487  0.15965225  0.95005132  1  0  -0.918001  0  1.760748  0  0  -0.880162  0  1.920624  0  0  -0.894761  0  1.889265  0  0  -0.705078  -0.86962  0  1.942627  0
O  O75  1  0.92908391  0.34034760  0.04994872  1  0  -0.918002  0  1.760693  0  0  -0.880122  0  1.920642  0  0  -0.894721  0  1.889284  0  0  -0.705085  -0.869579  0  1.942643  0
