# generated using pymatgen
data_Sc2H17C21N3O16
_symmetry_space_group_name_H-M   'P 1'
_cell_length_a   7.82933716
_cell_length_b   12.55269407
_cell_length_c   26.88259921
_cell_angle_alpha   89.99972219
_cell_angle_beta   90.00030300
_cell_angle_gamma   94.01947958
_symmetry_Int_Tables_number   1
_chemical_formula_structural   Sc2H17C21N3O16
_chemical_formula_sum   'Sc8 H68 C84 N12 O64'
_cell_volume   2635.50374154
_cell_formula_units_Z   4
loop_
 _symmetry_equiv_pos_site_id
 _symmetry_equiv_pos_as_xyz
  1  'x, y, z'
loop_
 _atom_site_type_symbol
 _atom_site_label
 _atom_site_symmetry_multiplicity
 _atom_site_fract_x
 _atom_site_fract_y
 _atom_site_fract_z
 _atom_site_occupancy
 _atom_site_pbe_bader_charge
 _atom_site_pbe_bader_spin_density
 _atom_site_pbe_cm5_charge
 _atom_site_pbe_ddec_charge
 _atom_site_pbe_ddec_spin_density
 _atom_site_pbe_ddec_sum_bond_order
 _atom_site_pbe_magmom
Sc  Sc0  1  0.02698744  0.41415779  0.15593463  1  2.102234  0  1.208703  1.696861  0  2.227843  0
Sc  Sc1  1  0.47301581  0.58583901  0.65593479  1  2.102256  0  1.20867  1.696876  0  2.227786  0
Sc  Sc2  1  0.97300964  0.58584018  0.84406394  1  2.102301  0  1.208688  1.696889  0  2.227751  0
Sc  Sc3  1  0.52698892  0.41415891  0.34406414  1  2.102218  0  1.208724  1.696933  0  2.22782  0
Sc  Sc4  1  0.81618557  0.75016432  0.01524757  1  2.091123  0  1.198717  1.71682  0  2.163203  0
Sc  Sc5  1  0.68380328  0.24982600  0.51523949  1  2.091008  0  1.198679  1.716796  0  2.163158  0
Sc  Sc6  1  0.18381948  0.24983599  0.98475583  1  2.09116  0  1.198632  1.716726  0  2.163336  0
Sc  Sc7  1  0.31618191  0.75015927  0.48475833  1  2.091012  0  1.198667  1.716763  0  2.163246  0
H  H8  1  0.95163760  0.57622359  0.96599039  1  0.659186  0  0.306213  0.398143  0  0.942585  0
H  H9  1  0.54835230  0.42377039  0.46599209  1  0.65926  0  0.306254  0.398256  0  0.942429  0
H  H10  1  0.04835172  0.42377364  0.03400855  1  0.659234  0  0.306255  0.398199  0  0.942516  0
H  H11  1  0.45164840  0.57622595  0.53400610  1  0.659255  0  0.306288  0.39821  0  0.942486  0
H  H12  1  0.09209497  0.60723040  0.00940994  1  0.651301  0  0.302115  0.392811  0  0.946938  0
H  H13  1  0.40789580  0.39276950  0.50941304  1  0.651164  0  0.302059  0.392728  0  0.947079  0
H  H14  1  0.90789849  0.39276920  0.99058788  1  0.651182  0  0.302093  0.392743  0  0.947075  0
H  H15  1  0.59209959  0.60722528  0.49058701  1  0.65116  0  0.302131  0.392792  0  0.947034  0
H  H16  1  0.51954387  0.63931191  0.97460038  1  0.629681  0  0.332516  0.423596  0  0.864699  0
H  H17  1  0.98045734  0.36067951  0.47460067  1  0.629626  0  0.332436  0.42351  0  0.864784  0
H  H18  1  0.48045438  0.36068526  0.02539967  1  0.629704  0  0.332489  0.423571  0  0.864834  0
H  H19  1  0.01954410  0.63931283  0.52539864  1  0.629744  0  0.332478  0.423489  0  0.864796  0
H  H20  1  0.59977046  0.71664718  0.92982939  1  0.66507  0  0.299461  0.397427  0  0.940248  0
H  H21  1  0.90022615  0.28335429  0.42982563  1  0.665039  0  0.299437  0.397354  0  0.940336  0
H  H22  1  0.40023491  0.28335552  0.07017327  1  0.665036  0  0.299449  0.397374  0  0.940314  0
H  H23  1  0.09977508  0.71663646  0.57017144  1  0.664959  0  0.299524  0.397472  0  0.940196  0
H  H24  1  0.69685199  0.47359300  0.16559300  1  0.650846  0  0.297388  0.395837  0  0.947687  0
H  H25  1  0.80314036  0.52640305  0.66559266  1  0.650879  0  0.297371  0.395861  0  0.947671  0
H  H26  1  0.30314307  0.52640899  0.83440743  1  0.650891  0  0.297393  0.395838  0  0.947696  0
H  H27  1  0.19685885  0.47359171  0.33440478  1  0.650959  0  0.297382  0.395824  0  0.947713  0
H  H28  1  0.77320423  0.53993864  0.11753587  1  0.656596  0  0.302808  0.407045  0  0.921269  0
H  H29  1  0.72678731  0.46005788  0.61753743  1  0.656859  0  0.302833  0.407102  0  0.921185  0
H  H30  1  0.22679051  0.46006095  0.88246269  1  0.656617  0  0.302825  0.407049  0  0.921262  0
H  H31  1  0.27320893  0.53993371  0.38246076  1  0.656593  0  0.302827  0.407046  0  0.92127  0
H  H32  1  0.65837414  0.74743893  0.17384372  1  0.116431  0  0.123757  0.122983  0  0.957332  0
H  H33  1  0.84162335  0.25255620  0.67384406  1  0.116359  0  0.123766  0.122998  0  0.957218  0
H  H34  1  0.34162027  0.25256785  0.82615187  1  0.116418  0  0.123749  0.122988  0  0.957468  0
H  H35  1  0.15837150  0.74744419  0.32615710  1  0.116433  0  0.123781  0.123022  0  0.957212  0
H  H36  1  0.22423390  0.57778337  0.24418983  1  0.149634  0  0.121367  0.090768  0  1.037825  0
H  H37  1  0.27575137  0.42222950  0.74418968  1  0.149559  0  0.121418  0.090762  0  1.037911  0
H  H38  1  0.77575677  0.42223383  0.75580837  1  0.149476  0  0.121364  0.090741  0  1.037873  0
H  H39  1  0.72422579  0.57779180  0.25580962  1  0.149614  0  0.121392  0.090847  0  1.037931  0
H  H40  1  0.68803080  0.01782300  0.21364429  1  0.081083  0  0.117964  0.123689  0  0.969116  0
H  H41  1  0.81196587  0.98217975  0.71364555  1  0.081031  0  0.117992  0.123695  0  0.969253  0
H  H42  1  0.31196660  0.98217737  0.78635316  1  0.081043  0  0.117953  0.123647  0  0.969186  0
H  H43  1  0.18802333  0.01782627  0.28635488  1  0.081067  0  0.117987  0.123696  0  0.969086  0
H  H44  1  0.48257375  0.70644708  0.25130266  1  0.109331  0  0.12003  0.122185  0  0.977342  0
H  H45  1  0.01741312  0.29356731  0.75130427  1  0.109398  0  0.120076  0.122234  0  0.977329  0
H  H46  1  0.51741713  0.29357172  0.74869330  1  0.109275  0  0.120086  0.12225  0  0.977418  0
H  H47  1  0.98256552  0.70645558  0.24869727  1  0.10887  0  0.120085  0.122284  0  0.977204  0
H  H48  1  0.80488631  0.15543568  0.15309576  1  0.148896  0  0.122429  0.099818  0  1.014575  0
H  H49  1  0.69513793  0.84456185  0.65309678  1  0.148774  0  0.122442  0.099849  0  1.014548  0
H  H50  1  0.19510033  0.84457036  0.84690131  1  0.148988  0  0.122487  0.099904  0  1.014598  0
H  H51  1  0.30486743  0.15544086  0.34690439  1  0.148776  0  0.122485  0.099897  0  1.014544  0
H  H52  1  0.57886054  0.13055215  0.06776458  1  0.138952  0  0.111354  0.124741  0  1.035185  0
H  H53  1  0.92115406  0.86945186  0.56775920  1  0.138904  0  0.111339  0.124738  0  1.035146  0
H  H54  1  0.42117597  0.86945431  0.93224142  1  0.138887  0  0.111347  0.124741  0  1.03514  0
H  H55  1  0.07882241  0.13053508  0.43224346  1  0.138998  0  0.111327  0.124711  0  1.035151  0
H  H56  1  0.70522559  0.05770128  0.30570678  1  0.155565  0  0.121611  0.135045  0  0.973815  0
H  H57  1  0.79476837  0.94230700  0.80570736  1  0.155449  0  0.1216  0.134982  0  0.973755  0
H  H58  1  0.29478404  0.94229500  0.69429066  1  0.1555  0  0.121581  0.135014  0  0.973754  0
H  H59  1  0.20522966  0.05769816  0.19429269  1  0.155529  0  0.121595  0.13503  0  0.973777  0
H  H60  1  0.62632409  0.93675104  0.07537421  1  0.164041  0  0.128272  0.10521  0  0.990255  0
H  H61  1  0.87368308  0.06325375  0.57536647  1  0.164406  0  0.128232  0.105205  0  0.990295  0
H  H62  1  0.37369839  0.06325553  0.92463068  1  0.164279  0  0.128208  0.10518  0  0.990107  0
H  H63  1  0.12629487  0.93673477  0.42463507  1  0.164223  0  0.128222  0.105153  0  0.990179  0
H  H64  1  0.68912875  0.22939862  0.99105065  1  0.116764  0  0.110253  0.10633  0  1.030904  0
H  H65  1  0.81087486  0.77059902  0.49104863  1  0.116713  0  0.110235  0.106325  0  1.03092  0
H  H66  1  0.31089724  0.77060553  0.00895312  1  0.117191  0  0.110249  0.106361  0  1.030858  0
H  H67  1  0.18911330  0.22938943  0.50895253  1  0.116914  0  0.110249  0.106326  0  1.030816  0
H  H68  1  0.81363797  0.33549059  0.07971799  1  0.617943  0  0.335476  0.414255  0  0.861648  0
H  H69  1  0.68637143  0.66450135  0.57971865  1  0.618091  0  0.335614  0.414409  0  0.861325  0
H  H70  1  0.18637070  0.66450809  0.92028132  1  0.618134  0  0.33556  0.414367  0  0.861448  0
H  H71  1  0.31365021  0.33549883  0.42028289  1  0.617819  0  0.335583  0.414328  0  0.861559  0
H  H72  1  0.96224593  0.25481420  0.08359915  1  0.6671  0  0.303719  0.400871  0  0.941332  0
H  H73  1  0.53776747  0.74517848  0.58360126  1  0.667561  0  0.30377  0.400856  0  0.941367  0
H  H74  1  0.03775562  0.74517894  0.91640165  1  0.667178  0  0.303739  0.400806  0  0.941426  0
H  H75  1  0.46223770  0.25481304  0.41639656  1  0.667169  0  0.303786  0.400885  0  0.941337  0
C  C76  1  0.87341513  0.15576688  0.91692449  1  1.64021  0  0.222565  0.634509  0  4.192953  0
C  C77  1  0.62657968  0.84422274  0.41692202  1  1.640312  0  0.222498  0.634351  0  4.192965  0
C  C78  1  0.12660205  0.84422854  0.08307966  1  1.640252  0  0.222562  0.634386  0  4.192735  0
C  C79  1  0.37340932  0.15577210  0.58307803  1  1.640067  0  0.222525  0.634338  0  4.192977  0
C  C80  1  0.79572472  0.09078307  0.95979759  1  0.030668  0  0.010974  -0.069169  0  3.895045  0
C  C81  1  0.70427017  0.90921093  0.45979323  1  0.03069  0  0.011137  -0.068886  0  3.894903  0
C  C82  1  0.20429330  0.90921874  0.04020581  1  0.030667  0  0.011026  -0.069087  0  3.894857  0
C  C83  1  0.29571640  0.09077513  0.54020570  1  0.031006  0  0.010965  -0.069168  0  3.89469  0
C  C84  1  0.23713774  0.55503325  0.07921995  1  1.614215  0  0.239586  0.582946  0  4.153253  0
C  C85  1  0.26285357  0.44497077  0.57922048  1  1.614044  0  0.239662  0.583156  0  4.153159  0
C  C86  1  0.76285476  0.44496876  0.92077824  1  1.614399  0  0.239612  0.583041  0  4.153206  0
C  C87  1  0.73714596  0.55502638  0.42077957  1  1.614452  0  0.23972  0.583354  0  4.152795  0
C  C88  1  0.90434529  0.28276284  0.25654403  1  0.490612  0  0.113257  0.0552  0  4.01175  0
C  C89  1  0.59565837  0.71723864  0.75654480  1  0.490318  0  0.113277  0.055369  0  4.011706  0
C  C90  1  0.09564965  0.71723834  0.74345416  1  0.490749  0  0.1133  0.055278  0  4.011934  0
C  C91  1  0.40435699  0.28276239  0.24345636  1  0.490327  0  0.113179  0.055164  0  4.011793  0
C  C92  1  0.53919985  0.69693088  0.17261724  1  -0.055035  0  -0.04742  -0.036287  0  3.898704  0
C  C93  1  0.96080377  0.30307221  0.67261505  1  -0.054925  0  -0.04744  -0.036242  0  3.898804  0
C  C94  1  0.46079136  0.30308073  0.82738095  1  -0.054705  0  -0.047447  -0.036307  0  3.898962  0
C  C95  1  0.03919043  0.69693298  0.32738426  1  -0.054988  0  -0.047495  -0.036307  0  3.898765  0
C  C96  1  0.29741267  0.60398116  0.21153639  1  0.487771  0  0.061804  0.121538  0  3.925264  0
C  C97  1  0.20257970  0.39603198  0.71153805  1  0.487529  0  0.0618  0.121614  0  3.925338  0
C  C98  1  0.70257992  0.39603124  0.78846106  1  0.487518  0  0.06178  0.121588  0  3.925485  0
C  C99  1  0.79740204  0.60398529  0.28846200  1  0.487876  0  0.061775  0.12142  0  3.925211  0
C  C100  1  0.74895763  0.09291066  0.22728616  1  -0.025929  0  -0.068606  -0.108862  0  3.938526  0
C  C101  1  0.75105000  0.90709588  0.72728861  1  -0.025426  0  -0.068726  -0.108854  0  3.938504  0
C  C102  1  0.25104253  0.90709129  0.77271129  1  -0.025928  0  -0.068559  -0.108722  0  3.93853  0
C  C103  1  0.24894930  0.09290927  0.27271070  1  -0.025295  0  -0.068619  -0.108768  0  3.938463  0
C  C104  1  0.32699730  0.59059435  0.12626082  1  0.516341  0  0.127407  0.08538  0  3.954308  0
C  C105  1  0.17299650  0.40941240  0.62626278  1  0.516191  0  0.127393  0.085286  0  3.954386  0
C  C106  1  0.67299573  0.40941165  0.87373663  1  0.516122  0  0.127355  0.085294  0  3.95436  0
C  C107  1  0.82699717  0.59058879  0.37373579  1  0.516415  0  0.127462  0.085341  0  3.954117  0
C  C108  1  0.83771383  0.21271476  0.29330278  1  -0.061879  0  0.008577  -0.072032  0  3.925364  0
C  C109  1  0.66229609  0.78729032  0.79330201  1  -0.061441  0  0.008633  -0.072231  0  3.925276  0
C  C110  1  0.16228760  0.78728718  0.70669541  1  -0.061847  0  0.008569  -0.072096  0  3.925324  0
C  C111  1  0.33771790  0.21270992  0.20669841  1  -0.061433  0  0.008714  -0.071941  0  3.925085  0
C  C112  1  0.81598042  0.98214179  0.96743239  1  0.486309  0  0.113791  0.065471  0  3.977366  0
C  C113  1  0.68401992  0.01785370  0.46742555  1  0.486153  0  0.113758  0.065299  0  3.977789  0
C  C114  1  0.18404388  0.01785917  0.03257324  1  0.486058  0  0.113737  0.065385  0  3.977549  0
C  C115  1  0.31597186  0.98213312  0.53257562  1  0.485903  0  0.113881  0.06555  0  3.977397  0
C  C116  1  0.83261834  0.25013669  0.34648397  1  1.659266  0  0.243969  0.653478  0  4.156457  0
C  C117  1  0.66738420  0.74986314  0.84648553  1  1.659217  0  0.244002  0.653566  0  4.156387  0
C  C118  1  0.16738544  0.74986363  0.65351385  1  1.659265  0  0.243894  0.65338  0  4.156592  0
C  C119  1  0.33262458  0.25013634  0.15351378  1  1.659399  0  0.24384  0.653264  0  4.156434  0
C  C120  1  0.44328499  0.67396640  0.21515698  1  0.037938  0  -0.064548  -0.099829  0  3.942794  0
C  C121  1  0.05670181  0.32604274  0.71515746  1  0.03802  0  -0.064552  -0.0999  0  3.942727  0
C  C122  1  0.55670399  0.32604762  0.78483972  1  0.037759  0  -0.064593  -0.099961  0  3.942926  0
C  C123  1  0.94328206  0.67397131  0.28484334  1  0.038422  0  -0.064552  -0.099879  0  3.942578  0
C  C124  1  0.00145981  0.38593678  0.26928045  1  1.604044  0  0.230797  0.574647  0  4.204751  0
C  C125  1  0.49853812  0.61407176  0.76928171  1  1.603951  0  0.230916  0.574864  0  4.204835  0
C  C126  1  0.99853566  0.61406840  0.73071774  1  1.603977  0  0.230879  0.574877  0  4.204794  0
C  C127  1  0.50146480  0.38593176  0.23071834  1  1.603945  0  0.230822  0.574821  0  4.204849  0
C  C128  1  0.48118320  0.65344657  0.12721613  1  -0.038315  0  0.01331  -0.041055  0  3.904152  0
C  C129  1  0.01880691  0.34655140  0.62721465  1  -0.038357  0  0.013245  -0.041176  0  3.904174  0
C  C130  1  0.51880951  0.34655703  0.87278243  1  -0.038296  0  0.013319  -0.040998  0  3.90411  0
C  C131  1  0.98118666  0.65344899  0.37278466  1  -0.03829  0  0.013229  -0.04128  0  3.904246  0
C  C132  1  0.81374795  0.16922990  0.19295351  1  0.557167  0  0.062911  0.125041  0  3.912649  0
C  C133  1  0.68626452  0.83076973  0.69295454  1  0.557365  0  0.062863  0.124915  0  3.912412  0
C  C134  1  0.18624200  0.83077212  0.80704543  1  0.556945  0  0.062737  0.12484  0  3.912674  0
C  C135  1  0.31374839  0.16923212  0.30704588  1  0.557368  0  0.062844  0.124916  0  3.912443  0
C  C136  1  0.64614377  0.09087188  0.03842265  1  -0.006783  0  -0.076021  -0.112102  0  3.931645  0
C  C137  1  0.85386491  0.90913006  0.53841707  1  -0.006536  0  -0.075913  -0.111952  0  3.931496  0
C  C138  1  0.35388148  0.90913627  0.96158373  1  -0.006432  0  -0.076008  -0.11215  0  3.931778  0
C  C139  1  0.14611739  0.09086243  0.46158670  1  -0.007013  0  -0.075995  -0.112133  0  3.931772  0
C  C140  1  0.75934517  0.11437178  0.27812498  1  -0.053507  0  -0.054747  -0.05315  0  3.907692  0
C  C141  1  0.74066088  0.88563507  0.77812486  1  -0.05418  0  -0.054697  -0.052998  0  3.907592  0
C  C142  1  0.24065733  0.88562855  0.72187396  1  -0.053422  0  -0.054697  -0.053052  0  3.907598  0
C  C143  1  0.25934832  0.11436760  0.22187557  1  -0.054144  0  -0.054744  -0.053119  0  3.90776  0
C  C144  1  0.67281776  0.98282957  0.04326755  1  0.452627  0  0.059811  0.122424  0  3.928664  0
C  C145  1  0.82718855  0.01717314  0.54326096  1  0.452199  0  0.059874  0.122391  0  3.928657  0
C  C146  1  0.32720674  0.01717299  0.95673957  1  0.452331  0  0.059887  0.122546  0  3.928812  0
C  C147  1  0.17279482  0.98281774  0.45674021  1  0.452431  0  0.059909  0.122638  0  3.928427  0
C  C148  1  0.70777291  0.14498214  0.99635121  1  -0.063329  0  -0.057018  -0.0407  0  3.917549  0
C  C149  1  0.79222834  0.85501626  0.49634823  1  -0.063642  0  -0.057086  -0.04089  0  3.917612  0
C  C150  1  0.29225021  0.85501963  0.00365256  1  -0.064145  0  -0.056999  -0.040715  0  3.917525  0
C  C151  1  0.20775206  0.14497144  0.50365182  1  -0.063423  0  -0.057006  -0.040712  0  3.917527  0
C  C152  1  0.91183082  0.91476819  0.93229606  1  1.571582  0  0.221576  0.562922  0  4.189925  0
C  C153  1  0.58817679  0.08522918  0.43228706  1  1.572536  0  0.221477  0.562915  0  4.189921  0
C  C154  1  0.08819858  0.08523273  0.06771143  1  1.572914  0  0.221566  0.563238  0  4.189609  0
C  C155  1  0.41181423  0.91476164  0.56771337  1  1.572299  0  0.221505  0.563168  0  4.189809  0
C  C156  1  0.59091374  0.67528586  0.08255682  1  1.602056  0  0.216987  0.582293  0  4.228144  0
C  C157  1  0.90907942  0.32471817  0.58255673  1  1.602013  0  0.217015  0.582268  0  4.228204  0
C  C158  1  0.40908163  0.32471852  0.91744249  1  1.601851  0  0.217008  0.582328  0  4.228241  0
C  C159  1  0.09091841  0.67527580  0.41744295  1  1.601646  0  0.217011  0.58241  0  4.228117  0
N  N160  1  0.75484586  0.92969203  0.00839233  1  -1.287588  0  -0.364511  -0.356204  0  3.54817  0
N  N161  1  0.74515381  0.07030387  0.50838400  1  -1.287418  0  -0.364566  -0.356144  0  3.54863  0
N  N162  1  0.24517088  0.07030979  0.99161293  1  -1.287398  0  -0.364474  -0.356221  0  3.548434  0
N  N163  1  0.25483659  0.92968216  0.49161717  1  -1.287438  0  -0.364622  -0.356392  0  3.54856  0
N  N164  1  0.24052113  0.56280323  0.16813248  1  -1.24179  0  -0.333527  -0.311864  0  3.470957  0
N  N165  1  0.25946849  0.43720474  0.66813451  1  -1.241508  0  -0.33351  -0.311793  0  3.471144  0
N  N166  1  0.75946742  0.43720759  0.83186460  1  -1.241522  0  -0.333459  -0.311797  0  3.471051  0
N  N167  1  0.74051964  0.56280289  0.33186517  1  -1.242081  0  -0.333495  -0.311743  0  3.470867  0
N  N168  1  0.89103986  0.26289847  0.20742342  1  -1.243929  0  -0.325708  -0.318748  0  3.467694  0
N  N169  1  0.60897138  0.73709943  0.70742454  1  -1.243937  0  -0.325699  -0.318806  0  3.467699  0
N  N170  1  0.10895116  0.73710194  0.79257403  1  -1.243943  0  -0.325644  -0.318823  0  3.467856  0
N  N171  1  0.39104398  0.26290160  0.29257551  1  -1.244152  0  -0.325725  -0.318834  0  3.467791  0
O  O172  1  0.79880296  0.16406074  0.87705662  1  -1.143965  0  -0.313364  -0.509434  0  2.050896  0
O  O173  1  0.70119043  0.83593327  0.37705317  1  -1.14382  0  -0.313316  -0.509349  0  2.050747  0
O  O174  1  0.20120901  0.83593392  0.12294789  1  -1.144122  0  -0.313295  -0.509358  0  2.050871  0
O  O175  1  0.29879856  0.16407115  0.62294390  1  -1.144119  0  -0.313243  -0.509238  0  2.05103  0
O  O176  1  0.01881740  0.20763847  0.92948059  1  -1.189097  0  -0.425301  -0.68198  0  2.236739  0
O  O177  1  0.48117071  0.79236061  0.42947693  1  -1.18913  0  -0.425326  -0.681971  0  2.236803  0
O  O178  1  0.98119296  0.79236339  0.07052132  1  -1.189005  0  -0.425409  -0.681986  0  2.236472  0
O  O179  1  0.51881318  0.20763426  0.57051866  1  -1.188958  0  -0.425376  -0.682008  0  2.236703  0
O  O180  1  0.03915353  0.40600530  0.31369543  1  -1.161216  0  -0.275413  -0.492966  0  2.237777  0
O  O181  1  0.46084930  0.59400518  0.81369742  1  -1.161134  0  -0.275494  -0.493023  0  2.237691  0
O  O182  1  0.96084832  0.59399983  0.68630164  1  -1.16128  0  -0.275474  -0.493067  0  2.237695  0
O  O183  1  0.53914798  0.40600398  0.18630300  1  -1.161241  0  -0.275414  -0.492997  0  2.237775  0
O  O184  1  0.71871325  0.31719607  0.35410696  1  -1.194979  0  -0.40614  -0.657976  0  2.375033  0
O  O185  1  0.78128102  0.68279815  0.85410921  1  -1.195027  0  -0.406161  -0.658012  0  2.375033  0
O  O186  1  0.28129477  0.68280741  0.64589198  1  -1.195047  0  -0.40615  -0.657959  0  2.374912  0
O  O187  1  0.21871553  0.31719583  0.14589121  1  -1.195093  0  -0.406087  -0.657888  0  2.374947  0
O  O188  1  0.28598643  0.59213817  0.03780840  1  -1.16989  0  -0.293546  -0.518502  0  2.140419  0
O  O189  1  0.21400280  0.40786546  0.53780708  1  -1.169632  0  -0.293551  -0.518584  0  2.140396  0
O  O190  1  0.71400171  0.40786946  0.96218979  1  -1.169896  0  -0.293536  -0.518544  0  2.140413  0
O  O191  1  0.78599344  0.59212612  0.46219149  1  -1.17056  0  -0.293588  -0.518686  0  2.140282  0
O  O192  1  0.88820187  0.30388435  0.10355283  1  -1.26722  0  -0.602975  -0.806048  0  2.137892  0
O  O193  1  0.61181208  0.69610973  0.60355331  1  -1.267859  0  -0.603191  -0.806215  0  2.137712  0
O  O194  1  0.11180000  0.69611119  0.89644722  1  -1.267475  0  -0.60309  -0.806117  0  2.137754  0
O  O195  1  0.38819479  0.30388497  0.39644563  1  -1.26716  0  -0.603147  -0.806147  0  2.137835  0
O  O196  1  0.98117727  0.62542192  0.99458171  1  -1.30648  0  -0.629992  -0.839011  0  2.136606  0
O  O197  1  0.51880525  0.37457024  0.49458125  1  -1.306435  0  -0.63  -0.839059  0  2.136547  0
O  O198  1  0.01880822  0.37457534  0.00541871  1  -1.306349  0  -0.630042  -0.839041  0  2.136674  0
O  O199  1  0.48119695  0.62541810  0.50541843  1  -1.306388  0  -0.630122  -0.839084  0  2.1366  0
O  O200  1  0.62189667  0.68034387  0.96296092  1  -1.279797  0  -0.603985  -0.810533  0  2.060422  0
O  O201  1  0.87809826  0.31965969  0.46295741  1  -1.27975  0  -0.603873  -0.810376  0  2.060439  0
O  O202  1  0.37810380  0.31966047  0.03704360  1  -1.279785  0  -0.603915  -0.810417  0  2.060571  0
O  O203  1  0.12190170  0.68033106  0.53704189  1  -1.279786  0  -0.603962  -0.810397  0  2.060513  0
O  O204  1  0.92436360  0.81631264  0.94857958  1  -1.188893  0  -0.381505  -0.650596  0  2.360441  0
O  O205  1  0.57562121  0.18368395  0.44857182  1  -1.189156  0  -0.381394  -0.650436  0  2.360407  0
O  O206  1  0.07563879  0.18368689  0.05142494  1  -1.188974  0  -0.381406  -0.650561  0  2.360314  0
O  O207  1  0.42437524  0.81630923  0.55142451  1  -1.188993  0  -0.381466  -0.650662  0  2.360345  0
O  O208  1  0.10315336  0.49013703  0.08529002  1  -1.196666  0  -0.350583  -0.615064  0  2.346037  0
O  O209  1  0.39684263  0.50986290  0.58528986  1  -1.196592  0  -0.35063  -0.615214  0  2.346131  0
O  O210  1  0.89685468  0.50985686  0.91470780  1  -1.196618  0  -0.350574  -0.615086  0  2.346081  0
O  O211  1  0.60315244  0.49012949  0.41470795  1  -1.196106  0  -0.350649  -0.615281  0  2.345998  0
O  O212  1  0.97413251  0.95008879  0.89301899  1  -1.136508  0  -0.287194  -0.479164  0  2.1014  0
O  O213  1  0.52589134  0.04991123  0.39300550  1  -1.137006  0  -0.287261  -0.479289  0  2.101329  0
O  O214  1  0.02593091  0.04991827  0.10699334  1  -1.137541  0  -0.28729  -0.479449  0  2.101249  0
O  O215  1  0.47409767  0.95007401  0.60699455  1  -1.136809  0  -0.287151  -0.47934  0  2.101466  0
O  O216  1  0.59055713  0.76611319  0.06189763  1  -1.169008  0  -0.339401  -0.588254  0  2.317353  0
O  O217  1  0.90943419  0.23388946  0.56189551  1  -1.168899  0  -0.339419  -0.588276  0  2.317219  0
O  O218  1  0.40944907  0.23389590  0.93810317  1  -1.168621  0  -0.339414  -0.588297  0  2.31756  0
O  O219  1  0.09055950  0.76610214  0.43810528  1  -1.168588  0  -0.33943  -0.588264  0  2.317291  0
O  O220  1  0.69513832  0.60733807  0.06836006  1  -1.182405  0  -0.315193  -0.579358  0  2.163173  0
O  O221  1  0.80484771  0.39265256  0.56836152  1  -1.182646  0  -0.315236  -0.579298  0  2.163381  0
O  O222  1  0.30485674  0.39266391  0.93163887  1  -1.18264  0  -0.315207  -0.579341  0  2.163182  0
O  O223  1  0.19513875  0.60733270  0.43163816  1  -1.182467  0  -0.315183  -0.579328  0  2.163233  0
O  O224  1  0.04277229  0.44689110  0.23217425  1  -1.193034  0  -0.377697  -0.640603  0  2.397785  0
O  O225  1  0.45722480  0.55311621  0.73217782  1  -1.192821  0  -0.377706  -0.64073  0  2.397956  0
O  O226  1  0.95723265  0.55310841  0.76782208  1  -1.192825  0  -0.377709  -0.640731  0  2.397928  0
O  O227  1  0.54277440  0.44688814  0.26782261  1  -1.192899  0  -0.377722  -0.640764  0  2.397958  0
O  O228  1  0.92593405  0.21555577  0.37962894  1  -1.165022  0  -0.284865  -0.511867  0  2.162144  0
O  O229  1  0.57406394  0.78444377  0.87962842  1  -1.164935  0  -0.284881  -0.511894  0  2.16223  0
O  O230  1  0.07406070  0.78443422  0.62037036  1  -1.16497  0  -0.284828  -0.511818  0  2.162344  0
O  O231  1  0.42595323  0.21556124  0.12037163  1  -1.165039  0  -0.284821  -0.511798  0  2.162151  0
O  O232  1  0.80667486  0.50387091  0.14895924  1  -1.300353  0  -0.632221  -0.838931  0  2.059667  0
O  O233  1  0.69332689  0.49612122  0.64896104  1  -1.300583  0  -0.632172  -0.838945  0  2.059565  0
O  O234  1  0.19332988  0.49612700  0.85103932  1  -1.30051  0  -0.632214  -0.83891  0  2.059615  0
O  O235  1  0.30667042  0.50386875  0.35103864  1  -1.30045  0  -0.632202  -0.83887  0  2.059621  0
