# generated using pymatgen
data_Cu2P2H42PtC38S2(IN)2
_symmetry_space_group_name_H-M   'P 1'
_cell_length_a   9.82478487
_cell_length_b   10.05949828
_cell_length_c   11.95577477
_cell_angle_alpha   85.46379864
_cell_angle_beta   72.63126041
_cell_angle_gamma   63.73035235
_symmetry_Int_Tables_number   1
_chemical_formula_structural   Cu2P2H42PtC38S2(IN)2
_chemical_formula_sum   'Cu2 P2 H42 Pt1 C38 S2 I2 N2'
_cell_volume   1009.32474359
_cell_formula_units_Z   1
loop_
 _symmetry_equiv_pos_site_id
 _symmetry_equiv_pos_as_xyz
  1  'x, y, z'
loop_
 _atom_site_type_symbol
 _atom_site_label
 _atom_site_symmetry_multiplicity
 _atom_site_fract_x
 _atom_site_fract_y
 _atom_site_fract_z
 _atom_site_occupancy
 _atom_site_pbe_bader_spin_density
 _atom_site_pbe_cm5_charge
 _atom_site_pbe_ddec_charge
 _atom_site_pbe_ddec_spin_density
 _atom_site_pbe_ddec_sum_bond_order
 _atom_site_pbe_magmom
Cu  Cu0  1  0.16162237  0.81739126  0.50933318  1  0  0.414903  0.428608  0  2.6605  0
Cu  Cu1  1  0.83838274  0.18260593  0.49066557  1  0  0.414908  0.42857  0  2.660559  0
P  P2  1  0.65002614  0.61109026  0.38199526  1  0  -0.008116  0.668325  0  4.30673  0
P  P3  1  0.34997203  0.38890578  0.61800775  1  0  -0.008043  0.668412  0  4.306763  0
H  H4  1  0.31047515  0.44799662  0.22126935  1  0  0.097389  0.106253  0  1.018392  0
H  H5  1  0.68952254  0.55200497  0.77872922  1  0  0.097394  0.106254  0  1.018366  0
H  H6  1  0.21045775  0.45852706  0.05231760  1  0  0.087686  0.080755  0  1.081139  0
H  H7  1  0.78953673  0.54147451  0.94768342  1  0  0.08767  0.080703  0  1.081175  0
H  H8  1  0.88107193  0.91822029  0.15182062  1  0  0.089461  0.086041  0  1.071271  0
H  H9  1  0.11893106  0.08178358  0.84817903  1  0  0.089456  0.086039  0  1.071285  0
H  H10  1  0.98501553  0.90791284  0.31869023  1  0  0.083938  0.091567  0  1.087697  0
H  H11  1  0.01498907  0.09208991  0.68130744  1  0  0.083955  0.091571  0  1.087702  0
H  H12  1  0.77853606  0.94479018  0.99693239  1  0  0.084769  0.125573  0  1.046119  0
H  H13  1  0.22146746  0.05521926  0.00306676  1  0  0.084766  0.125582  0  1.04612  0
H  H14  1  0.88153417  0.88451839  0.84542896  1  0  0.086517  0.147079  0  1.02959  0
H  H15  1  0.11846935  0.11548882  0.15457033  1  0  0.086549  0.147122  0  1.029576  0
H  H16  1  0.97532113  0.92938226  0.93325602  1  0  0.090608  0.135667  0  1.025544  0
H  H17  1  0.02468452  0.07062274  0.06674291  1  0  0.090588  0.135665  0  1.02545  0
H  H18  1  0.49055155  0.94415289  0.70120293  1  0  0.103086  0.113783  0  1.022973  0
H  H19  1  0.50944349  0.05584534  0.29879567  1  0  0.103094  0.113801  0  1.022985  0
H  H20  1  0.62017853  0.93267527  0.85120023  1  0  0.094902  0.098762  0  1.041051  0
H  H21  1  0.37982236  0.06732187  0.14879619  1  0  0.094886  0.098728  0  1.041029  0
H  H22  1  0.57274764  0.79946605  0.03345607  1  0  0.101746  0.095853  0  1.028356  0
H  H23  1  0.42725642  0.20053335  0.96654111  1  0  0.101745  0.095858  0  1.028309  0
H  H24  1  0.39812227  0.67179352  0.06141163  1  0  0.104395  0.107169  0  1.014569  0
H  H25  1  0.60187697  0.32820921  0.93859151  1  0  0.104372  0.107164  0  1.014577  0
H  H26  1  0.27014570  0.68015378  0.90861875  1  0  0.09596  0.088616  0  1.086944  0
H  H27  1  0.72985141  0.31984449  0.09138520  1  0  0.095988  0.088659  0  1.086944  0
H  H28  1  0.69316441  0.71033959  0.19003336  1  0  0.091532  0.148227  0  1.030688  0
H  H29  1  0.30683591  0.28965646  0.80996746  1  0  0.091524  0.148212  0  1.030687  0
H  H30  1  0.48816248  0.74551617  0.25642658  1  0  0.095913  0.168034  0  1.01036  0
H  H31  1  0.51183733  0.25447875  0.74357193  1  0  0.095911  0.16804  0  1.010377  0
H  H32  1  0.63385978  0.56544633  0.19193487  1  0  0.095794  0.159155  0  1.010694  0
H  H33  1  0.36614319  0.43454862  0.80806538  1  0  0.095792  0.159133  0  1.010774  0
H  H34  1  0.92383040  0.56412095  0.29227300  1  0  0.09294  0.161721  0  1.040595  0
H  H35  1  0.07616566  0.43588176  0.70772923  1  0  0.092976  0.161786  0  1.040509  0
H  H36  1  0.89861725  0.39781475  0.29668064  1  0  0.088782  0.151416  0  1.040777  0
H  H37  1  0.10138732  0.60218579  0.70331885  1  0  0.088783  0.15143  0  1.040764  0
H  H38  1  0.89743302  0.47250283  0.42675429  1  0  0.099793  0.178096  0  0.991339  0
H  H39  1  0.10256784  0.52749880  0.57324602  1  0  0.099807  0.178142  0  0.991321  0
H  H40  1  0.64523453  0.76103344  0.53224068  1  0  0.093572  0.16341  0  1.016955  0
H  H41  1  0.35476367  0.23896482  0.46775966  1  0  0.093554  0.163412  0  1.016957  0
H  H42  1  0.48894210  0.86288444  0.46653778  1  0  0.089979  0.157221  0  1.036308  0
H  H43  1  0.51105504  0.13711157  0.53346213  1  0  0.089978  0.157249  0  1.036296  0
H  H44  1  0.69088141  0.83018054  0.39168533  1  0  0.095093  0.16494  0  1.002196  0
H  H45  1  0.30911573  0.16981548  0.60831458  1  0  0.095104  0.164966  0  1.002179  0
Pt  Pt46  1  0.50000042  0.49999636  0.50000088  1  0  0.489779  -0.080224  0  4.519632  0
C  C47  1  0.32772803  0.60844352  0.42683532  1  0  -0.26028  -0.301654  0  4.142213  0
C  C48  1  0.67226860  0.39155360  0.57316297  1  0  -0.260246  -0.301637  0  4.142134  0
C  C49  1  0.22390227  0.66990820  0.37377752  1  0  -0.143759  -0.149634  0  4.223042  0
C  C50  1  0.77610123  0.33008787  0.62622337  1  0  -0.143839  -0.149722  0  4.222932  0
C  C51  1  0.15599554  0.67840833  0.28147694  1  0  -0.01151  0.137802  0  4.074142  0
C  C52  1  0.84400481  0.32159216  0.71852106  1  0  -0.011487  0.13783  0  4.074114  0
C  C53  1  0.21682097  0.55126431  0.20550016  1  0  -0.088184  -0.108399  0  3.927496  0
C  C54  1  0.78317404  0.44873839  0.79450065  1  0  -0.088231  -0.108436  0  3.927392  0
C  C55  1  0.16059907  0.55708221  0.11082641  1  0  -0.106882  -0.153848  0  4.050676  0
C  C56  1  0.83939595  0.44292048  0.88917440  1  0  -0.10685  -0.153747  0  4.050636  0
C  C57  1  0.03967318  0.68952142  0.08921505  1  0  -0.021867  0.034066  0  4.072245  0
C  C58  1  0.96032183  0.31048127  0.91078660  1  0  -0.021865  0.034033  0  4.072266  0
C  C59  1  0.97580069  0.81496350  0.16602356  1  0  -0.107898  -0.144911  0  4.020299  0
C  C60  1  0.02420069  0.18503924  0.83397655  1  0  -0.107887  -0.144895  0  4.020378  0
C  C61  1  0.03348040  0.80958003  0.26039499  1  0  -0.095376  -0.12323  0  3.961936  0
C  C62  1  0.96651886  0.19042047  0.73960578  1  0  -0.095384  -0.123231  0  3.961967  0
C  C63  1  0.89490472  0.88069487  0.93387586  1  0  -0.235352  -0.393698  0  3.89539  0
C  C64  1  0.10509774  0.11931456  0.06612354  1  0  -0.235321  -0.393729  0  3.895393  0
C  C65  1  0.29311158  0.82220773  0.71132853  1  0  0.208906  0.27837  0  3.93885  0
C  C66  1  0.70688763  0.17778834  0.28867757  1  0  0.208854  0.278435  0  3.938965  0
C  C67  1  0.37060563  0.81382675  0.79637534  1  0  -0.000773  0.032119  0  4.111313  0
C  C68  1  0.62939361  0.18616930  0.20362741  1  0  -0.000815  0.032077  0  4.11139  0
C  C69  1  0.46940341  0.88553493  0.78019113  1  0  -0.077501  -0.112296  0  3.94292  0
C  C70  1  0.53059533  0.11446221  0.21980748  1  0  -0.077482  -0.112338  0  3.942994  0
C  C71  1  0.54196252  0.87894631  0.86558659  1  0  -0.086825  -0.076182  0  3.992596  0
C  C72  1  0.45803679  0.12105417  0.13440915  1  0  -0.086799  -0.076084  0  3.992445  0
C  C73  1  0.51621360  0.80298794  0.96678796  1  0  -0.078328  -0.064905  0  3.957522  0
C  C74  1  0.48378888  0.19701256  0.03320869  1  0  -0.078381  -0.06496  0  3.957601  0
C  C75  1  0.41895569  0.73100589  0.98256592  1  0  -0.080791  -0.062743  0  3.957418  0
C  C76  1  0.58104197  0.26899571  0.01743600  1  0  -0.080793  -0.062771  0  3.957614  0
C  C77  1  0.34668388  0.73517861  0.89752561  1  0  -0.075969  -0.108382  0  3.936568  0
C  C78  1  0.65331801  0.26481857  0.10247643  1  0  -0.075904  -0.108343  0  3.936626  0
C  C79  1  0.61272457  0.66384197  0.24093506  1  0  -0.250042  -0.552076  0  3.833491  0
C  C80  1  0.38727627  0.33615297  0.75906654  1  0  -0.250028  -0.552012  0  3.833531  0
C  C81  1  0.86330313  0.50133833  0.34560149  1  0  -0.253721  -0.560758  0  3.837641  0
C  C82  1  0.13669985  0.49866108  0.65439846  1  0  -0.253763  -0.560902  0  3.837676  0
C  C83  1  0.61465305  0.78362388  0.44947856  1  0  -0.253414  -0.560767  0  3.836448  0
C  C84  1  0.38534514  0.21637215  0.55052193  1  0  -0.253411  -0.560836  0  3.836434  0
S  S85  1  0.98026914  0.68730001  0.96450554  1  0  0.007609  0.029509  0  2.809737  0
S  S86  1  0.01972906  0.31270717  0.03549503  1  0  0.007574  0.029466  0  2.809859  0
I  I87  1  0.84039228  0.92738067  0.60043374  1  0  -0.237719  -0.470116  0  1.59838  0
I  I88  1  0.15961229  0.07261317  0.39956536  1  0  -0.237716  -0.470121  0  1.598446  0
N  N89  1  0.22921093  0.83039999  0.64103988  1  0  -0.365895  -0.354439  0  3.426862  0
N  N90  1  0.77078938  0.16959607  0.35896178  1  0  -0.365833  -0.354447  0  3.427106  0
