# generated using pymatgen
data_CuH12C18(N3O2)2
_symmetry_space_group_name_H-M   'P 1'
_cell_length_a   10.03637559
_cell_length_b   12.57926781
_cell_length_c   17.81103413
_cell_angle_alpha   89.99999192
_cell_angle_beta   90.00005128
_cell_angle_gamma   89.99996718
_symmetry_Int_Tables_number   1
_chemical_formula_structural   CuH12C18(N3O2)2
_chemical_formula_sum   'Cu4 H48 C72 N24 O16'
_cell_volume   2248.64762489
_cell_formula_units_Z   4
loop_
 _symmetry_equiv_pos_site_id
 _symmetry_equiv_pos_as_xyz
  1  'x, y, z'
loop_
 _atom_site_type_symbol
 _atom_site_label
 _atom_site_symmetry_multiplicity
 _atom_site_fract_x
 _atom_site_fract_y
 _atom_site_fract_z
 _atom_site_occupancy
 _atom_site_pbe_bader_charge
 _atom_site_pbe_bader_spin_density
 _atom_site_pbe_cm5_charge
 _atom_site_pbe_ddec_charge
 _atom_site_pbe_ddec_spin_density
 _atom_site_pbe_ddec_sum_bond_order
 _atom_site_pbe_magmom
Cu  Cu0  1  0.99999902  0.25000073  0.83411408  1  1.063679  0.576225  0.735112  0.758456  0.734157  2.261832  0.574
Cu  Cu1  1  0.49999966  0.24999847  0.66588565  1  1.06368  0.576225  0.735103  0.758464  0.734156  2.261832  0.574
Cu  Cu2  1  0.00000086  0.74999912  0.16588533  1  1.063678  0.576225  0.735085  0.758383  0.734157  2.261858  0.574
Cu  Cu3  1  0.49999922  0.75000058  0.33411488  1  1.06368  0.576224  0.73509  0.758401  0.734155  2.261843  0.574
H  H4  1  0.90053108  0.51307179  0.00404994  1  0.129295  0.000584  0.107557  0.113673  0.000551  1.023614  0.0
H  H5  1  0.09946982  0.98692785  0.00404915  1  0.129581  0.000584  0.10756  0.113674  0.000551  1.023619  0.0
H  H6  1  0.40053108  0.98692773  0.49595048  1  0.129574  0.000584  0.107556  0.113662  0.000551  1.023626  0.0
H  H7  1  0.59946960  0.51307181  0.49594999  1  0.129595  0.000584  0.107561  0.113675  0.000551  1.023611  0.0
H  H8  1  0.09946979  0.48692885  0.99594947  1  0.129617  0.000584  0.107546  0.113603  0.000551  1.023716  0.0
H  H9  1  0.90053205  0.01307120  0.99595026  1  0.129291  0.000584  0.10756  0.113636  0.000551  1.023642  0.0
H  H10  1  0.59946879  0.01307132  0.50405005  1  0.129299  0.000584  0.107555  0.113662  0.000551  1.023639  0.0
H  H11  1  0.40053127  0.48692963  0.50404998  1  0.129311  0.000584  0.107545  0.113605  0.000551  1.023693  0.0
H  H12  1  0.78213182  0.59396999  0.10972428  1  0.113203  -6.5e-05  0.107092  0.120617  -0.000162  1.044456  0.0
H  H13  1  0.21786825  0.90603042  0.10972413  1  0.113207  -6.5e-05  0.107087  0.120578  -0.000162  1.0445  0.0
H  H14  1  0.28213171  0.90603037  0.39027607  1  0.113205  -6.5e-05  0.107093  0.12062  -0.000162  1.044462  0.0
H  H15  1  0.71786881  0.59397077  0.39027564  1  0.113194  -6.5e-05  0.107092  0.120594  -0.000162  1.044505  0.0
H  H16  1  0.21787005  0.40603065  0.89027569  1  0.113229  -6.5e-05  0.107096  0.120567  -0.000162  1.044548  0.0
H  H17  1  0.78213063  0.09396864  0.89027584  1  0.113216  -6.5e-05  0.107089  0.120592  -0.000162  1.044525  0.0
H  H18  1  0.71786916  0.09396947  0.60972390  1  0.113215  -6.5e-05  0.107093  0.120613  -0.000162  1.044499  0.0
H  H19  1  0.28213008  0.40603066  0.60972433  1  0.113119  -6.5e-05  0.107098  0.120596  -0.000162  1.044539  0.0
H  H20  1  0.46149622  0.36724543  0.08405754  1  0.106244  0.000261  0.111217  0.121017  0.00016  1.007501  0.0
H  H21  1  0.53850318  0.13275640  0.08405701  1  0.106387  0.000261  0.111163  0.120949  0.00016  1.007526  0.0
H  H22  1  0.96149678  0.13275548  0.41594296  1  0.106259  0.000261  0.111194  0.120992  0.00016  1.007543  0.0
H  H23  1  0.03850414  0.36724549  0.41594271  1  0.106256  0.000262  0.111224  0.121024  0.00016  1.007492  0.0
H  H24  1  0.53850466  0.63275601  0.91594243  1  0.106366  0.000261  0.111216  0.121019  0.00016  1.007488  0.0
H  H25  1  0.46149670  0.86724424  0.91594296  1  0.10621  0.000261  0.111178  0.120952  0.00016  1.007543  0.0
H  H26  1  0.03850310  0.86724437  0.58405757  1  0.106378  0.000261  0.111178  0.120956  0.00016  1.007548  0.0
H  H27  1  0.96149674  0.63275515  0.58405726  1  0.106256  0.000261  0.111197  0.12097  0.00016  1.007552  0.0
H  H28  1  0.58509635  0.28629068  0.97500641  1  0.117406  1.4e-05  0.101333  0.100377  -1.6e-05  1.037204  0.0
H  H29  1  0.41490247  0.21371018  0.97500524  1  0.117968  1.4e-05  0.101325  0.100381  -1.6e-05  1.037229  0.0
H  H30  1  0.08509680  0.21370951  0.52499479  1  0.117976  1.4e-05  0.101328  0.100376  -1.6e-05  1.037216  0.0
H  H31  1  0.91490430  0.28628985  0.52499331  1  0.117398  1.4e-05  0.101329  0.100397  -1.6e-05  1.037218  0.0
H  H32  1  0.41490452  0.71370837  0.02499413  1  0.117421  1.4e-05  0.101343  0.100413  -1.6e-05  1.03718  0.0
H  H33  1  0.58509641  0.78629046  0.02499473  1  0.117969  1.4e-05  0.101328  0.100379  -1.6e-05  1.037211  0.0
H  H34  1  0.91490408  0.78629114  0.47500574  1  0.117991  1.4e-05  0.101333  0.100403  -1.6e-05  1.037169  0.0
H  H35  1  0.08509558  0.71370920  0.47500497  1  0.117391  1.4e-05  0.101317  0.100367  -1.6e-05  1.037219  0.0
H  H36  1  0.35023705  0.52093641  0.30362365  1  0.125751  0.00013  0.142383  0.112206  -4.2e-05  0.978347  0.0
H  H37  1  0.64976234  0.97906396  0.30362314  1  0.125766  0.00013  0.142372  0.112199  -4.2e-05  0.978413  0.0
H  H38  1  0.85023801  0.97906392  0.19637619  1  0.125776  0.00013  0.142368  0.112188  -4.2e-05  0.978402  0.0
H  H39  1  0.14976220  0.52093329  0.19637659  1  0.125798  0.00013  0.142395  0.112206  -4.2e-05  0.978333  0.0
H  H40  1  0.64976383  0.47906344  0.69637576  1  0.125758  0.00013  0.142378  0.112193  -4.2e-05  0.978356  0.0
H  H41  1  0.35023555  0.02093350  0.69637852  1  0.125781  0.00013  0.142385  0.112212  -4.2e-05  0.978351  0.0
H  H42  1  0.14976286  0.02093672  0.80362322  1  0.125763  0.00013  0.142372  0.1122  -4.2e-05  0.97839  0.0
H  H43  1  0.85023569  0.47906656  0.80362113  1  0.125789  0.00013  0.142385  0.112212  -4.2e-05  0.97837  0.0
H  H44  1  0.63876634  0.68558266  0.17643851  1  0.251493  0.0003  0.143775  0.137508  7.1e-05  1.060583  0.0
H  H45  1  0.36123284  0.81441773  0.17643843  1  0.251496  0.0003  0.143778  0.137494  7.1e-05  1.060611  0.0
H  H46  1  0.13876719  0.81441777  0.32356178  1  0.251497  0.0003  0.143779  0.137493  7.1e-05  1.060612  0.0
H  H47  1  0.86123522  0.68558260  0.32356141  1  0.2515  0.0003  0.143777  0.137505  7.1e-05  1.060587  0.0
H  H48  1  0.36123354  0.31441718  0.82356090  1  0.251496  0.0003  0.143779  0.137511  7.1e-05  1.060588  0.0
H  H49  1  0.63876704  0.18558212  0.82356154  1  0.251495  0.0003  0.14378  0.137509  7.1e-05  1.060595  0.0
H  H50  1  0.86123269  0.18558287  0.67643875  1  0.251479  0.0003  0.143778  0.137482  7.1e-05  1.060623  0.0
H  H51  1  0.13876665  0.31441804  0.67643856  1  0.251502  0.0003  0.14378  0.137507  7.1e-05  1.060596  0.0
C  C52  1  0.82256050  0.33793354  0.92097760  1  1.53886  -0.001607  0.195959  0.556911  -0.002316  4.213719  -0.004
C  C53  1  0.17743823  0.16206494  0.92097688  1  1.538448  -0.001608  0.195953  0.556944  -0.002316  4.213651  -0.004
C  C54  1  0.32256007  0.16206574  0.57902260  1  1.538835  -0.001607  0.19593  0.556925  -0.002315  4.213759  -0.004
C  C55  1  0.67744011  0.33793361  0.57902212  1  1.538846  -0.001607  0.195956  0.556958  -0.002315  4.213733  -0.004
C  C56  1  0.17743938  0.66206631  0.07902350  1  1.538866  -0.001608  0.195964  0.557002  -0.002317  4.213646  -0.004
C  C57  1  0.82256065  0.83793490  0.07902365  1  1.538449  -0.001609  0.195971  0.556938  -0.002317  4.213723  -0.004
C  C58  1  0.67743881  0.83793490  0.42097737  1  1.53844  -0.001609  0.195931  0.556873  -0.002316  4.213734  -0.004
C  C59  1  0.32255977  0.66206624  0.42097673  1  1.53885  -0.001607  0.195947  0.557011  -0.002316  4.213716  -0.004
C  C60  1  0.75028942  0.39292801  0.98322663  1  -0.038562  0.007138  -0.01819  -0.033382  0.005045  3.974731  0.006
C  C61  1  0.24971041  0.10707205  0.98322539  1  -0.038542  0.007139  -0.018199  -0.033422  0.005045  3.974747  0.006
C  C62  1  0.25028993  0.10707210  0.51677409  1  -0.038532  0.007138  -0.018201  -0.033436  0.005044  3.974767  0.006
C  C63  1  0.74970916  0.39292964  0.51677364  1  -0.038538  0.007139  -0.018173  -0.033432  0.005045  3.974821  0.006
C  C64  1  0.24970847  0.60707025  0.01677390  1  -0.038539  0.007139  -0.018133  -0.033403  0.005045  3.974699  0.006
C  C65  1  0.75029047  0.89293018  0.01677514  1  -0.038393  0.007139  -0.018227  -0.033522  0.005045  3.974931  0.006
C  C66  1  0.74970895  0.89293013  0.48322588  1  -0.038553  0.007139  -0.018171  -0.033428  0.005045  3.974883  0.006
C  C67  1  0.25029072  0.60707020  0.48322576  1  -0.038549  0.007139  -0.018145  -0.033384  0.005045  3.974839  0.006
C  C68  1  0.80481628  0.48037595  0.02088330  1  -0.027959  0.000451  -0.076733  -0.063756  0.000283  3.943569  0.0
C  C69  1  0.19518402  0.01962431  0.02088261  1  -0.027953  0.000451  -0.076731  -0.063759  0.000283  3.943518  0.0
C  C70  1  0.30481659  0.01962424  0.47911712  1  -0.027949  0.000452  -0.076729  -0.063714  0.000283  3.943528  0.0
C  C71  1  0.69518443  0.48037513  0.47911719  1  -0.027977  0.000451  -0.076728  -0.063712  0.000283  3.943619  0.0
C  C72  1  0.19518559  0.51962549  0.97911723  1  -0.027988  0.000451  -0.076734  -0.063703  0.000283  3.943722  0.0
C  C73  1  0.80481586  0.98037474  0.97911736  1  -0.027983  0.000452  -0.076729  -0.063673  0.000283  3.943659  0.0
C  C74  1  0.69518429  0.98037482  0.52088285  1  -0.027973  0.000452  -0.076741  -0.063739  0.000283  3.943678  0.0
C  C75  1  0.30481544  0.51962551  0.52088221  1  -0.027986  0.000452  -0.076726  -0.063677  0.000283  3.943733  0.0
C  C76  1  0.73773432  0.52634286  0.08093314  1  0.015501  -9.1e-05  -0.087825  -0.160587  -0.000208  3.953157  0.0
C  C77  1  0.26226571  0.97365676  0.08093243  1  0.015503  -9.1e-05  -0.087804  -0.160515  -0.000208  3.953081  0.0
C  C78  1  0.23773421  0.97365673  0.41906720  1  0.015505  -9.1e-05  -0.087831  -0.160606  -0.000208  3.953123  0.0
C  C79  1  0.76226636  0.52634441  0.41906735  1  0.015503  -9.1e-05  -0.087814  -0.160559  -0.000208  3.95311  0.0
C  C80  1  0.26226755  0.47365699  0.91906852  1  0.015505  -9.1e-05  -0.087835  -0.160511  -0.000208  3.95321  0.0
C  C81  1  0.73773517  0.02634309  0.91906754  1  0.015503  -9.1e-05  -0.087803  -0.160565  -0.000208  3.953113  0.0
C  C82  1  0.76226666  0.02634391  0.58093165  1  0.015486  -9.1e-05  -0.087799  -0.160532  -0.000208  3.953095  0.0
C  C83  1  0.23773352  0.47365544  0.58093093  1  0.015592  -9.1e-05  -0.087806  -0.160563  -0.000208  3.953155  0.0
C  C84  1  0.61489220  0.48437065  0.10327431  1  0.226746  0.000424  0.101893  0.147122  0.000281  4.004313  0.0
C  C85  1  0.38510723  0.01562879  0.10327484  1  0.226727  0.000424  0.101903  0.147081  0.000281  4.004254  0.0
C  C86  1  0.11489238  0.01562882  0.39672489  1  0.226732  0.000424  0.1019  0.147119  0.000281  4.004284  0.0
C  C87  1  0.88510851  0.48437215  0.39672674  1  0.226714  0.000424  0.101851  0.147075  0.000281  4.004298  0.0
C  C88  1  0.38510967  0.51562920  0.89672509  1  0.226723  0.000424  0.101894  0.147137  0.000281  4.004387  0.0
C  C89  1  0.61489166  0.98437026  0.89672681  1  0.226719  0.000424  0.101856  0.147078  0.000281  4.004232  0.0
C  C90  1  0.88510849  0.98437182  0.60327508  1  0.226732  0.000424  0.101894  0.147067  0.000281  4.004221  0.0
C  C91  1  0.11489137  0.51562929  0.60327323  1  0.226719  0.000424  0.101826  0.14704  0.000281  4.004241  0.0
C  C92  1  0.55746908  0.39816453  0.06573971  1  0.051246  0.001011  -0.08572  -0.157825  0.000709  3.978947  0.001
C  C93  1  0.44252829  0.10183491  0.06574025  1  0.051165  0.001011  -0.085681  -0.157698  0.000709  3.978931  0.001
C  C94  1  0.05747125  0.10183496  0.43425947  1  0.051272  0.001011  -0.085696  -0.157756  0.000709  3.978956  0.001
C  C95  1  0.94252970  0.39816600  0.43426024  1  0.051257  0.001011  -0.085705  -0.157761  0.000709  3.979011  0.001
C  C96  1  0.44252980  0.60183452  0.93425970  1  0.051123  0.001011  -0.08573  -0.157831  0.000709  3.979079  0.001
C  C97  1  0.55747059  0.89816493  0.93426028  1  0.051315  0.001011  -0.085654  -0.157653  0.000709  3.97896  0.001
C  C98  1  0.94252962  0.89816568  0.56574050  1  0.051147  0.001011  -0.085678  -0.157683  0.000709  3.97893  0.001
C  C99  1  0.05747018  0.60183464  0.56573973  1  0.051272  0.001011  -0.085673  -0.157672  0.000709  3.978987  0.001
C  C100  1  0.62597785  0.35357926  0.00567303  1  -0.084641  0.001166  -0.08298  -0.082302  0.000652  3.980615  0.001
C  C101  1  0.37402143  0.14642179  0.00567297  1  -0.084664  0.001166  -0.082995  -0.082385  0.000651  3.980707  0.001
C  C102  1  0.12597809  0.14642100  0.49432674  1  -0.08466  0.001166  -0.082997  -0.082359  0.000652  3.980629  0.001
C  C103  1  0.87402296  0.35357915  0.49432692  1  -0.084651  0.001166  -0.083012  -0.082401  0.000652  3.980658  0.001
C  C104  1  0.37402203  0.64642059  0.99432582  1  -0.084636  0.001166  -0.08303  -0.082374  0.000652  3.980576  0.001
C  C105  1  0.62597945  0.85357806  0.99432643  1  -0.084816  0.001166  -0.083001  -0.08237  0.000652  3.980689  0.001
C  C106  1  0.87402079  0.85357884  0.50567435  1  -0.084638  0.001166  -0.083025  -0.082408  0.000652  3.980635  0.001
C  C107  1  0.12597891  0.64642228  0.50567361  1  -0.084661  0.001166  -0.083012  -0.082398  0.000652  3.98068  0.001
C  C108  1  0.42286781  0.54009888  0.26071992  1  1.024273  -0.000796  0.154108  0.154213  -0.00097  3.97974  0.0
C  C109  1  0.57713251  0.95990150  0.26071938  1  1.024274  -0.000796  0.15411  0.154252  -0.000971  3.979825  0.0
C  C110  1  0.92286886  0.95990142  0.23927995  1  1.02448  -0.000796  0.154138  0.154271  -0.000971  3.9798  0.0
C  C111  1  0.07712844  0.54009737  0.23928144  1  1.024541  -0.000796  0.15412  0.154307  -0.000971  3.979684  0.0
C  C112  1  0.57713307  0.45990097  0.73928005  1  1.02446  -0.000796  0.154099  0.154232  -0.00097  3.979744  0.0
C  C113  1  0.42286837  0.04009755  0.73928228  1  1.024309  -0.000796  0.15412  0.154287  -0.000971  3.979661  0.0
C  C114  1  0.07713202  0.04009922  0.76071946  1  1.024479  -0.000796  0.154131  0.154254  -0.000971  3.979807  0.0
C  C115  1  0.92286845  0.45990247  0.76071741  1  1.024308  -0.000796  0.154111  0.154263  -0.000971  3.979695  0.0
C  C116  1  0.57071692  0.62546392  0.19816828  1  0.949259  -0.001076  0.164962  0.086443  -0.001349  3.831201  0.0
C  C117  1  0.42928230  0.87453647  0.19816767  1  0.94933  -0.001076  0.16497  0.08648  -0.001349  3.831157  0.0
C  C118  1  0.07071769  0.87453655  0.30183197  1  0.949244  -0.001076  0.164977  0.086496  -0.001349  3.831219  0.0
C  C119  1  0.92928269  0.62546303  0.30183220  1  0.949338  -0.001076  0.164952  0.086461  -0.001349  3.831128  0.0
C  C120  1  0.42928396  0.37453593  0.80183169  1  0.949262  -0.001076  0.164966  0.086473  -0.001349  3.831281  0.0
C  C121  1  0.57071758  0.12546258  0.80183286  1  0.949558  -0.001077  0.165051  0.086556  -0.001349  3.831011  0.0
C  C122  1  0.92928219  0.12546410  0.69816800  1  0.949241  -0.001076  0.164985  0.086513  -0.00135  3.831236  0.0
C  C123  1  0.07071718  0.37453682  0.69816721  1  0.949553  -0.001077  0.164984  0.086486  -0.001349  3.831021  0.0
N  N124  1  0.54833434  0.52992339  0.16594331  1  -0.858365  0.002233  -0.110476  0.14671  0.001328  3.739318  0.002
N  N125  1  0.45166483  0.97007701  0.16594327  1  -0.858399  0.002233  -0.110481  0.146726  0.001328  3.739258  0.002
N  N126  1  0.04833410  0.97007629  0.33405637  1  -0.858397  0.002232  -0.110493  0.146695  0.001327  3.739337  0.002
N  N127  1  0.95166534  0.52992328  0.33405718  1  -0.858399  0.002232  -0.110482  0.1467  0.001327  3.739286  0.002
N  N128  1  0.45166653  0.47007646  0.83405554  1  -0.858352  0.002233  -0.110463  0.146665  0.001328  3.73939  0.002
N  N129  1  0.54833505  0.02992284  0.83405783  1  -0.858416  0.002233  -0.110502  0.146687  0.001328  3.739263  0.002
N  N130  1  0.95166478  0.02992356  0.66594360  1  -0.858402  0.002233  -0.110515  0.14668  0.001328  3.739314  0.002
N  N131  1  0.04833454  0.47007736  0.66594223  1  -0.8584  0.002233  -0.110467  0.146729  0.001327  3.739227  0.002
N  N132  1  0.45319945  0.47496870  0.20501345  1  -0.658676  0.006972  -0.217633  -0.254458  0.004541  3.061214  0.005
N  N133  1  0.54680014  0.02503152  0.20501294  1  -0.658686  0.006972  -0.217655  -0.254514  0.004542  3.0612  0.005
N  N134  1  0.95319991  0.02503142  0.29498704  1  -0.658677  0.006972  -0.217643  -0.254491  0.004542  3.061244  0.005
N  N135  1  0.04679883  0.47496719  0.29498679  1  -0.658746  0.006972  -0.217649  -0.254507  0.004541  3.061132  0.005
N  N136  1  0.54680142  0.52503194  0.79498596  1  -0.658701  0.006971  -0.217608  -0.25443  0.004541  3.061175  0.005
N  N137  1  0.45320074  0.97496674  0.79498872  1  -0.658741  0.006971  -0.217649  -0.254501  0.004541  3.061066  0.005
N  N138  1  0.04679997  0.97496843  0.70501293  1  -0.658672  0.006972  -0.217623  -0.254446  0.004541  3.061187  0.005
N  N139  1  0.95320005  0.52503345  0.70501150  1  -0.658761  0.006972  -0.217649  -0.254502  0.004541  3.061079  0.005
N  N140  1  0.49263399  0.63365995  0.25868692  1  -1.218188  0.071617  -0.367179  -0.325197  0.047676  3.625507  0.062
N  N141  1  0.50736532  0.86634042  0.25868636  1  -1.218155  0.071616  -0.367164  -0.32522  0.047676  3.625513  0.062
N  N142  1  0.99263511  0.86633952  0.24131298  1  -1.218163  0.071616  -0.367162  -0.325224  0.047676  3.625507  0.062
N  N143  1  0.00736418  0.63365848  0.24131330  1  -1.218172  0.071615  -0.367166  -0.325253  0.047675  3.625463  0.062
N  N144  1  0.50736589  0.36633989  0.74131305  1  -1.218173  0.071615  -0.367188  -0.32524  0.047675  3.625529  0.062
N  N145  1  0.49263555  0.13365783  0.74131361  1  -1.218347  0.071615  -0.367212  -0.325319  0.047675  3.625487  0.062
N  N146  1  0.00736477  0.13366033  0.75868643  1  -1.218142  0.071615  -0.367187  -0.325269  0.047675  3.625563  0.062
N  N147  1  0.99263570  0.36634216  0.75868611  1  -1.218349  0.071616  -0.367183  -0.325268  0.047676  3.625446  0.062
O  O148  1  0.94939512  0.35386528  0.91549114  1  -1.103281  0.122085  -0.319224  -0.512272  0.077093  2.247786  0.109
O  O149  1  0.05060360  0.14613400  0.91549092  1  -1.102907  0.122087  -0.319199  -0.512251  0.077094  2.247707  0.109
O  O150  1  0.44939471  0.14613474  0.58450912  1  -1.103275  0.122084  -0.319222  -0.512288  0.077092  2.247792  0.109
O  O151  1  0.55060548  0.35386461  0.58450857  1  -1.103263  0.122087  -0.319213  -0.512267  0.077094  2.247709  0.109
O  O152  1  0.05060476  0.64613536  0.08450771  1  -1.103287  0.122083  -0.319222  -0.512285  0.077092  2.247759  0.109
O  O153  1  0.94939528  0.85386744  0.08450905  1  -1.102889  0.122089  -0.319185  -0.512211  0.077095  2.247757  0.109
O  O154  1  0.55060417  0.85386750  0.41549197  1  -1.102912  0.122085  -0.319198  -0.51224  0.077093  2.247808  0.109
O  O155  1  0.44939440  0.64613524  0.41549196  1  -1.103265  0.122084  -0.31919  -0.512293  0.077093  2.247787  0.109
O  O156  1  0.75987949  0.27757949  0.87667359  1  -1.191995  0.001137  -0.331886  -0.586233  -0.000402  2.222393  0.002
O  O157  1  0.24011817  0.22242139  0.87667346  1  -1.192024  0.001137  -0.331865  -0.586203  -0.000402  2.22236  0.002
O  O158  1  0.25988009  0.22242061  0.62332658  1  -1.192001  0.001138  -0.331846  -0.586202  -0.000401  2.222419  0.002
O  O159  1  0.74012017  0.27757952  0.62332614  1  -1.192041  0.001137  -0.331869  -0.586225  -0.000402  2.222431  0.002
O  O160  1  0.24012138  0.72242115  0.12332638  1  -1.192023  0.001137  -0.331881  -0.586245  -0.000402  2.222384  0.002
O  O161  1  0.75988071  0.77757846  0.12332707  1  -1.192057  0.001137  -0.331885  -0.586205  -0.000402  2.222329  0.002
O  O162  1  0.74011879  0.77757844  0.37667395  1  -1.192019  0.001137  -0.331854  -0.586155  -0.000402  2.222338  0.002
O  O163  1  0.25987872  0.72242112  0.37667327  1  -1.192036  0.001137  -0.331885  -0.586257  -0.000402  2.222416  0.002
