# generated using pymatgen
data_CuH7C7IN
_symmetry_space_group_name_H-M   'P 1'
_cell_length_a   4.11631766
_cell_length_b   13.83293810
_cell_length_c   13.86989715
_cell_angle_alpha   89.99948577
_cell_angle_beta   99.55564948
_cell_angle_gamma   89.99915999
_symmetry_Int_Tables_number   1
_chemical_formula_structural   CuH7C7IN
_chemical_formula_sum   'Cu4 H28 C28 I4 N4'
_cell_volume   778.80449776
_cell_formula_units_Z   4
loop_
 _symmetry_equiv_pos_site_id
 _symmetry_equiv_pos_as_xyz
  1  'x, y, z'
loop_
 _atom_site_type_symbol
 _atom_site_label
 _atom_site_symmetry_multiplicity
 _atom_site_fract_x
 _atom_site_fract_y
 _atom_site_fract_z
 _atom_site_occupancy
 _atom_site_hle17_bader_spin_density
 _atom_site_hle17_ddec_charge
 _atom_site_hle17_ddec_spin_density
 _atom_site_hle17_ddec_sum_bond_order
 _atom_site_hle17_magmom
 _atom_site_hse06_10hf_bader_spin_density
 _atom_site_hse06_10hf_ddec_charge
 _atom_site_hse06_10hf_ddec_spin_density
 _atom_site_hse06_10hf_ddec_sum_bond_order
 _atom_site_hse06_10hf_magmom
 _atom_site_hse06_bader_spin_density
 _atom_site_hse06_ddec_charge
 _atom_site_hse06_ddec_spin_density
 _atom_site_hse06_ddec_sum_bond_order
 _atom_site_hse06_magmom
 _atom_site_pbe_bader_spin_density
 _atom_site_pbe_cm5_charge
 _atom_site_pbe_ddec_charge
 _atom_site_pbe_ddec_spin_density
 _atom_site_pbe_ddec_sum_bond_order
 _atom_site_pbe_magmom
Cu  Cu0  1  0.34908767  0.92039941  0.02335700  1  0  0.273705  0  2.110063  0  0  0.191205  0  2.581365  0  0  0.204404  0  2.52756  0  0  0.255911  0.184336  0  2.617249  0
Cu  Cu1  1  0.65090820  0.42039948  0.47665250  1  0  0.273687  0  2.110069  0  0  0.191252  0  2.581365  0  0  0.204433  0  2.527553  0  0  0.255969  0.184388  0  2.617296  0
Cu  Cu2  1  0.65090881  0.07960116  0.97664701  1  0  0.273719  0  2.11005  0  0  0.191253  0  2.581352  0  0  0.204461  0  2.527514  0  0  0.25597  0.184384  0  2.617319  0
Cu  Cu3  1  0.34908585  0.57960037  0.52335213  1  0  0.273657  0  2.110177  0  0  0.191209  0  2.581493  0  0  0.204383  0  2.527653  0  0  0.255974  0.184343  0  2.617427  0
H  H4  1  0.14568107  0.77468274  0.11268739  1  0  0.083716  0  1.002308  0  0  0.091079  0  1.075364  0  0  0.095263  0  1.07157  0  0  0.081382  0.087899  0  1.078267  0
H  H5  1  0.85432799  0.27468782  0.38732545  1  0  0.083751  0  1.002252  0  0  0.09109  0  1.07529  0  0  0.095252  0  1.071517  0  0  0.081408  0.087865  0  1.078247  0
H  H6  1  0.85432503  0.22531711  0.88731273  1  0  0.083791  0  1.002247  0  0  0.091159  0  1.075287  0  0  0.095345  0  1.071486  0  0  0.081402  0.087939  0  1.078238  0
H  H7  1  0.14566329  0.72531347  0.61267328  1  0  0.083753  0  1.00225  0  0  0.091079  0  1.075308  0  0  0.095243  0  1.07153  0  0  0.081418  0.087863  0  1.078259  0
H  H8  1  0.12507467  0.55086197  0.10461928  1  0  0.106141  0  0.990784  0  0  0.119529  0  1.054862  0  0  0.122398  0  1.05344  0  0  0.088107  0.117539  0  1.055855  0
H  H9  1  0.87495116  0.05086761  0.39538333  1  0  0.106107  0  0.990883  0  0  0.119567  0  1.05486  0  0  0.122437  0  1.053437  0  0  0.088129  0.117572  0  1.055867  0
H  H10  1  0.87491880  0.44913571  0.89537450  1  0  0.106155  0  0.990842  0  0  0.119575  0  1.054861  0  0  0.122446  0  1.053436  0  0  0.088128  0.117584  0  1.055853  0
H  H11  1  0.12506248  0.94913368  0.60462001  1  0  0.106238  0  0.990769  0  0  0.119626  0  1.054837  0  0  0.122495  0  1.053415  0  0  0.088145  0.117636  0  1.055834  0
H  H12  1  0.00420413  0.63092866  0.19908076  1  0  0.120256  0  0.980232  0  0  0.133261  0  1.040931  0  0  0.136133  0  1.040664  0  0  0.087279  0.13118  0  1.041131  0
H  H13  1  0.99582980  0.13093971  0.30092654  1  0  0.120249  0  0.980114  0  0  0.13331  0  1.040761  0  0  0.136172  0  1.040532  0  0  0.087294  0.131233  0  1.040956  0
H  H14  1  0.99580185  0.36906757  0.80091719  1  0  0.120368  0  0.980073  0  0  0.133339  0  1.040813  0  0  0.136196  0  1.040592  0  0  0.087327  0.131256  0  1.041013  0
H  H15  1  0.00417645  0.86906086  0.69907647  1  0  0.120295  0  0.980064  0  0  0.133358  0  1.040707  0  0  0.136218  0  1.040484  0  0  0.087311  0.131278  0  1.040911  0
H  H16  1  0.27503655  0.55020776  0.96451113  1  0  0.090552  0  0.976813  0  0  0.103909  0  1.037431  0  0  0.106521  0  1.03695  0  0  0.100455  0.102046  0  1.037917  0
H  H17  1  0.72493502  0.05020365  0.53548507  1  0  0.09047  0  0.976617  0  0  0.103818  0  1.037278  0  0  0.106432  0  1.036805  0  0  0.100438  0.10196  0  1.037753  0
H  H18  1  0.72496420  0.44979570  0.03548081  1  0  0.09054  0  0.976787  0  0  0.103912  0  1.037374  0  0  0.106523  0  1.036895  0  0  0.100458  0.102067  0  1.037828  0
H  H19  1  0.27506092  0.94979547  0.46450882  1  0  0.090495  0  0.976635  0  0  0.103835  0  1.037301  0  0  0.106447  0  1.036832  0  0  0.100436  0.101979  0  1.037769  0
H  H20  1  0.50602189  0.55989646  0.80897348  1  0  0.087657  0  0.970473  0  0  0.098785  0  1.032553  0  0  0.10127  0  1.030741  0  0  0.090556  0.09667  0  1.034316  0
H  H21  1  0.49393177  0.05989479  0.69101967  1  0  0.087681  0  0.970412  0  0  0.0988  0  1.03249  0  0  0.101288  0  1.030669  0  0  0.090571  0.096672  0  1.034284  0
H  H22  1  0.49397400  0.44010918  0.19101969  1  0  0.087712  0  0.970446  0  0  0.098836  0  1.03252  0  0  0.101324  0  1.030706  0  0  0.090547  0.096702  0  1.034324  0
H  H23  1  0.50607421  0.94009783  0.30897827  1  0  0.087694  0  0.970476  0  0  0.098809  0  1.032567  0  0  0.101298  0  1.030746  0  0  0.090566  0.096681  0  1.034356  0
H  H24  1  0.67068695  0.72191183  0.75254519  1  0  0.102658  0  0.957107  0  0  0.114208  0  1.016391  0  0  0.116952  0  1.016593  0  0  0.100272  0.112205  0  1.016384  0
H  H25  1  0.32930239  0.22190891  0.74745604  1  0  0.102673  0  0.957132  0  0  0.11427  0  1.016364  0  0  0.117016  0  1.016563  0  0  0.100279  0.112232  0  1.016404  0
H  H26  1  0.32930922  0.27809597  0.24745304  1  0  0.102677  0  0.957124  0  0  0.114218  0  1.01641  0  0  0.116966  0  1.016607  0  0  0.100272  0.112169  0  1.01648  0
H  H27  1  0.67071364  0.77808371  0.25254596  1  0  0.102654  0  0.956989  0  0  0.114206  0  1.016294  0  0  0.11695  0  1.016496  0  0  0.100262  0.112198  0  1.016286  0
H  H28  1  0.58333503  0.86793838  0.85188483  1  0  0.064799  0  0.984372  0  0  0.070413  0  1.058972  0  0  0.073417  0  1.055518  0  0  0.092294  0.067815  0  1.062095  0
H  H29  1  0.41667638  0.36793890  0.64812906  1  0  0.064715  0  0.984311  0  0  0.070353  0  1.058928  0  0  0.073359  0  1.05547  0  0  0.092253  0.067751  0  1.06205  0
H  H30  1  0.41666399  0.13206435  0.14812074  1  0  0.064844  0  0.984199  0  0  0.070472  0  1.058816  0  0  0.073478  0  1.055359  0  0  0.092316  0.06787  0  1.06194  0
H  H31  1  0.58333015  0.63205806  0.35187900  1  0  0.064739  0  0.984371  0  0  0.070352  0  1.058973  0  0  0.073356  0  1.05552  0  0  0.092246  0.067751  0  1.062097  0
C  C32  1  0.30728400  0.70393919  0.99071137  1  0  0.242685  0  3.755062  0  0  0.244555  0  3.983486  0  0  0.253822  0  4.004262  0  0  0.111617  0.238347  0  3.969647  0
C  C33  1  0.69271906  0.20393113  0.50929785  1  0  0.242264  0  3.75523  0  0  0.24432  0  3.983445  0  0  0.253604  0  4.004189  0  0  0.111376  0.238109  0  3.96962  0
C  C34  1  0.69272445  0.29606644  0.00928669  1  0  0.242657  0  3.754891  0  0  0.244468  0  3.983437  0  0  0.253734  0  4.004217  0  0  0.111493  0.238266  0  3.96961  0
C  C35  1  0.30728215  0.79606872  0.49070277  1  0  0.242145  0  3.755447  0  0  0.244223  0  3.983633  0  0  0.253498  0  4.004392  0  0  0.111324  0.23801  0  3.96981  0
C  C36  1  0.17742645  0.70283474  0.08248165  1  0  -0.085603  0  3.784353  0  0  -0.097851  0  4.030738  0  0  -0.101854  0  4.051745  0  0  -0.097405  -0.09522  0  4.016768  0
C  C37  1  0.82258593  0.20284112  0.41751900  1  0  -0.085417  0  3.784309  0  0  -0.097639  0  4.030616  0  0  -0.101624  0  4.051624  0  0  -0.097304  -0.094976  0  4.016691  0
C  C38  1  0.82257472  0.29716150  0.91751825  1  0  -0.085712  0  3.784354  0  0  -0.097917  0  4.030717  0  0  -0.101919  0  4.051718  0  0  -0.097443  -0.095266  0  4.016791  0
C  C39  1  0.17740793  0.79716018  0.58248201  1  0  -0.08527  0  3.784412  0  0  -0.097483  0  4.030665  0  0  -0.101463  0  4.051671  0  0  -0.097266  -0.094827  0  4.01674  0
C  C40  1  0.09769178  0.62446016  0.13038246  1  0  -0.230576  0  3.598574  0  0  -0.271328  0  3.83252  0  0  -0.274931  0  3.849068  0  0  -0.173354  -0.268775  0  3.82138  0
C  C41  1  0.90230838  0.12447098  0.36962988  1  0  -0.230648  0  3.599017  0  0  -0.271523  0  3.832938  0  0  -0.275132  0  3.849472  0  0  -0.173463  -0.268962  0  3.821771  0
C  C42  1  0.90230200  0.37553897  0.86961711  1  0  -0.230684  0  3.598488  0  0  -0.27144  0  3.832434  0  0  -0.275045  0  3.848968  0  0  -0.173413  -0.268876  0  3.821283  0
C  C43  1  0.09769768  0.87553249  0.63036951  1  0  -0.230921  0  3.598986  0  0  -0.271749  0  3.832957  0  0  -0.27536  0  3.849487  0  0  -0.173553  -0.269189  0  3.821803  0
C  C44  1  0.34729355  0.61959502  0.93757580  1  0  -0.158425  0  3.716161  0  0  -0.172078  0  3.955874  0  0  -0.180919  0  3.977932  0  0  -0.087489  -0.166434  0  3.94126  0
C  C45  1  0.65268171  0.11960181  0.56242355  1  0  -0.158282  0  3.716665  0  0  -0.171963  0  3.956305  0  0  -0.180818  0  3.978366  0  0  -0.087506  -0.166307  0  3.941692  0
C  C46  1  0.65270016  0.38040483  0.06242232  1  0  -0.158584  0  3.716535  0  0  -0.172203  0  3.95626  0  0  -0.181045  0  3.978319  0  0  -0.087583  -0.166554  0  3.94166  0
C  C47  1  0.34731207  0.88039732  0.43757601  1  0  -0.158241  0  3.716651  0  0  -0.171916  0  3.956275  0  0  -0.180772  0  3.978339  0  0  -0.087447  -0.166261  0  3.941659  0
C  C48  1  0.47615797  0.62460709  0.85144364  1  0  -0.012716  0  3.760619  0  0  -0.032652  0  4.01085  0  0  -0.027205  0  4.028388  0  0  -0.080754  -0.036256  0  3.999349  0
C  C49  1  0.52381920  0.12459774  0.64855071  1  0  -0.012779  0  3.760144  0  0  -0.032708  0  4.010392  0  0  -0.027252  0  4.02792  0  0  -0.080726  -0.036314  0  3.998884  0
C  C50  1  0.52384024  0.37540216  0.14854675  1  0  -0.012781  0  3.76063  0  0  -0.032722  0  4.010832  0  0  -0.027276  0  4.028369  0  0  -0.080687  -0.036321  0  3.999323  0
C  C51  1  0.47618428  0.87539561  0.35144641  1  0  -0.012766  0  3.760073  0  0  -0.032698  0  4.010322  0  0  -0.027242  0  4.027848  0  0  -0.08072  -0.036307  0  3.998819  0
C  C52  1  0.56630527  0.71488215  0.81940102  1  0  -0.116081  0  3.738129  0  0  -0.126502  0  3.983552  0  0  -0.134421  0  4.006211  0  0  -0.089494  -0.12162  0  3.968871  0
C  C53  1  0.43367715  0.21488880  0.68060141  1  0  -0.116073  0  3.738031  0  0  -0.126509  0  3.983448  0  0  -0.13443  0  4.006107  0  0  -0.089471  -0.121602  0  3.968766  0
C  C54  1  0.43368601  0.28511842  0.18059771  1  0  -0.115968  0  3.738073  0  0  -0.126334  0  3.98346  0  0  -0.134253  0  4.00612  0  0  -0.089465  -0.121425  0  3.968782  0
C  C55  1  0.56632668  0.78510671  0.31940221  1  0  -0.116016  0  3.737844  0  0  -0.126465  0  3.983281  0  0  -0.134389  0  4.005946  0  0  -0.089477  -0.121569  0  3.968587  0
C  C56  1  0.51788224  0.79588865  0.87422340  1  0  0.125984  0  3.694004  0  0  0.096224  0  3.943093  0  0  0.103421  0  3.960141  0  0  0.03242  0.091351  0  3.932199  0
C  C57  1  0.48212547  0.29588186  0.62578448  1  0  0.12608  0  3.694262  0  0  0.096273  0  3.943535  0  0  0.103465  0  3.960592  0  0  0.032469  0.091408  0  3.932626  0
C  C58  1  0.48212374  0.20412132  0.12577455  1  0  0.125912  0  3.69427  0  0  0.096098  0  3.943463  0  0  0.103288  0  3.960522  0  0  0.032407  0.091237  0  3.932564  0
C  C59  1  0.51788079  0.70411220  0.37421852  1  0  0.125953  0  3.694207  0  0  0.096262  0  3.94334  0  0  0.103454  0  3.960397  0  0  0.032422  0.09139  0  3.932447  0
I  I60  1  0.90339980  0.96597370  0.13322881  1  0  -0.383393  0  1.804719  0  0  -0.324555  0  2.276731  0  0  -0.340733  0  2.230278  0  0  -0.157786  -0.312457  0  2.309083  0
I  I61  1  0.09658855  0.46597141  0.36677922  1  0  -0.383377  0  1.804698  0  0  -0.324562  0  2.276715  0  0  -0.340725  0  2.230248  0  0  -0.157781  -0.312454  0  2.309087  0
I  I62  1  0.09659664  0.03402687  0.86677448  1  0  -0.383411  0  1.804681  0  0  -0.32459  0  2.276715  0  0  -0.340767  0  2.230252  0  0  -0.157791  -0.312487  0  2.309107  0
I  I63  1  0.90340070  0.53403206  0.63322735  1  0  -0.38342  0  1.804754  0  0  -0.324596  0  2.276747  0  0  -0.340747  0  2.230266  0  0  -0.15781  -0.312502  0  2.309123  0
N  N64  1  0.38927886  0.79194723  0.95777349  1  0  -0.311363  0  3.296511  0  0  -0.238219  0  3.574376  0  0  -0.25355  0  3.584072  0  0  -0.354035  -0.22864  0  3.567864  0
N  N65  1  0.61072668  0.29195367  0.54223577  1  0  -0.311087  0  3.296011  0  0  -0.238105  0  3.573969  0  0  -0.253433  0  3.583648  0  0  -0.353915  -0.228529  0  3.567493  0
N  N66  1  0.61071766  0.20804973  0.04223125  1  0  -0.311207  0  3.296244  0  0  -0.238109  0  3.574256  0  0  -0.253439  0  3.583951  0  0  -0.353913  -0.228537  0  3.567801  0
N  N67  1  0.38927226  0.70804618  0.45776835  1  0  -0.311024  0  3.295996  0  0  -0.238094  0  3.57394  0  0  -0.253417  0  3.583613  0  0  -0.353854  -0.228518  0  3.567463  0
