# generated using pymatgen
data_Mn3H8C12(N7O2)2
_symmetry_space_group_name_H-M   'P 1'
_cell_length_a   6.70068975
_cell_length_b   7.65241420
_cell_length_c   9.63178019
_cell_angle_alpha   104.26615711
_cell_angle_beta   97.27525755
_cell_angle_gamma   97.42435795
_symmetry_Int_Tables_number   1
_chemical_formula_structural   Mn3H8C12(N7O2)2
_chemical_formula_sum   'Mn3 H8 C12 N14 O4'
_cell_volume   468.14199907
_cell_formula_units_Z   1
loop_
 _symmetry_equiv_pos_site_id
 _symmetry_equiv_pos_as_xyz
  1  'x, y, z'
loop_
 _atom_site_type_symbol
 _atom_site_label
 _atom_site_symmetry_multiplicity
 _atom_site_fract_x
 _atom_site_fract_y
 _atom_site_fract_z
 _atom_site_occupancy
 _atom_site_hse06_10hf_ddec_charge
 _atom_site_hse06_10hf_ddec_spin_density
 _atom_site_hse06_10hf_ddec_sum_bond_order
 _atom_site_hse06_10hf_magmom
 _atom_site_hse06_ddec_charge
 _atom_site_hse06_ddec_spin_density
 _atom_site_hse06_ddec_sum_bond_order
 _atom_site_hse06_magmom
 _atom_site_pbe_cm5_charge
 _atom_site_pbe_ddec_charge
 _atom_site_pbe_ddec_spin_density
 _atom_site_pbe_ddec_sum_bond_order
 _atom_site_pbe_magmom
Mn  Mn0  1  0.00000160  0.00000277  0.49999821  1  0.800452  1.274981  3.358312  1.242  0.851664  1.120749  3.275874  1.109  0.713435  0.77155  1.493088  3.404012  1.442
Mn  Mn1  1  0.63803045  0.51687142  0.36693774  1  0.883115  4.597242  2.578595  4.414  0.940611  4.704456  2.509199  4.517  0.652915  0.831025  4.460149  2.635561  4.277
Mn  Mn2  1  0.36196746  0.48313673  0.63306491  1  0.883086  4.597257  2.57858  4.414  0.940562  4.70447  2.50922  4.517  0.652919  0.831003  4.460164  2.635541  4.277
H  H3  1  0.58126587  0.89450564  0.66525693  1  0.078758  0.000733  1.056995  0.001  0.080236  0.000651  1.055289  0.0  0.119931  0.077003  0.000749  1.059362  0.001
H  H4  1  0.41873692  0.10548875  0.33474045  1  0.078752  0.000734  1.056973  0.001  0.080231  0.000652  1.055267  0.0  0.119939  0.076998  0.000749  1.059341  0.001
H  H5  1  0.55670697  0.56819008  0.94875473  1  0.086978  -2.3e-05  1.064114  0.001  0.090492  -0.000126  1.059449  0.0  0.117428  0.084229  5.4e-05  1.067833  0.001
H  H6  1  0.44330086  0.43180701  0.05124366  1  0.087047  -2.3e-05  1.064114  0.001  0.090562  -0.000126  1.059447  0.0  0.11748  0.084294  5.4e-05  1.067831  0.001
H  H7  1  0.85629004  0.12907359  0.11339344  1  0.109443  -0.000447  1.034975  0.0  0.112968  -0.000556  1.032357  0.0  0.107935  0.106821  -0.000203  1.03669  0.0
H  H8  1  0.14372353  0.87092208  0.88660524  1  0.109427  -0.000447  1.035002  0.0  0.112973  -0.000555  1.032349  0.0  0.107907  0.106804  -0.000203  1.036721  0.0
H  H9  1  0.77586045  0.16008043  0.85864042  1  0.125453  0.000508  0.97796  0.0  0.128592  0.0004  0.977642  0.0  0.114219  0.122836  0.000605  0.979194  0.0
H  H10  1  0.22414656  0.83991256  0.14135814  1  0.125418  0.000508  0.978011  0.0  0.128556  0.000399  0.977694  0.0  0.114186  0.122801  0.000605  0.979245  0.0
C  C11  1  0.74876800  0.81591103  0.20000493  1  0.611029  -0.00656  4.145641  0.0  0.654219  -0.000521  4.135956  0.004  0.23028  0.581351  -0.009926  4.150518  -0.002
C  C12  1  0.25123008  0.18409026  0.79999539  1  0.610893  -0.006555  4.145857  0.0  0.654078  -0.000523  4.136177  0.004  0.23024  0.581217  -0.009921  4.15073  -0.002
C  C13  1  0.61904845  0.88360118  0.77554498  1  0.107378  0.000823  3.929382  0.002  0.118941  0.003388  3.944787  0.003  0.053028  0.098403  -0.001831  3.92061  0.0
C  C14  1  0.38095158  0.11639461  0.22445344  1  0.107306  0.000824  3.92936  0.002  0.118868  0.003384  3.944765  0.003  0.052967  0.09833  -0.001831  3.920587  0.0
C  C15  1  0.71149669  0.84548333  0.05190612  1  -0.101756  -0.001585  4.004447  0.001  -0.115546  -0.001108  4.025478  0.0  -0.016614  -0.093801  -0.003218  3.991958  0.0
C  C16  1  0.28850188  0.15451246  0.94809008  1  -0.101792  -0.001585  4.004577  0.001  -0.115585  -0.0011  4.025618  0.0  -0.016612  -0.093837  -0.003217  3.992087  0.0
C  C17  1  0.60612095  0.70271984  0.93502783  1  0.086005  0.001705  3.911194  0.002  0.09588  0.002807  3.927018  0.002  0.055512  0.078685  0.000558  3.901372  0.001
C  C18  1  0.39388054  0.29727595  0.06497280  1  0.085977  0.001706  3.911214  0.002  0.095852  0.002804  3.927043  0.002  0.055461  0.078657  0.00056  3.901396  0.001
C  C19  1  0.77495382  0.01413246  0.02502835  1  -0.033878  0.001319  3.940463  0.001  -0.025504  0.003217  3.954594  0.003  -0.060045  -0.039162  -0.000487  3.93161  0.0
C  C20  1  0.22504452  0.98586195  0.97496549  1  -0.033819  0.001319  3.940364  0.001  -0.025455  0.003209  3.954489  0.003  -0.06002  -0.039109  -0.000489  3.931519  0.0
C  C21  1  0.72858697  0.03212936  0.88490482  1  -0.122645  0.000798  3.972974  0.001  -0.131434  -0.000542  3.992148  0.0  -0.080464  -0.118266  0.000246  3.962639  0.001
C  C22  1  0.27141730  0.96786503  0.11509374  1  -0.122608  0.000798  3.972915  0.001  -0.131398  -0.000533  3.992096  0.0  -0.080457  -0.118229  0.000246  3.962579  0.001
N  N23  1  0.87386709  0.73988116  0.53220741  1  -0.473958  0.039441  3.094374  0.016  -0.506824  0.035082  3.101737  0.014  -0.24447  -0.449639  0.04178  3.088669  0.017
N  N24  1  0.12613067  0.26011878  0.46779573  1  -0.473995  0.039435  3.094371  0.016  -0.506866  0.035077  3.101747  0.014  -0.244492  -0.449678  0.041774  3.088674  0.017
N  N25  1  0.08664765  0.61504751  0.68563267  1  -0.391893  0.038856  2.832802  0.019  -0.414711  0.033778  2.843523  0.016  -0.185531  -0.373419  0.043774  2.825152  0.024
N  N26  1  0.91335415  0.38495788  0.31437399  1  -0.391978  0.038852  2.832611  0.019  -0.414796  0.033771  2.843327  0.016  -0.185571  -0.3735  0.04377  2.82496  0.024
N  N27  1  0.69075890  0.24610586  0.55027734  1  0.450975  -0.002343  4.369969  0.002  0.47091  -0.008027  4.39716  -0.002  0.103264  0.435902  0.002562  4.348849  0.006
N  N28  1  0.30923693  0.75389957  0.44972666  1  0.450914  -0.002369  4.369512  0.002  0.470853  -0.008054  4.396696  -0.002  0.103246  0.435837  0.002536  4.348404  0.006
N  N29  1  0.60986096  0.37516346  0.53976508  1  -0.548656  -0.016055  3.175614  -0.038  -0.572098  -0.037339  3.171246  -0.054  -0.292736  -0.525744  0.004332  3.177802  -0.022
N  N30  1  0.39014387  0.62482685  0.46024003  1  -0.548681  -0.016133  3.175513  -0.038  -0.572115  -0.03744  3.171133  -0.054  -0.292776  -0.525751  0.004275  3.177663  -0.022
N  N31  1  0.76635167  0.11802270  0.55854576  1  -0.370985  0.09498  3.113762  0.095  -0.377702  0.106011  3.107267  0.106  -0.225346  -0.366695  0.088315  3.115273  0.085
N  N32  1  0.23364061  0.88199508  0.44145818  1  -0.37111  0.09505  3.113839  0.095  -0.377808  0.106106  3.107327  0.107  -0.225474  -0.366833  0.088363  3.115359  0.085
N  N33  1  0.55843376  0.72033066  0.79991812  1  -0.256903  0.030735  3.519115  0.015  -0.278909  0.026984  3.533815  0.012  -0.318308  -0.239995  0.03336  3.509246  0.018
N  N34  1  0.44156910  0.27967196  0.20008291  1  -0.256819  0.030733  3.519009  0.015  -0.278825  0.026985  3.533706  0.012  -0.318217  -0.23991  0.033358  3.509136  0.018
N  N35  1  0.98360115  0.67830934  0.60963196  1  0.438284  0.022322  4.426314  0.026  0.456739  0.017569  4.464884  0.021  0.10903  0.424778  0.027255  4.398835  0.031
N  N36  1  0.01639861  0.32169334  0.39037398  1  0.438435  0.022318  4.426098  0.026  0.456891  0.017567  4.464662  0.021  0.109106  0.424928  0.02725  4.39862  0.031
O  O37  1  0.65523684  0.66971884  0.21898793  1  -0.559357  0.039309  2.366427  0.023  -0.592245  0.036256  2.349964  0.019  -0.308234  -0.532337  0.043408  2.376348  0.028
O  O38  1  0.34476073  0.33027971  0.78101078  1  -0.559322  0.039309  2.366508  0.023  -0.592203  0.036259  2.350042  0.019  -0.308243  -0.532302  0.043407  2.376428  0.028
O  O39  1  0.87150845  0.94215260  0.29619233  1  -0.517514  0.020763  2.504467  0.017  -0.560359  0.017258  2.499607  0.013  -0.288422  -0.487652  0.021989  2.504205  0.018
O  O40  1  0.12848920  0.05785418  0.70380900  1  -0.517454  0.02076  2.504576  0.017  -0.560295  0.017256  2.499714  0.013  -0.288395  -0.487592  0.021986  2.504313  0.018
