# generated using pymatgen
data_Zn2H18C47(N6O7)2
_symmetry_space_group_name_H-M   'P 1'
_cell_length_a   12.48378846
_cell_length_b   13.55167096
_cell_length_c   19.11195633
_cell_angle_alpha   88.76055030
_cell_angle_beta   74.37319168
_cell_angle_gamma   80.20836177
_symmetry_Int_Tables_number   1
_chemical_formula_structural   Zn2H18C47(N6O7)2
_chemical_formula_sum   'Zn2 H18 C47 N12 O14'
_cell_volume   3067.41946915
_cell_formula_units_Z   1
loop_
 _symmetry_equiv_pos_site_id
 _symmetry_equiv_pos_as_xyz
  1  'x, y, z'
loop_
 _atom_site_type_symbol
 _atom_site_label
 _atom_site_symmetry_multiplicity
 _atom_site_fract_x
 _atom_site_fract_y
 _atom_site_fract_z
 _atom_site_occupancy
 _atom_site_pbe_bader_charge
 _atom_site_pbe_bader_spin_density
 _atom_site_pbe_cm5_charge
 _atom_site_pbe_ddec_charge
 _atom_site_pbe_ddec_spin_density
 _atom_site_pbe_ddec_sum_bond_order
 _atom_site_pbe_magmom
Zn  Zn0  1  0.61146022  0.51267405  0.48462661  1  1.289964  0  0.675395  0.829589  0  2.409838  0
Zn  Zn1  1  0.38098385  0.49398705  0.52377189  1  1.306538  0  0.675545  0.831198  0  2.423882  0
H  H2  1  0.64314323  0.57690037  0.69543935  1  0.089203  0  0.10568  0.114219  0  1.001909  0
H  H3  1  0.62760510  0.61513938  0.82583307  1  0.106616  0  0.109391  0.1098  0  1.002836  0
H  H4  1  0.30562473  0.51596115  0.88878774  1  0.105189  0  0.107169  0.105213  0  1.013079  0
H  H5  1  0.32015445  0.48253983  0.75780502  1  0.07009  0  0.104961  0.109218  0  0.996016  0
H  H6  1  0.61539765  0.64344452  0.13597853  1  0.117584  0  0.116746  0.118118  0  0.992804  0
H  H7  1  0.63463041  0.60584829  0.26134043  1  0.122242  0  0.112646  0.12267  0  0.999596  0
H  H8  1  0.33623006  0.48191380  0.17727651  1  0.149261  0  0.120758  0.131794  0  0.995011  0
H  H9  1  0.23612210  0.80731030  0.48241545  1  0.091234  0  0.104899  0.107352  0  1.009769  0
H  H10  1  0.28879590  0.14239056  0.43101867  1  0.070816  0  0.109998  0.111874  0  0.983655  0
H  H11  1  0.21297706  0.98913160  0.45372358  1  0.064629  0  0.10972  0.111889  0  0.98565  0
H  H12  1  0.55475750  0.81890576  0.51945370  1  0.095767  0  0.105909  0.102353  0  1.065844  0
H  H13  1  0.74348969  0.21365845  0.53784640  1  0.132974  0  0.115162  0.131909  0  1.002808  0
H  H14  1  0.42629981  0.24669069  0.44079589  1  0.11695  0  0.106749  0.125607  0  1.021428  0
H  H15  1  0.92121414  0.72954992  0.37758656  1  0.127165  0  0.1333  0.150837  0  0.964596  0
H  H16  1  0.80855531  0.44827171  0.52962272  1  0.136529  0  0.132891  0.102765  0  1.020687  0
H  H17  1  0.27126775  0.33922199  0.60248482  1  0.144272  0  0.140466  0.117285  0  0.957675  0
H  H18  1  0.07818469  0.28996781  0.64357599  1  0.131741  0  0.140189  0.159001  0  0.943215  0
H  H19  1  0.25356636  0.59662275  0.44907200  1  0.210565  0  0.126854  0.151005  0  1.034337  0
C  C20  1  0.56887457  0.31089375  0.49835769  1  1.573376  0  0.222641  0.608214  0  4.151187  0
C  C21  1  0.48924024  0.50961995  0.64108537  1  1.557039  0  0.219023  0.599286  0  4.154007  0
C  C22  1  0.42308785  0.69513837  0.51000192  1  1.568687  0  0.220557  0.602869  0  4.145481  0
C  C23  1  0.50779421  0.50679299  0.36522147  1  1.615069  0  0.22155  0.603797  0  4.169408  0
C  C24  1  0.56956181  0.56443864  0.73828190  1  -0.078197  0  -0.077478  -0.079532  0  3.949749  0
C  C25  1  0.56108915  0.58522106  0.81067365  1  -0.011009  0  -0.076438  -0.098909  0  3.943385  0
C  C26  1  0.46550654  0.56806434  0.86527226  1  0.007814  0  -0.00341  0.016261  0  3.998993  0
C  C27  1  0.37902112  0.52952211  0.84616463  1  -0.015153  0  -0.079412  -0.103054  0  3.962043  0
C  C28  1  0.38720440  0.51062072  0.77365416  1  -0.044438  0  -0.080804  -0.088035  0  3.976124  0
C  C29  1  0.48239861  0.52785418  0.71925735  1  0.051036  0  -0.008367  -0.01615  0  3.941879  0
C  C30  1  0.46076296  0.58694343  0.07570640  1  0.985498  0  0.239838  0.24049  0  3.999821  0
C  C31  1  0.45624685  0.58851210  0.94178100  1  0.943727  0  0.243593  0.24971  0  3.986826  0
C  C32  1  0.56005833  0.59887284  0.17209919  1  0.030495  0  -0.066215  -0.09083  0  3.913807  0
C  C33  1  0.57179208  0.57690304  0.24138259  1  -0.006335  0  -0.065556  -0.06082  0  3.925282  0
C  C34  1  0.50088618  0.51989272  0.28839391  1  0.02158  0  0.000395  -0.060515  0  3.916143  0
C  C35  1  0.41761397  0.48582926  0.26305779  1  0.188264  0  0.086055  0.062087  0  3.929314  0
C  C36  1  0.40253740  0.50845301  0.19495442  1  0.011842  0  -0.069552  -0.156309  0  3.926086  0
C  C37  1  0.47483595  0.56531961  0.14855438  1  -0.04868  0  0.007049  0.045782  0  3.980515  0
C  C38  1  0.28636517  0.95268198  0.47082338  1  0.030853  0  -0.080376  -0.123521  0  3.96661  0
C  C39  1  0.39890047  0.80583658  0.50249820  1  0.015973  0  -0.013349  -0.022167  0  3.972004  0
C  C40  1  0.68874414  0.16297032  0.52966555  1  -0.059617  0  -0.06476  -0.108578  0  3.923249  0
C  C41  1  0.70907675  0.06171011  0.54823754  1  0.122445  0  0.008428  0.013528  0  4.097099  0
C  C42  1  0.63427668  0.99896638  0.54085234  1  0.199835  0  0.095584  0.006719  0  3.871473  0
C  C43  1  0.54211135  0.03006855  0.51103850  1  0.055841  0  0.01058  -0.006003  0  3.900139  0
C  C44  1  0.52419078  0.13390663  0.49203326  1  -0.021882  0  0.012382  0.08189  0  3.929573  0
C  C45  1  0.46465979  0.96606242  0.49993027  1  0.013792  0  -0.000972  0.036032  0  3.928516  0
C  C46  1  0.36813786  0.01056073  0.47626682  1  -0.020568  0  0.001103  0.084799  0  4.001315  0
C  C47  1  0.35778888  0.11230401  0.45455355  1  -0.018771  0  -0.078506  -0.112105  0  3.997248  0
C  C48  1  0.43400330  0.17059501  0.46017358  1  -0.019897  0  -0.089708  -0.127524  0  3.986195  0
C  C49  1  0.47942001  0.86171154  0.50894974  1  -0.019833  0  -0.082035  -0.130035  0  3.942372  0
C  C50  1  0.29928902  0.85204143  0.48577174  1  -0.084448  0  -0.076163  -0.073956  0  3.971572  0
C  C51  1  0.59599649  0.19913164  0.50453910  1  0.079136  0  -0.00253  -0.056214  0  3.918017  0
C  C52  1  0.89977094  0.66689595  0.41214610  1  0.083045  0  -0.045183  -0.160859  0  3.855183  0
C  C53  1  0.20072853  0.37802444  0.58349720  1  0.524777  0  0.085737  0.14495  0  3.889983  0
C  C54  1  0.09394513  0.35036078  0.60567438  1  0.139712  0  -0.058216  -0.165817  0  3.921934  0
C  C55  1  0.00831303  0.40360846  0.57998276  1  0.140368  0  0.109753  0.080543  0  3.917225  0
C  C56  1  0.02728593  0.47958945  0.52838877  1  0.019393  0  0.023426  -0.032847  0  3.898486  0
C  C57  1  0.13887495  0.50312963  0.51062709  1  0.503751  0  0.139954  0.230583  0  3.924022  0
C  C58  1  0.94704075  0.53394135  0.49260328  1  0.054929  0  0.016101  0.011384  0  3.924512  0
C  C59  1  0.97816988  0.61368657  0.44581280  1  0.003073  0  0.032034  0.088785  0  3.955208  0
C  C60  1  0.09019461  0.63667715  0.43167986  1  0.143508  0  0.029022  0.049651  0  4.030931  0
C  C61  1  0.16792236  0.58141904  0.46185037  1  0.043374  0  -0.041126  -0.128433  0  3.834218  0
C  C62  1  0.83913791  0.51035311  0.49809434  1  0.555235  0  0.078209  0.085589  0  3.850581  0
C  C63  1  0.79543528  0.63842257  0.42232758  1  0.554917  0  0.151282  0.22237  0  4.031168  0
C  C64  1  0.80275934  0.02706997  0.57680840  1  0.828977  0  0.169802  0.236616  0  4.034937  0
C  C65  1  0.71818474  0.69287736  0.38606248  1  0.879633  0  0.196525  0.216665  0  3.955625  0
C  C66  1  0.12168439  0.71527932  0.38374492  1  0.806325  0  0.189614  0.235323  0  3.994788  0
N  N67  1  0.36294361  0.57060907  0.99271785  1  -0.548495  0  -0.152248  -0.143273  0  3.214367  0
N  N68  1  0.36512161  0.56990740  0.06111958  1  -0.5759  0  -0.157071  -0.149614  0  3.22058  0
N  N69  1  0.53805917  0.63124685  0.02784320  1  -0.545833  0  -0.152773  -0.145882  0  3.214341  0
N  N70  1  0.53544646  0.63287432  0.95938493  1  -0.551991  0  -0.153677  -0.147136  0  3.195545  0
N  N71  1  0.76676704  0.55928168  0.46417908  1  -1.201692  0  -0.297688  -0.212734  0  3.453198  0
N  N72  1  0.22151087  0.45381278  0.53929160  1  -1.211664  0  -0.299865  -0.227839  0  3.42721  0
N  N73  1  0.65565268  0.89824610  0.57123374  1  0.414753  0  0.059201  0.514607  0  4.241324  0
N  N74  1  0.88086718  0.00145141  0.59951209  1  -1.097043  0  -0.314642  -0.35351  0  2.664236  0
N  N75  1  0.66417755  0.74193009  0.35277876  1  -1.062462  0  -0.272215  -0.295951  0  2.678949  0
N  N76  1  0.14597825  0.78046663  0.34492657  1  -1.077113  0  -0.283813  -0.319332  0  2.647741  0
N  N77  1  0.89460168  0.37959431  0.61360134  1  0.374547  0  0.061451  0.493857  0  4.249006  0
N  N78  1  0.34369300  0.41976339  0.30691226  1  0.403012  0  0.060167  0.529622  0  4.218073  0
O  O79  1  0.65072761  0.35862700  0.47764699  1  -1.149417  0  -0.314578  -0.531323  0  2.274435  0
O  O80  1  0.46456639  0.34903348  0.51810237  1  -1.171759  0  -0.310419  -0.559612  0  2.394661  0
O  O81  1  0.58602648  0.50195348  0.59557784  1  -1.177093  0  -0.3185  -0.552975  0  2.330741  0
O  O82  1  0.39644856  0.50432091  0.62623050  1  -1.155102  0  -0.322184  -0.551768  0  2.317082  0
O  O83  1  0.52509507  0.65582480  0.50485419  1  -1.180273  0  -0.31174  -0.55144  0  2.384385  0
O  O84  1  0.34104401  0.64692409  0.51992913  1  -1.172637  0  -0.315914  -0.544145  0  2.326565  0
O  O85  1  0.60015258  0.51418178  0.37868609  1  -1.148806  0  -0.306359  -0.527557  0  2.308714  0
O  O86  1  0.41709654  0.49311666  0.41142885  1  -1.186683  0  -0.313847  -0.562115  0  2.396424  0
O  O87  1  0.59438850  0.88413592  0.63168398  1  -0.408412  0  -0.106404  -0.289831  0  1.857422  0
O  O88  1  0.73541705  0.83691086  0.53469554  1  -0.453847  0  -0.127217  -0.331895  0  1.908698  0
O  O89  1  0.83156680  0.44066120  0.65990158  1  -0.389885  0  -0.08849  -0.276916  0  1.896837  0
O  O90  1  0.87390218  0.30010428  0.59427911  1  -0.408163  0  -0.098897  -0.289422  0  1.888208  0
O  O91  1  0.38935397  0.33725630  0.32262126  1  -0.4401  0  -0.123843  -0.318938  0  1.89753  0
O  O92  1  0.24040877  0.45032902  0.32217191  1  -0.461764  0  -0.142946  -0.350286  0  1.896559  0
