# generated using pymatgen
data_Cu3H12C15N7
_symmetry_space_group_name_H-M   'P 1'
_cell_length_a   23.57534990
_cell_length_b   23.59065042
_cell_length_c   23.62360866
_cell_angle_alpha   89.92320162
_cell_angle_beta   90.05039916
_cell_angle_gamma   90.01038198
_symmetry_Int_Tables_number   1
_chemical_formula_structural   Cu3H12C15N7
_chemical_formula_sum   'Cu12 H48 C60 N28'
_cell_volume   13138.43801714
_cell_formula_units_Z   4
loop_
 _symmetry_equiv_pos_site_id
 _symmetry_equiv_pos_as_xyz
  1  'x, y, z'
loop_
 _atom_site_type_symbol
 _atom_site_label
 _atom_site_symmetry_multiplicity
 _atom_site_fract_x
 _atom_site_fract_y
 _atom_site_fract_z
 _atom_site_occupancy
 _atom_site_pbe_bader_charge
 _atom_site_pbe_bader_spin_density
 _atom_site_pbe_cm5_charge
 _atom_site_pbe_ddec_charge
 _atom_site_pbe_ddec_spin_density
 _atom_site_pbe_ddec_sum_bond_order
 _atom_site_pbe_magmom
Cu  Cu0  1  0.18165060  0.87332432  0.07377729  1  0.54154  0  0.47893  0.203213  0  2.101099  0
Cu  Cu1  1  0.06632850  0.82320933  0.12778229  1  0.538517  0  0.480476  0.201456  0  2.118096  0
Cu  Cu2  1  0.12680766  0.92664387  0.18408006  1  0.53815  0  0.483479  0.199014  0  2.143475  0
Cu  Cu3  1  0.67736878  0.12796447  0.43289764  1  0.537044  0  0.483048  0.198833  0  2.143388  0
Cu  Cu4  1  0.57089236  0.18477019  0.37803422  1  0.540493  0  0.481689  0.200822  0  2.124014  0
Cu  Cu5  1  0.62772300  0.07467479  0.32044759  1  0.539158  0  0.479048  0.202996  0  2.102959  0
Cu  Cu6  1  0.31959973  0.37282659  0.93079560  1  0.537138  0  0.482291  0.198272  0  2.140272  0
Cu  Cu7  1  0.42720311  0.31722736  0.87746931  1  0.540553  0  0.481971  0.201112  0  2.124324  0
Cu  Cu8  1  0.37123440  0.42842073  0.82036753  1  0.541445  0  0.479145  0.20277  0  2.103949  0
Cu  Cu9  1  0.81880130  0.62630265  0.57161445  1  0.542748  0  0.478954  0.203227  0  2.101389  0
Cu  Cu10  1  0.93248109  0.67815505  0.62685508  1  0.541001  0  0.481353  0.201231  0  2.123992  0
Cu  Cu11  1  0.87900611  0.56814346  0.67708321  1  0.536412  0  0.482362  0.199111  0  2.13789  0
H  H12  1  0.19486176  0.79130715  0.96776298  1  0.084139  0  0.117218  0.109012  0  0.995563  0
H  H13  1  0.03531714  0.73171372  0.03633321  1  0.055119  0  0.117997  0.111647  0  0.989885  0
H  H14  1  0.22132393  0.01457852  0.21850621  1  0.086117  0  0.118639  0.112264  0  0.988169  0
H  H15  1  0.28972355  0.95499745  0.05921499  1  0.113142  0  0.11727  0.108938  0  0.995369  0
H  H16  1  0.95944855  0.80792348  0.21117437  1  0.087145  0  0.11725  0.109721  0  0.995027  0
H  H17  1  0.03492890  0.96248227  0.27536988  1  0.103264  0  0.118468  0.111585  0  0.989328  0
H  H18  1  0.71208445  0.22199104  0.52253554  1  0.098113  0  0.118368  0.111933  0  0.988548  0
H  H19  1  0.55261094  0.29036272  0.46198182  1  0.088256  0  0.117469  0.109771  0  0.994898  0
H  H20  1  0.71150386  0.96851463  0.30559062  1  0.099036  0  0.117074  0.109179  0  0.99598  0
H  H21  1  0.76367868  0.03220031  0.46947221  1  0.084139  0  0.11858  0.111874  0  0.988643  0
H  H22  1  0.47506004  0.21134734  0.28951032  1  0.056384  0  0.118064  0.111416  0  0.990447  0
H  H23  1  0.54820469  0.06197092  0.21223713  1  0.1009  0  0.116979  0.108804  0  0.996634  0
H  H24  1  0.28438738  0.27797618  0.01961572  1  0.093294  0  0.118366  0.112076  0  0.989849  0
H  H25  1  0.44569870  0.21174910  0.96202612  1  0.078742  0  0.116941  0.108727  0  0.995038  0
H  H26  1  0.28876765  0.53581348  0.80648740  1  0.076655  0  0.117388  0.109492  0  0.995944  0
H  H27  1  0.23266180  0.46783986  0.96741428  1  0.095705  0  0.118503  0.111887  0  0.990031  0
H  H28  1  0.52293882  0.29091484  0.78916283  1  0.086848  0  0.118272  0.112003  0  0.98998  0
H  H29  1  0.45138090  0.44184192  0.71290992  1  0.085287  0  0.117052  0.109821  0  0.996781  0
H  H30  1  0.80468429  0.70897266  0.46574475  1  0.082457  0  0.117279  0.109603  0  0.996066  0
H  H31  1  0.96167236  0.77198743  0.53720058  1  0.100085  0  0.118375  0.111617  0  0.989635  0
H  H32  1  0.78697308  0.47734217  0.71089485  1  0.102316  0  0.118465  0.11224  0  0.989864  0
H  H33  1  0.70814206  0.54795449  0.56091497  1  0.080495  0  0.11672  0.108572  0  0.996468  0
H  H34  1  0.03535026  0.69806204  0.71430491  1  0.087653  0  0.117264  0.109185  0  0.994225  0
H  H35  1  0.97464041  0.53236256  0.76540015  1  0.106967  0  0.118692  0.111868  0  0.988755  0
H  H36  1  0.19407476  0.68234858  0.92266163  1  0.082471  0  0.109856  0.087716  0  1.003557  0
H  H37  1  0.06322854  0.69121947  0.92488797  1  0.053778  0  0.099483  0.107702  0  1.009805  0
H  H38  1  0.55344444  0.33501476  0.57186546  1  0.081023  0  0.109735  0.08758  0  1.003711  0
H  H39  1  0.68419424  0.33419693  0.56148458  1  0.051292  0  0.09952  0.107852  0  1.010754  0
H  H40  1  0.44410209  0.16788959  0.07181171  1  0.078527  0  0.10998  0.088144  0  1.003742  0
H  H41  1  0.31346904  0.16638615  0.06000262  1  0.066315  0  0.099535  0.10809  0  1.010185  0
H  H42  1  0.80382791  0.81969589  0.42123510  1  0.09879  0  0.109966  0.088343  0  1.003368  0
H  H43  1  0.93468244  0.81189521  0.42516757  1  0.047562  0  0.099838  0.107877  0  1.008749  0
H  H44  1  0.33353776  0.06499594  0.05954583  1  0.09893  0  0.109957  0.087919  0  1.004144  0
H  H45  1  0.33284399  0.05553766  0.19012141  1  0.082885  0  0.099447  0.107564  0  1.011121  0
H  H46  1  0.66494493  0.43629369  0.55866405  1  0.08395  0  0.109447  0.087065  0  1.003677  0
H  H47  1  0.67012504  0.44313387  0.68924510  1  0.060147  0  0.09965  0.108327  0  1.008917  0
H  H48  1  0.81847566  0.92174534  0.31010984  1  0.057566  0  0.109976  0.088036  0  1.004212  0
H  H49  1  0.80571211  0.92168127  0.44040771  1  0.043326  0  0.099458  0.107923  0  1.010365  0
H  H50  1  0.18231409  0.58308152  0.80979158  1  0.09714  0  0.109774  0.087752  0  1.004824  0
H  H51  1  0.19167938  0.57926135  0.94032268  1  0.051691  0  0.099859  0.108141  0  1.008701  0
H  H52  1  0.91653458  0.80763592  0.32229014  1  0.104959  0  0.109445  0.087456  0  1.003821  0
H  H53  1  0.92077056  0.93835573  0.31340041  1  0.073268  0  0.099699  0.107862  0  1.009748  0
H  H54  1  0.56505143  0.44724004  0.67169349  1  0.079393  0  0.109725  0.08796  0  1.00277  0
H  H55  1  0.55899328  0.31633654  0.67418482  1  0.053278  0  0.099608  0.108065  0  1.009688  0
H  H56  1  0.08136741  0.69460154  0.82277089  1  0.076472  0  0.110316  0.088983  0  1.003467  0
H  H57  1  0.08217040  0.56410151  0.81039795  1  0.064587  0  0.09932  0.106845  0  1.011323  0
H  H58  1  0.43553154  0.05529611  0.17108346  1  0.074067  0  0.109714  0.087911  0  1.003005  0
H  H59  1  0.43855693  0.18627676  0.17451861  1  0.059521  0  0.099894  0.108227  0  1.008541  0
C  C60  1  0.15716260  0.78241183  0.99259461  1  0.423557  0  -0.000295  -0.067213  0  3.950654  0
C  C61  1  0.11311771  0.74353122  0.98214197  1  -0.007357  0  -0.042394  0.029011  0  4.13799  0
C  C62  1  0.07521338  0.75275123  0.02710091  1  0.454826  0  1.3e-05  -0.066752  0  3.95825  0
C  C63  1  0.23055005  0.99351740  0.17872385  1  0.394566  0  -0.000271  -0.066164  0  3.955084  0
C  C64  1  0.27555902  0.00266501  0.14078951  1  0.020167  0  -0.042054  0.027123  0  4.140078  0
C  C65  1  0.26491074  0.96388361  0.09684139  1  0.380341  0  0.000196  -0.065535  0  3.95129  0
C  C66  1  0.98594179  0.84419575  0.22119665  1  0.413516  0  -0.000458  -0.068316  0  3.953275  0
C  C67  1  0.97724135  0.88754920  0.26112848  1  0.023597  0  -0.042509  0.027485  0  4.140842  0
C  C68  1  0.02396540  0.92372428  0.25318760  1  0.375771  0  0.000645  -0.064919  0  3.9565  0
C  C69  1  0.67224604  0.23111028  0.50132987  1  0.405241  0  0.001  -0.06575  0  3.957696  0
C  C70  1  0.63432449  0.27625607  0.50996612  1  0.020993  0  -0.042188  0.029722  0  4.141811  0
C  C71  1  0.59026129  0.26552656  0.47121941  1  0.390394  0  -0.000306  -0.067627  0  3.952947  0
C  C72  1  0.71869944  0.99221974  0.34428541  1  0.354  0  -0.000372  -0.066783  0  3.952672  0
C  C73  1  0.75528177  0.98017514  0.38986383  1  0.051773  0  -0.042163  0.027816  0  4.143353  0
C  C74  1  0.74459001  0.02424090  0.42840335  1  0.402226  0  0.000389  -0.064867  0  3.955936  0
C  C75  1  0.49955244  0.17413380  0.27805329  1  0.439371  0  3.2e-05  -0.066692  0  3.959427  0
C  C76  1  0.49349351  0.13812282  0.23108558  1  0.035952  0  -0.042324  0.027836  0  4.140607  0
C  C77  1  0.53614561  0.09720824  0.23916536  1  0.376171  0  -0.001272  -0.06814  0  3.956685  0
C  C78  1  0.32464887  0.26935546  0.99911382  1  0.420295  0  0.000512  -0.066277  0  3.959429  0
C  C79  1  0.36308672  0.22479308  0.00866326  1  -0.001519  0  -0.042129  0.028576  0  4.140931  0
C  C80  1  0.40753207  0.23604201  0.97051760  1  0.383534  0  0.000139  -0.066074  0  3.94944  0
C  C81  1  0.28058898  0.51108687  0.84439134  1  0.393602  0  -0.000353  -0.066812  0  3.953911  0
C  C82  1  0.24321486  0.52213670  0.88947743  1  0.042839  0  -0.042631  0.027153  0  4.14317  0
C  C83  1  0.25267422  0.47683119  0.92701885  1  0.381839  0  7e-06  -0.066618  0  3.959386  0
C  C84  1  0.49882664  0.32849594  0.77795345  1  0.417083  0  -0.000376  -0.068012  0  3.959649  0
C  C85  1  0.50529102  0.36490986  0.73126727  1  0.004484  0  -0.042526  0.030279  0  4.13835  0
C  C86  1  0.46308741  0.40620209  0.73958588  1  0.386499  0  -0.00102  -0.070397  0  3.9566  0
C  C87  1  0.84174736  0.71863240  0.49125964  1  0.386715  0  -0.00057  -0.068753  0  3.954223  0
C  C88  1  0.88498180  0.75861293  0.48167513  1  0.033332  0  -0.042073  0.028551  0  4.140404  0
C  C89  1  0.92245298  0.75003824  0.52720719  1  0.391919  0  0.000351  -0.065667  0  3.958625  0
C  C90  1  0.77528112  0.50099927  0.67320669  1  0.406433  0  -0.000135  -0.067536  0  3.95864  0
C  C91  1  0.72715146  0.49533135  0.63851888  1  -0.020016  0  -0.04202  0.029302  0  4.137303  0
C  C92  1  0.73556464  0.53625970  0.59596491  1  0.424179  0  -0.0  -0.066684  0  3.954463  0
C  C93  1  0.01250728  0.65866596  0.72105426  1  0.407003  0  0.000512  -0.065196  0  3.94905  0
C  C94  1  0.02464197  0.61354324  0.75819719  1  0.014398  0  -0.042457  0.027597  0  4.141226  0
C  C95  1  0.98195871  0.57362771  0.74638318  1  0.373513  0  0.001423  -0.06388  0  3.956233  0
C  C96  1  0.15000740  0.67771255  0.90907028  1  0.281428  0  -0.000936  -0.036115  0  4.038145  0
C  C97  1  0.10653581  0.70291162  0.93665389  1  0.012507  0  -0.11632  -0.201346  0  4.094981  0
C  C98  1  0.59741294  0.34905168  0.57598764  1  0.25927  0  -0.000349  -0.03452  0  4.038328  0
C  C99  1  0.64089031  0.32197667  0.55027990  1  0.037522  0  -0.11678  -0.202958  0  4.097437  0
C  C100  1  0.40041111  0.15296563  0.07567087  1  0.258512  0  -0.000319  -0.035125  0  4.041207  0
C  C101  1  0.35671394  0.17915575  0.04925933  1  0.062055  0  -0.118029  -0.204249  0  4.097898  0
C  C102  1  0.84807164  0.82466420  0.40839836  1  0.279441  0  -0.00089  -0.037067  0  4.037087  0
C  C103  1  0.89141397  0.79960594  0.43642445  1  0.010253  0  -0.115492  -0.198478  0  4.092897  0
C  C104  1  0.34744415  0.06976862  0.10342369  1  0.313434  0  -0.000133  -0.035832  0  4.038257  0
C  C105  1  0.32081312  0.04374814  0.14700855  1  -0.061243  0  -0.116403  -0.199683  0  4.094434  0
C  C106  1  0.65212813  0.43110439  0.60281186  1  0.263936  0  0.000179  -0.03386  0  4.03811  0
C  C107  1  0.68097257  0.45540163  0.64593600  1  0.021794  0  -0.115706  -0.200995  0  4.091327  0
C  C108  1  0.82186022  0.90733113  0.35394468  1  0.318745  0  -0.000598  -0.035393  0  4.038643  0
C  C109  1  0.79541715  0.93424652  0.39703833  1  0.009786  0  -0.117595  -0.203086  0  4.097127  0
C  C110  1  0.17772666  0.59619529  0.85389132  1  0.280076  0  -0.00014  -0.03608  0  4.03907  0
C  C111  1  0.20312301  0.56803440  0.89691298  1  0.012881  0  -0.116657  -0.200113  0  4.094217  0
C  C112  1  0.90350727  0.85182977  0.32692058  1  0.287005  0  -0.000339  -0.035427  0  4.04095  0
C  C113  1  0.93178102  0.89490383  0.30170795  1  -0.029626  0  -0.11708  -0.201858  0  4.09576  0
C  C114  1  0.57048842  0.40330011  0.65819587  1  0.285531  0  -0.000121  -0.034968  0  4.039426  0
C  C115  1  0.54624380  0.35932152  0.68588993  1  0.037676  0  -0.116312  -0.201989  0  4.093031  0
C  C116  1  0.09569248  0.65072154  0.82650388  1  0.261606  0  -0.001037  -0.036895  0  4.036125  0
C  C117  1  0.06956146  0.60736411  0.79955418  1  0.032882  0  -0.11734  -0.20215  0  4.099093  0
C  C118  1  0.42896589  0.09921046  0.15785020  1  0.25624  0  -0.000594  -0.037186  0  4.03818  0
C  C119  1  0.45231432  0.14346270  0.18579398  1  0.018271  0  -0.114869  -0.198108  0  4.090706  0
N  N120  1  0.60448481  0.39669752  0.61027345  1  -1.276584  0  -0.263125  0.01551  0  3.851383  0
N  N121  1  0.14303297  0.64357224  0.86133431  1  -1.253116  0  -0.262084  0.018628  0  3.852595  0
N  N122  1  0.85580308  0.85939394  0.36107224  1  -1.268206  0  -0.261891  0.017866  0  3.853185  0
N  N123  1  0.39429611  0.10532605  0.11024100  1  -1.274614  0  -0.262566  0.017586  0  3.852853  0
N  N124  1  0.09541160  0.79342117  0.06176032  1  -0.788189  0  -0.339351  -0.141473  0  3.786354  0
N  N125  1  0.14615813  0.81215350  0.04016935  1  -0.773629  0  -0.33751  -0.140424  0  3.77207  0
N  N126  1  0.21708995  0.93430994  0.10785193  1  -0.765207  0  -0.337775  -0.141833  0  3.769768  0
N  N127  1  0.19564267  0.95303368  0.15851542  1  -0.771911  0  -0.341808  -0.140733  0  3.791353  0
N  N128  1  0.05794256  0.90313727  0.21222983  1  -0.790012  0  -0.342544  -0.14152  0  3.791785  0
N  N129  1  0.03424468  0.85397243  0.19206849  1  -0.758324  0  -0.338874  -0.140352  0  3.77057  0
N  N130  1  0.60126290  0.21753439  0.44213062  1  -0.768296  0  -0.339811  -0.141571  0  3.774051  0
N  N131  1  0.65196260  0.19605673  0.46111815  1  -0.779626  0  -0.342224  -0.140805  0  3.791397  0
N  N132  1  0.70530702  0.05991411  0.40708095  1  -0.769458  0  -0.342336  -0.142012  0  3.790935  0
N  N133  1  0.68891665  0.03990682  0.35500224  1  -0.769769  0  -0.3379  -0.141424  0  3.771055  0
N  N134  1  0.56508490  0.10814697  0.28731378  1  -0.763486  0  -0.336766  -0.139988  0  3.771333  0
N  N135  1  0.54204285  0.15571454  0.31160642  1  -0.776964  0  -0.339733  -0.139565  0  3.785289  0
N  N136  1  0.39624361  0.28377035  0.94094606  1  -0.769025  0  -0.339996  -0.142185  0  3.773035  0
N  N137  1  0.34496557  0.30456455  0.95898241  1  -0.784204  0  -0.342307  -0.14058  0  3.789268  0
N  N138  1  0.29204810  0.44141119  0.90560619  1  -0.787943  0  -0.340932  -0.13976  0  3.787612  0
N  N139  1  0.30970232  0.46281339  0.85447486  1  -0.769598  0  -0.337672  -0.141022  0  3.771272  0
N  N140  1  0.43401045  0.39507529  0.78759817  1  -0.765258  0  -0.336881  -0.139699  0  3.77183  0
N  N141  1  0.45652579  0.34701000  0.81156753  1  -0.777389  0  -0.339697  -0.139334  0  3.786437  0
N  N142  1  0.90272821  0.70869149  0.56138934  1  -0.779848  0  -0.339983  -0.141025  0  3.786791  0
N  N143  1  0.85278028  0.68885769  0.53890447  1  -0.771111  0  -0.336714  -0.139548  0  3.769976  0
N  N144  1  0.78499354  0.56385878  0.60476386  1  -0.773585  0  -0.337611  -0.141976  0  3.771601  0
N  N145  1  0.80977034  0.54163151  0.65250873  1  -0.767943  0  -0.340709  -0.139234  0  3.787793  0
N  N146  1  0.94693868  0.59372245  0.70595197  1  -0.772366  0  -0.342027  -0.142001  0  3.78694  0
N  N147  1  0.96603670  0.64635269  0.68995185  1  -0.772953  0  -0.340274  -0.142468  0  3.773276  0
