# generated using pymatgen
data_ZnH5C13Br2NO6
_symmetry_space_group_name_H-M   'P 1'
_cell_length_a   10.10125195
_cell_length_b   11.00093931
_cell_length_c   10.96856659
_cell_angle_alpha   74.62314358
_cell_angle_beta   89.64142586
_cell_angle_gamma   87.61345845
_symmetry_Int_Tables_number   1
_chemical_formula_structural   ZnH5C13Br2NO6
_chemical_formula_sum   'Zn2 H10 C26 Br4 N2 O12'
_cell_volume   1174.19691669
_cell_formula_units_Z   2
loop_
 _symmetry_equiv_pos_site_id
 _symmetry_equiv_pos_as_xyz
  1  'x, y, z'
loop_
 _atom_site_type_symbol
 _atom_site_label
 _atom_site_symmetry_multiplicity
 _atom_site_fract_x
 _atom_site_fract_y
 _atom_site_fract_z
 _atom_site_occupancy
 _atom_site_pbe_bader_charge
 _atom_site_pbe_bader_spin_density
 _atom_site_pbe_cm5_charge
 _atom_site_pbe_ddec_charge
 _atom_site_pbe_ddec_spin_density
 _atom_site_pbe_ddec_sum_bond_order
 _atom_site_pbe_magmom
Zn  Zn0  1  0.64187163  0.49388945  0.50051389  1  1.315983  0  0.671627  0.888876  0  2.310101  0
Zn  Zn1  1  0.35213431  0.50803387  0.49620023  1  1.292258  0  0.672908  0.834042  0  2.324816  0
H  H2  1  0.29869443  0.50734356  0.88328828  1  0.090147  0  0.110923  0.119313  0  0.985685  0
H  H3  1  0.29644072  0.52896408  0.10321149  1  0.119275  0  0.110959  0.122318  0  0.985922  0
H  H4  1  0.82232710  0.58508723  0.08289910  1  0.095208  0  0.100946  0.097325  0  1.002578  0
H  H5  1  0.82075585  0.39146353  0.92343340  1  0.062098  0  0.100947  0.093818  0  0.996384  0
H  H6  1  0.27256341  0.12214937  0.50851599  1  0.125523  0  0.110091  0.12438  0  0.997574  0
H  H7  1  0.27017164  0.89794071  0.49767428  1  0.109006  0  0.11142  0.121203  0  0.990824  0
H  H8  1  0.78781256  0.29487917  0.17117962  1  0.071152  0  0.094962  0.024306  0  0.977868  0
H  H9  1  0.79708205  0.68486907  0.83372486  1  0.066733  0  0.096526  0.027517  0  0.973427  0
H  H10  1  0.23499754  0.70323301  0.33909422  1  0.141499  0  0.116163  0.07618  0  1.011627  0
H  H11  1  0.25221443  0.34501726  0.69475846  1  0.147775  0  0.117554  0.079581  0  1.018259  0
C  C12  1  0.47721326  0.26446049  0.50915544  1  1.567362  0  0.215726  0.611147  0  4.13301  0
C  C13  1  0.47076132  0.73794465  0.49225144  1  1.575699  0  0.215061  0.61008  0  4.137028  0
C  C14  1  0.06380855  0.58475533  0.40080550  1  0.547924  0  0.125197  0.091124  0  3.887026  0
C  C15  1  0.07479516  0.40762098  0.57329957  1  0.593181  0  0.129598  0.101712  0  3.877754  0
C  C16  1  0.92430488  0.58072367  0.40223102  1  0.513  0  0.144507  0.205642  0  3.909297  0
C  C17  1  0.93505432  0.40647209  0.57395635  1  0.50627  0  0.145102  0.206316  0  3.896978  0
C  C18  1  0.51390572  0.48324396  0.73698224  1  1.562677  0  0.217679  0.604019  0  4.153467  0
C  C19  1  0.50794424  0.52234425  0.25994685  1  1.579261  0  0.217639  0.603242  0  4.159705  0
C  C20  1  0.62698257  0.49244098  0.93860805  1  -0.017251  0  -0.005156  0.027494  0  3.906771  0
C  C21  1  0.62585331  0.50598169  0.06084382  1  -0.095259  0  -0.005131  0.027618  0  3.906441  0
C  C22  1  0.51104367  0.49212389  0.87016470  1  0.029728  0  -0.008693  -0.058461  0  3.956661  0
C  C23  1  0.50850049  0.51781416  0.12535899  1  0.037541  0  -0.008395  -0.058745  0  3.953781  0
C  C24  1  0.39185075  0.50594459  0.93346458  1  -0.039074  0  -0.07263  -0.08472  0  3.938309  0
C  C25  1  0.39059198  0.51866773  0.05709639  1  -0.041733  0  -0.072199  -0.080755  0  3.929209  0
C  C26  1  0.77631286  0.49941029  0.07314421  1  -0.012231  0  -0.074439  -0.124254  0  3.812797  0
C  C27  1  0.77749021  0.48219475  0.93173165  1  0.000599  0  -0.073904  -0.120287  0  3.813697  0
C  C28  1  0.36457262  0.06863224  0.50369456  1  0.007138  0  -0.08014  -0.080249  0  3.961262  0
C  C29  1  0.36323997  0.94359664  0.50045330  1  -0.043058  0  -0.081195  -0.084123  0  3.971488  0
C  C30  1  0.48135150  0.87089071  0.50346211  1  0.05208  0  -0.016895  -0.062017  0  3.924373  0
C  C31  1  0.48423930  0.13005277  0.49961742  1  0.025565  0  -0.015021  -0.057896  0  3.913993  0
C  C32  1  0.60214949  0.92900376  0.50941193  1  -0.10959  0  -0.015783  0.044306  0  3.899867  0
C  C33  1  0.60346266  0.06029883  0.49416005  1  -0.022473  0  -0.015863  0.042713  0  3.904656  0
C  C34  1  0.83368167  0.38587747  0.17006222  1  0.951783  0  0.107516  0.331654  0  3.915029  0
C  C35  1  0.84109248  0.58905231  0.83761272  1  0.964692  0  0.107496  0.334737  0  3.909156  0
C  C36  1  0.14099167  0.67735571  0.30322176  1  0.99239  0  0.108017  0.257482  0  3.909033  0
C  C37  1  0.16219344  0.30882370  0.66190191  1  0.981817  0  0.105464  0.251666  0  3.914316  0
Br  Br38  1  0.76434993  0.83376524  0.55405435  1  -0.01256  0  0.035683  -0.045781  0  1.683953  0
Br  Br39  1  0.76680654  0.14026850  0.45157376  1  -0.006865  0  0.038287  -0.042101  0  1.690836  0
Br  Br40  1  0.82312805  0.70410912  0.28701331  1  0.12438  0  0.155012  0.083488  0  1.668488  0
Br  Br41  1  0.84831966  0.28589270  0.69630428  1  0.121557  0  0.157976  0.088104  0  1.669606  0
N  N42  1  0.86069493  0.49468775  0.49112083  1  -1.17713  0  -0.28561  -0.252599  0  3.426629  0
N  N43  1  0.13547130  0.50112070  0.49065084  1  -1.181262  0  -0.260769  -0.179414  0  3.394286  0
O  O44  1  0.57987350  0.30898036  0.54354735  1  -1.17056  0  -0.321822  -0.573924  0  2.448877  0
O  O45  1  0.57338073  0.68187138  0.46334867  1  -1.181794  0  -0.322759  -0.580386  0  2.472546  0
O  O46  1  0.36445582  0.32363335  0.48580332  1  -1.157173  0  -0.314178  -0.546147  0  2.317177  0
O  O47  1  0.35543062  0.69204615  0.50752852  1  -1.160097  0  -0.318512  -0.546077  0  2.302452  0
O  O48  1  0.62702303  0.49724188  0.68370636  1  -1.152272  0  -0.310705  -0.542097  0  2.383401  0
O  O49  1  0.61862893  0.49199431  0.31805587  1  -1.152222  0  -0.311997  -0.545984  0  2.387052  0
O  O50  1  0.40594271  0.46512775  0.68639227  1  -1.179452  0  -0.311743  -0.550475  0  2.360734  0
O  O51  1  0.39997378  0.55245913  0.30678173  1  -1.171375  0  -0.310502  -0.545514  0  2.351121  0
O  O52  1  0.92309204  0.38907301  0.24345289  1  -1.091958  0  -0.269201  -0.360113  0  2.134304  0
O  O53  1  0.93374407  0.57567459  0.76962268  1  -1.095948  0  -0.27349  -0.369761  0  2.126531  0
O  O54  1  0.10464643  0.71863112  0.19379354  1  -1.04985  0  -0.242865  -0.319319  0  2.143778  0
O  O55  1  0.13549629  0.19783880  0.69411336  1  -1.050112  0  -0.241393  -0.320206  0  2.153918  0
