# generated using pymatgen
data_ZnH10C11Br2N4O
_symmetry_space_group_name_H-M   'P 1'
_cell_length_a   8.36171149
_cell_length_b   10.05378244
_cell_length_c   16.62702586
_cell_angle_alpha   90.00023217
_cell_angle_beta   89.99965435
_cell_angle_gamma   103.97978704
_symmetry_Int_Tables_number   1
_chemical_formula_structural   ZnH10C11Br2N4O
_chemical_formula_sum   'Zn4 H40 C44 Br8 N16 O4'
_cell_volume   1356.38045641
_cell_formula_units_Z   4
loop_
 _symmetry_equiv_pos_site_id
 _symmetry_equiv_pos_as_xyz
  1  'x, y, z'
loop_
 _atom_site_type_symbol
 _atom_site_label
 _atom_site_symmetry_multiplicity
 _atom_site_fract_x
 _atom_site_fract_y
 _atom_site_fract_z
 _atom_site_occupancy
 _atom_site_hle17_bader_spin_density
 _atom_site_hle17_ddec_charge
 _atom_site_hle17_ddec_spin_density
 _atom_site_hle17_ddec_sum_bond_order
 _atom_site_hle17_magmom
 _atom_site_hse06_10hf_bader_spin_density
 _atom_site_hse06_10hf_ddec_charge
 _atom_site_hse06_10hf_ddec_spin_density
 _atom_site_hse06_10hf_ddec_sum_bond_order
 _atom_site_hse06_10hf_magmom
 _atom_site_hse06_bader_spin_density
 _atom_site_hse06_ddec_charge
 _atom_site_hse06_ddec_spin_density
 _atom_site_hse06_ddec_sum_bond_order
 _atom_site_hse06_magmom
 _atom_site_pbe_bader_spin_density
 _atom_site_pbe_cm5_charge
 _atom_site_pbe_ddec_charge
 _atom_site_pbe_ddec_spin_density
 _atom_site_pbe_ddec_sum_bond_order
 _atom_site_pbe_magmom
Zn  Zn0  1  0.79164083  0.73889282  0.10608663  1  0  0.766616  0  2.135151  0  0  0.592912  0  2.61064  0  0  0.633956  0  2.568457  0  0  0.520305  0.564989  0  2.639492  0
Zn  Zn1  1  0.70835675  0.26110668  0.60608539  1  0  0.766646  0  2.135171  0  0  0.592955  0  2.61065  0  0  0.633993  0  2.568474  0  0  0.520353  0.565032  0  2.639521  0
Zn  Zn2  1  0.20835850  0.26110428  0.89391453  1  0  0.766646  0  2.135215  0  0  0.592932  0  2.61069  0  0  0.633978  0  2.568507  0  0  0.520335  0.565021  0  2.639555  0
Zn  Zn3  1  0.29163959  0.73889246  0.39391517  1  0  0.766662  0  2.135122  0  0  0.59297  0  2.610606  0  0  0.634013  0  2.568429  0  0  0.520382  0.565081  0  2.639476  0
H  H4  1  0.26408788  0.24439474  0.25677462  1  0  0.322374  0  0.91591  0  0  0.300438  0  0.983991  0  0  0.309383  0  0.976614  0  0  0.303553  0.294085  0  0.989152  0
H  H5  1  0.23590748  0.75560753  0.75677572  1  0  0.322406  0  0.915862  0  0  0.300472  0  0.983947  0  0  0.309418  0  0.976569  0  0  0.303552  0.294117  0  0.989112  0
H  H6  1  0.73590966  0.75560441  0.74322533  1  0  0.322402  0  0.915924  0  0  0.300476  0  0.983992  0  0  0.309422  0  0.976612  0  0  0.303582  0.294127  0  0.989149  0
H  H7  1  0.76408736  0.24439469  0.24322544  1  0  0.322402  0  0.9159  0  0  0.300475  0  0.983975  0  0  0.309419  0  0.976598  0  0  0.303559  0.294123  0  0.989137  0
H  H8  1  0.11695373  0.08975886  0.37347142  1  0  0.115801  0  0.935745  0  0  0.128022  0  0.99413  0  0  0.131078  0  0.991543  0  0  0.111133  0.125598  0  0.996383  0
H  H9  1  0.38304636  0.91024395  0.87347184  1  0  0.115761  0  0.93576  0  0  0.127972  0  0.994169  0  0  0.131028  0  0.991583  0  0  0.111115  0.125559  0  0.9964  0
H  H10  1  0.88305248  0.91024132  0.62652794  1  0  0.115784  0  0.935752  0  0  0.12803  0  0.994107  0  0  0.131086  0  0.991518  0  0  0.111163  0.125583  0  0.996372  0
H  H11  1  0.61695506  0.08975623  0.12652932  1  0  0.115715  0  0.935711  0  0  0.127926  0  0.99414  0  0  0.130979  0  0.991554  0  0  0.111105  0.125506  0  0.996386  0
H  H12  1  0.32030796  0.39885036  0.14652591  1  0  0.300618  0  0.906617  0  0  0.283523  0  0.970798  0  0  0.291105  0  0.964938  0  0  0.297014  0.278079  0  0.97511  0
H  H13  1  0.17968559  0.60114936  0.64652619  1  0  0.300687  0  0.906446  0  0  0.283505  0  0.97074  0  0  0.291091  0  0.964878  0  0  0.297006  0.278059  0  0.975055  0
H  H14  1  0.67969615  0.60115084  0.85347285  1  0  0.300606  0  0.906596  0  0  0.283475  0  0.970844  0  0  0.291053  0  0.964989  0  0  0.297014  0.278033  0  0.975145  0
H  H15  1  0.82029700  0.39884773  0.35347256  1  0  0.300569  0  0.906589  0  0  0.283397  0  0.970876  0  0  0.29098  0  0.96502  0  0  0.29703  0.277967  0  0.97517  0
H  H16  1  0.79209314  0.71626384  0.28569298  1  0  0.073495  0  0.982035  0  0  0.076195  0  1.058087  0  0  0.07845  0  1.05685  0  0  0.100437  0.074436  0  1.059426  0
H  H17  1  0.70790851  0.28373648  0.78569120  1  0  0.073495  0  0.981997  0  0  0.076198  0  1.058052  0  0  0.078453  0  1.056822  0  0  0.100426  0.074434  0  1.059394  0
H  H18  1  0.20790888  0.28373428  0.71430697  1  0  0.073498  0  0.981976  0  0  0.076207  0  1.058019  0  0  0.078456  0  1.056803  0  0  0.100426  0.074449  0  1.05936  0
H  H19  1  0.29209351  0.71626575  0.21430936  1  0  0.073483  0  0.98203  0  0  0.076186  0  1.058086  0  0  0.078442  0  1.056857  0  0  0.100438  0.074428  0  1.059424  0
H  H20  1  0.93584389  0.51729511  0.16466667  1  0  0.095866  0  0.981261  0  0  0.096121  0  1.057812  0  0  0.100057  0  1.053813  0  0  0.104247  0.093144  0  1.061091  0
H  H21  1  0.56415485  0.48270671  0.66466581  1  0  0.095898  0  0.981229  0  0  0.096148  0  1.057782  0  0  0.100086  0  1.053779  0  0  0.10426  0.093169  0  1.061056  0
H  H22  1  0.06415842  0.48270814  0.83533389  1  0  0.095894  0  0.981248  0  0  0.096138  0  1.057825  0  0  0.100078  0  1.053823  0  0  0.104255  0.093153  0  1.061098  0
H  H23  1  0.43584506  0.51729654  0.33533655  1  0  0.095808  0  0.981271  0  0  0.096059  0  1.057849  0  0  0.099999  0  1.053845  0  0  0.104193  0.093081  0  1.061123  0
H  H24  1  0.37872165  0.53381459  0.02736396  1  0  0.100671  0  0.96808  0  0  0.108773  0  1.03586  0  0  0.112065  0  1.032875  0  0  0.097976  0.106107  0  1.038471  0
H  H25  1  0.12128064  0.46618561  0.52736470  1  0  0.100683  0  0.968103  0  0  0.108767  0  1.035898  0  0  0.112058  0  1.032913  0  0  0.098003  0.106117  0  1.038517  0
H  H26  1  0.62127977  0.46618558  0.97263599  1  0  0.100685  0  0.968078  0  0  0.10878  0  1.035862  0  0  0.112072  0  1.032877  0  0  0.098008  0.10614  0  1.038472  0
H  H27  1  0.87871869  0.53381559  0.47263526  1  0  0.100684  0  0.968081  0  0  0.108782  0  1.035853  0  0  0.112073  0  1.032866  0  0  0.097996  0.106141  0  1.038471  0
H  H28  1  0.32169293  0.73094007  0.95191268  1  0  0.10688  0  0.952353  0  0  0.114949  0  1.015095  0  0  0.118411  0  1.013039  0  0  0.104383  0.112285  0  1.017046  0
H  H29  1  0.17830872  0.26905899  0.45191371  1  0  0.106891  0  0.952271  0  0  0.114964  0  1.015022  0  0  0.118427  0  1.012962  0  0  0.104384  0.112285  0  1.016987  0
H  H30  1  0.67830700  0.26905908  0.04808667  1  0  0.106864  0  0.952282  0  0  0.11494  0  1.015026  0  0  0.118404  0  1.012966  0  0  0.104383  0.112281  0  1.016972  0
H  H31  1  0.82169150  0.73094119  0.54808564  1  0  0.106866  0  0.952283  0  0  0.114939  0  1.015036  0  0  0.118401  0  1.012977  0  0  0.104403  0.112278  0  1.016981  0
H  H32  1  0.07120898  0.81673030  0.98926801  1  0  0.075207  0  0.966873  0  0  0.077759  0  1.045058  0  0  0.08081  0  1.041872  0  0  0.101651  0.075139  0  1.048246  0
H  H33  1  0.42879317  0.18326791  0.48926868  1  0  0.07521  0  0.966848  0  0  0.077763  0  1.045027  0  0  0.080826  0  1.041832  0  0  0.101642  0.075129  0  1.048244  0
H  H34  1  0.92879423  0.18327192  0.01073014  1  0  0.075252  0  0.966842  0  0  0.077794  0  1.045028  0  0  0.080856  0  1.041833  0  0  0.101663  0.075161  0  1.048231  0
H  H35  1  0.57120975  0.81672920  0.51073068  1  0  0.075297  0  0.966835  0  0  0.077821  0  1.045037  0  0  0.080891  0  1.041835  0  0  0.10167  0.0752  0  1.048217  0
H  H36  1  0.98195114  0.02738341  0.12311798  1  0  0.089535  0  0.959128  0  0  0.093059  0  1.034927  0  0  0.096022  0  1.031861  0  0  0.108298  0.0908  0  1.037485  0
H  H37  1  0.51805014  0.97261719  0.62311846  1  0  0.089509  0  0.959122  0  0  0.093044  0  1.03491  0  0  0.096007  0  1.031844  0  0  0.108314  0.090781  0  1.037475  0
H  H38  1  0.01804789  0.97261676  0.87688138  1  0  0.089515  0  0.959102  0  0  0.093051  0  1.034903  0  0  0.096014  0  1.031835  0  0  0.10832  0.090793  0  1.037463  0
H  H39  1  0.48194978  0.02738196  0.37688210  1  0  0.089546  0  0.959163  0  0  0.093078  0  1.034933  0  0  0.09604  0  1.031867  0  0  0.108319  0.090815  0  1.037493  0
H  H40  1  0.94307637  0.85534418  0.40087588  1  0  0.098096  0  0.99233  0  0  0.1052  0  1.057735  0  0  0.107478  0  1.058382  0  0  0.095175  0.103471  0  1.057635  0
H  H41  1  0.55692315  0.14465769  0.90087482  1  0  0.09813  0  0.992312  0  0  0.105224  0  1.057725  0  0  0.107502  0  1.05837  0  0  0.09519  0.103496  0  1.057623  0
H  H42  1  0.05692805  0.14465394  0.59912408  1  0  0.098095  0  0.992359  0  0  0.10519  0  1.057758  0  0  0.107465  0  1.058407  0  0  0.095206  0.103464  0  1.057654  0
H  H43  1  0.44307737  0.85534352  0.09912694  1  0  0.098128  0  0.992335  0  0  0.105206  0  1.057755  0  0  0.107481  0  1.058402  0  0  0.095182  0.103482  0  1.057649  0
C  C44  1  0.08574460  0.29746015  0.18170260  1  0  0.7386  0  3.86962  0  0  0.66542  0  4.180801  0  0  0.700694  0  4.175487  0  0  0.333442  0.64097  0  4.184101  0
C  C45  1  0.41425126  0.70253665  0.68170483  1  0  0.738588  0  3.869479  0  0  0.665459  0  4.180597  0  0  0.700741  0  4.175276  0  0  0.333413  0.641008  0  4.1839  0
C  C46  1  0.91425203  0.70254002  0.81829435  1  0  0.738603  0  3.8695  0  0  0.665386  0  4.180703  0  0  0.700656  0  4.175391  0  0  0.333386  0.640941  0  4.184005  0
C  C47  1  0.58574328  0.29746044  0.31829513  1  0  0.73856  0  3.869654  0  0  0.66539  0  4.180796  0  0  0.700667  0  4.175478  0  0  0.333395  0.640947  0  4.184097  0
C  C48  1  0.04951745  0.02779215  0.32498652  1  0  -0.083777  0  3.661544  0  0  -0.112916  0  3.911296  0  0  -0.110709  0  3.927293  0  0  -0.067191  -0.113877  0  3.90045  0
C  C49  1  0.45048107  0.97220736  0.82498690  1  0  -0.083727  0  3.661512  0  0  -0.112864  0  3.911281  0  0  -0.110657  0  3.927277  0  0  -0.067214  -0.113851  0  3.900429  0
C  C50  1  0.95048637  0.97220802  0.67501043  1  0  -0.083758  0  3.661441  0  0  -0.112918  0  3.911215  0  0  -0.110709  0  3.92721  0  0  -0.067303  -0.113876  0  3.900361  0
C  C51  1  0.54951885  0.02779179  0.17501487  1  0  -0.083654  0  3.661435  0  0  -0.112812  0  3.911197  0  0  -0.110602  0  3.92719  0  0  -0.067208  -0.11378  0  3.90034  0
C  C52  1  0.16404441  0.51125330  0.10343980  1  0  0.219912  0  3.790059  0  0  0.219722  0  4.033071  0  0  0.223613  0  4.054622  0  0  0.103001  0.216081  0  4.01895  0
C  C53  1  0.33595528  0.48874520  0.60344174  1  0  0.219893  0  3.789843  0  0  0.219671  0  4.032871  0  0  0.223567  0  4.054413  0  0  0.102949  0.216034  0  4.018757  0
C  C54  1  0.83595941  0.48874688  0.89655835  1  0  0.220038  0  3.789935  0  0  0.219793  0  4.032973  0  0  0.223683  0  4.054524  0  0  0.102992  0.21616  0  4.018852  0
C  C55  1  0.66404016  0.51125497  0.39655942  1  0  0.220026  0  3.790032  0  0  0.219785  0  4.033066  0  0  0.22368  0  4.054612  0  0  0.10297  0.216153  0  4.018945  0
C  C56  1  0.86882373  0.81947844  0.27720260  1  0  0.111118  0  3.686194  0  0  0.077538  0  3.934299  0  0  0.08378  0  3.953667  0  0  0.032848  0.073232  0  3.92253  0
C  C57  1  0.63117651  0.18052082  0.77720080  1  0  0.111155  0  3.686074  0  0  0.077576  0  3.934155  0  0  0.083807  0  3.953537  0  0  0.032865  0.073266  0  3.922388  0
C  C58  1  0.13117709  0.18051969  0.72279616  1  0  0.111101  0  3.686156  0  0  0.07749  0  3.934274  0  0  0.083736  0  3.953628  0  0  0.032844  0.073186  0  3.922507  0
C  C59  1  0.36882222  0.81947833  0.22279856  1  0  0.111209  0  3.686024  0  0  0.077619  0  3.934113  0  0  0.083843  0  3.953504  0  0  0.0329  0.073321  0  3.922344  0
C  C60  1  0.05844029  0.07890701  0.24651553  1  0  0.22178  0  3.792342  0  0  0.220868  0  4.038522  0  0  0.224508  0  4.059669  0  0  0.102815  0.217448  0  4.024627  0
C  C61  1  0.44155996  0.92109112  0.74651581  1  0  0.221773  0  3.79229  0  0  0.220862  0  4.038503  0  0  0.224502  0  4.059651  0  0  0.102862  0.217441  0  4.024616  0
C  C62  1  0.94156083  0.92109214  0.75348262  1  0  0.221671  0  3.792282  0  0  0.220757  0  4.038535  0  0  0.224396  0  4.059682  0  0  0.102837  0.21734  0  4.024638  0
C  C63  1  0.55843847  0.07890700  0.25348535  1  0  0.221711  0  3.792296  0  0  0.220814  0  4.038464  0  0  0.224452  0  4.059612  0  0  0.102848  0.217395  0  4.024561  0
C  C64  1  0.02593057  0.56273003  0.11926491  1  0  0.036338  0  3.652617  0  0  -0.003031  0  3.903895  0  0  0.002567  0  3.919132  0  0  0.036029  -0.007085  0  3.894636  0
C  C65  1  0.47406864  0.43727161  0.61926390  1  0  0.036349  0  3.652492  0  0  -0.003  0  3.90377  0  0  0.002597  0  3.919003  0  0  0.036071  -0.007043  0  3.894497  0
C  C66  1  0.97407174  0.43727322  0.88073625  1  0  0.03632  0  3.652638  0  0  -0.003055  0  3.903925  0  0  0.002539  0  3.919164  0  0  0.03608  -0.007086  0  3.894654  0
C  C67  1  0.52593247  0.56273164  0.38073726  1  0  0.03646  0  3.652541  0  0  -0.002903  0  3.903823  0  0  0.002689  0  3.91906  0  0  0.036123  -0.006948  0  3.894556  0
C  C68  1  0.27208152  0.57319807  0.04219244  1  0  -0.101655  0  3.693838  0  0  -0.1283  0  3.944296  0  0  -0.127641  0  3.962241  0  0  -0.072728  -0.127906  0  3.931692  0
C  C69  1  0.22791612  0.42680323  0.54219275  1  0  -0.101557  0  3.693741  0  0  -0.128169  0  3.944186  0  0  -0.127508  0  3.962126  0  0  -0.072689  -0.127769  0  3.931589  0
C  C70  1  0.72792020  0.42680313  0.95780752  1  0  -0.101718  0  3.693694  0  0  -0.128337  0  3.944142  0  0  -0.127679  0  3.962086  0  0  -0.07272  -0.127934  0  3.93154  0
C  C71  1  0.77207901  0.57320002  0.45780841  1  0  -0.101784  0  3.693723  0  0  -0.128399  0  3.944185  0  0  -0.127737  0  3.962123  0  0  -0.072687  -0.127988  0  3.931586  0
C  C72  1  0.24051260  0.68366516  0.00045636  1  0  -0.090339  0  3.754596  0  0  -0.103375  0  4.011036  0  0  -0.108265  0  4.030573  0  0  -0.083648  -0.10002  0  3.997388  0
C  C73  1  0.25948937  0.31633698  0.50045871  1  0  -0.090478  0  3.75483  0  0  -0.103514  0  4.011279  0  0  -0.108405  0  4.030818  0  0  -0.083659  -0.100134  0  3.997635  0
C  C74  1  0.75949092  0.31633400  0.99954300  1  0  -0.090312  0  3.754607  0  0  -0.103353  0  4.011039  0  0  -0.108243  0  4.03058  0  0  -0.083635  -0.099984  0  3.997378  0
C  C75  1  0.74050725  0.68366730  0.49954365  1  0  -0.090227  0  3.754662  0  0  -0.103277  0  4.011092  0  0  -0.108169  0  4.030634  0  0  -0.08366  -0.099916  0  3.997438  0
C  C76  1  0.10217424  0.73066422  0.02004461  1  0  0.116568  0  3.689515  0  0  0.079136  0  3.943461  0  0  0.08596  0  3.961474  0  0  0.034681  0.075041  0  3.931791  0
C  C77  1  0.39782334  0.26933595  0.52004523  1  0  0.116628  0  3.6896  0  0  0.079189  0  3.943576  0  0  0.086002  0  3.961587  0  0  0.034713  0.075094  0  3.931882  0
C  C78  1  0.89782777  0.26933800  0.97995474  1  0  0.116594  0  3.689621  0  0  0.079162  0  3.943579  0  0  0.085976  0  3.96159  0  0  0.034703  0.075071  0  3.931882  0
C  C79  1  0.60217628  0.73066628  0.47995593  1  0  0.116406  0  3.689797  0  0  0.079005  0  3.943737  0  0  0.08581  0  3.961745  0  0  0.034629  0.074914  0  3.932049  0
C  C80  1  0.97324270  0.99386626  0.18571967  1  0  0.044317  0  3.644154  0  0  0.005096  0  3.893537  0  0  0.010893  0  3.90972  0  0  0.042638  0.001087  0  3.883497  0
C  C81  1  0.52675523  0.00613360  0.68571956  1  0  0.044421  0  3.644155  0  0  0.005207  0  3.893529  0  0  0.011005  0  3.909713  0  0  0.04263  0.001204  0  3.883502  0
C  C82  1  0.02675454  0.00613186  0.81427909  1  0  0.044507  0  3.644075  0  0  0.005241  0  3.893505  0  0  0.011037  0  3.90969  0  0  0.042639  0.001249  0  3.883474  0
C  C83  1  0.47324201  0.99386452  0.31428160  1  0  0.044333  0  3.644175  0  0  0.005147  0  3.893491  0  0  0.010947  0  3.909673  0  0  0.042653  0.001143  0  3.883455  0
C  C84  1  0.95241841  0.89695488  0.34022406  1  0  -0.10247  0  3.767167  0  0  -0.113338  0  4.018598  0  0  -0.11982  0  4.040851  0  0  -0.087649  -0.109248  0  4.00385  0
C  C85  1  0.54758236  0.10304466  0.84022292  1  0  -0.102564  0  3.767142  0  0  -0.113415  0  4.018584  0  0  -0.119896  0  4.040832  0  0  -0.087663  -0.109326  0  4.003833  0
C  C86  1  0.04758421  0.10304529  0.65977530  1  0  -0.102435  0  3.767114  0  0  -0.113287  0  4.018581  0  0  -0.11977  0  4.040833  0  0  -0.087642  -0.109193  0  4.003815  0
C  C87  1  0.45241996  0.89695449  0.15977703  1  0  -0.102623  0  3.767079  0  0  -0.113442  0  4.018514  0  0  -0.119917  0  4.04076  0  0  -0.087693  -0.109346  0  4.003753  0
Br  Br88  1  0.60701276  0.54133606  0.16345050  1  0  -0.505391  0  1.012458  0  0  -0.445134  0  1.318827  0  0  -0.460924  0  1.295307  0  0  -0.248308  -0.433572  0  1.336244  0
Br  Br89  1  0.89298870  0.45865858  0.66345159  1  0  -0.505424  0  1.012482  0  0  -0.445142  0  1.318831  0  0  -0.460932  0  1.295313  0  0  -0.248326  -0.433577  0  1.336253  0
Br  Br90  1  0.39299346  0.45865592  0.83654645  1  0  -0.505414  0  1.012445  0  0  -0.445152  0  1.318821  0  0  -0.460944  0  1.295303  0  0  -0.248325  -0.433572  0  1.336232  0
Br  Br91  1  0.10701272  0.54133749  0.33654957  1  0  -0.505411  0  1.012426  0  0  -0.445137  0  1.318787  0  0  -0.460927  0  1.295267  0  0  -0.24832  -0.433566  0  1.336205  0
Br  Br92  1  0.72792883  0.86411131  0.99455786  1  0  -0.515174  0  0.923832  0  0  -0.451295  0  1.210462  0  0  -0.467677  0  1.188298  0  0  -0.275937  -0.438946  0  1.226784  0
Br  Br93  1  0.77208224  0.13589714  0.49455347  1  0  -0.51517  0  0.923797  0  0  -0.45132  0  1.21044  0  0  -0.467701  0  1.188282  0  0  -0.275951  -0.438963  0  1.226765  0
Br  Br94  1  0.27207080  0.13588681  0.00544150  1  0  -0.515156  0  0.923872  0  0  -0.451292  0  1.210516  0  0  -0.467676  0  1.188352  0  0  -0.275921  -0.438929  0  1.226841  0
Br  Br95  1  0.22791769  0.86410201  0.50544709  1  0  -0.515182  0  0.92381  0  0  -0.451334  0  1.210461  0  0  -0.467717  0  1.188304  0  0  -0.275937  -0.43895  0  1.226778  0
N  N96  1  0.88099531  0.86759024  0.20109883  1  0  -0.300268  0  3.368048  0  0  -0.20909  0  3.631083  0  0  -0.228755  0  3.650806  0  0  -0.335166  -0.196031  0  3.618009  0
N  N97  1  0.61900545  0.13240765  0.70109695  1  0  -0.300349  0  3.36812  0  0  -0.209177  0  3.63118  0  0  -0.22884  0  3.650902  0  0  -0.335217  -0.196129  0  3.618122  0
N  N98  1  0.11900283  0.13240686  0.79889992  1  0  -0.300356  0  3.368142  0  0  -0.209113  0  3.63115  0  0  -0.22878  0  3.650876  0  0  -0.335123  -0.196049  0  3.618091  0
N  N99  1  0.38099418  0.86759048  0.29890181  1  0  -0.300286  0  3.368043  0  0  -0.209131  0  3.631102  0  0  -0.228793  0  3.650825  0  0  -0.33521  -0.196089  0  3.618051  0
N  N100  1  0.99740876  0.66965485  0.07800243  1  0  -0.304695  0  3.377073  0  0  -0.212703  0  3.640001  0  0  -0.232345  0  3.659986  0  0  -0.33984  -0.199817  0  3.626902  0
N  N101  1  0.50259391  0.33034453  0.57800259  1  0  -0.304744  0  3.376918  0  0  -0.212748  0  3.63985  0  0  -0.232391  0  3.659842  0  0  -0.339876  -0.199853  0  3.626743  0
N  N102  1  0.00259416  0.33034636  0.92199752  1  0  -0.304793  0  3.377141  0  0  -0.212768  0  3.640039  0  0  -0.232412  0  3.66003  0  0  -0.339866  -0.199867  0  3.626921  0
N  N103  1  0.49740841  0.66965462  0.42200037  1  0  -0.304709  0  3.37703  0  0  -0.212713  0  3.639959  0  0  -0.232356  0  3.659955  0  0  -0.339812  -0.199819  0  3.626852  0
N  N104  1  0.15313674  0.20992941  0.22695041  1  0  -0.521868  0  3.30847  0  0  -0.46693  0  3.555964  0  0  -0.489745  0  3.562035  0  0  -0.412702  -0.450238  0  3.551803  0
N  N105  1  0.34686073  0.79007068  0.72695066  1  0  -0.52184  0  3.308309  0  0  -0.466938  0  3.55584  0  0  -0.489752  0  3.561906  0  0  -0.412687  -0.450249  0  3.551685  0
N  N106  1  0.84686228  0.79007076  0.77304714  1  0  -0.521832  0  3.308409  0  0  -0.466908  0  3.555952  0  0  -0.489722  0  3.562023  0  0  -0.412683  -0.450212  0  3.551784  0
N  N107  1  0.65313651  0.20992745  0.27304990  1  0  -0.52178  0  3.308333  0  0  -0.466893  0  3.555858  0  0  -0.489705  0  3.561924  0  0  -0.412686  -0.450207  0  3.551699  0
N  N108  1  0.19937764  0.40308804  0.14682320  1  0  -0.493727  0  3.369815  0  0  -0.43896  0  3.613312  0  0  -0.461739  0  3.621468  0  0  -0.406375  -0.422469  0  3.607799  0
N  N109  1  0.30061859  0.59691270  0.64682371  1  0  -0.493873  0  3.369616  0  0  -0.439027  0  3.613149  0  0  -0.461812  0  3.621298  0  0  -0.40639  -0.422531  0  3.607642  0
N  N110  1  0.80062527  0.59691316  0.85317675  1  0  -0.493829  0  3.369862  0  0  -0.438977  0  3.613296  0  0  -0.461749  0  3.621452  0  0  -0.406399  -0.422495  0  3.607795  0
N  N111  1  0.69937177  0.40308644  0.35317805  1  0  -0.493803  0  3.369833  0  0  -0.438914  0  3.613274  0  0  -0.461697  0  3.62143  0  0  -0.406397  -0.42243  0  3.607769  0
O  O112  1  0.93419357  0.28028108  0.17176326  1  0  -0.614444  0  1.951822  0  0  -0.55967  0  2.180355  0  0  -0.58321  0  2.173911  0  0  -0.300159  -0.54288  0  2.184523  0
O  O113  1  0.56580810  0.71971873  0.67176238  1  0  -0.614408  0  1.951692  0  0  -0.559673  0  2.180234  0  0  -0.583223  0  2.173792  0  0  -0.300137  -0.542876  0  2.184398  0
O  O114  1  0.06580516  0.71971807  0.82823369  1  0  -0.614474  0  1.951809  0  0  -0.559674  0  2.180355  0  0  -0.583217  0  2.173913  0  0  -0.300144  -0.542875  0  2.184521  0
O  O115  1  0.43419631  0.28028350  0.32823758  1  0  -0.614388  0  1.951928  0  0  -0.559632  0  2.180489  0  0  -0.583178  0  2.174047  0  0  -0.300126  -0.542842  0  2.184653  0
