# generated using pymatgen
data_ZnH20C18(NO2)2
_symmetry_space_group_name_H-M   'P 1'
_cell_length_a   10.23193543
_cell_length_b   11.56293231
_cell_length_c   17.17566339
_cell_angle_alpha   90.00004454
_cell_angle_beta   90.00040516
_cell_angle_gamma   90.00038868
_symmetry_Int_Tables_number   1
_chemical_formula_structural   ZnH20C18(NO2)2
_chemical_formula_sum   'Zn4 H80 C72 N8 O16'
_cell_volume   2032.07294697
_cell_formula_units_Z   4
loop_
 _symmetry_equiv_pos_site_id
 _symmetry_equiv_pos_as_xyz
  1  'x, y, z'
loop_
 _atom_site_type_symbol
 _atom_site_label
 _atom_site_symmetry_multiplicity
 _atom_site_fract_x
 _atom_site_fract_y
 _atom_site_fract_z
 _atom_site_occupancy
 _atom_site_pbe_bader_charge
 _atom_site_pbe_bader_spin_density
 _atom_site_pbe_cm5_charge
 _atom_site_pbe_ddec_charge
 _atom_site_pbe_ddec_spin_density
 _atom_site_pbe_ddec_sum_bond_order
 _atom_site_pbe_magmom
Zn  Zn0  1  0.90743579  0.75000406  0.75000578  1  1.240777  0  0.687453  0.749232  0  2.426875  0
Zn  Zn1  1  0.59256769  0.75000371  0.25000171  1  1.240955  0  0.68742  0.749163  0  2.427205  0
Zn  Zn2  1  0.09257533  0.24999409  0.25000167  1  1.240741  0  0.687386  0.749005  0  2.427285  0
Zn  Zn3  1  0.40743463  0.24999963  0.74999817  1  1.240786  0  0.687429  0.749146  0  2.427105  0
H  H4  1  0.06746424  0.05051367  0.62893598  1  0.051625  0  0.090828  0.102121  0  1.002856  0
H  H5  1  0.43251194  0.05050426  0.37106491  1  0.051842  0  0.090867  0.102195  0  1.002836  0
H  H6  1  0.43255309  0.44949462  0.12894163  1  0.051539  0  0.090754  0.102042  0  1.002937  0
H  H7  1  0.06748381  0.44949564  0.87106532  1  0.051831  0  0.090886  0.102234  0  1.002823  0
H  H8  1  0.93253515  0.94949745  0.37105983  1  0.051696  0  0.090821  0.102149  0  1.002817  0
H  H9  1  0.56745618  0.94948092  0.62893555  1  0.051534  0  0.090814  0.10212  0  1.002775  0
H  H10  1  0.56748930  0.55050786  0.87106117  1  0.051774  0  0.090861  0.102166  0  1.002823  0
H  H11  1  0.93252341  0.55049299  0.12894214  1  0.051877  0  0.090888  0.102174  0  1.002811  0
H  H12  1  0.20668760  0.96693993  0.60496250  1  0.011679  0  0.098045  0.108751  0  0.995224  0
H  H13  1  0.29328191  0.96693316  0.39503484  1  0.011259  0  0.097958  0.10857  0  0.995237  0
H  H14  1  0.29332057  0.53305517  0.10496674  1  0.011838  0  0.098033  0.108707  0  0.995156  0
H  H15  1  0.20670328  0.53306917  0.89504258  1  0.011484  0  0.097981  0.108651  0  0.995221  0
H  H16  1  0.79329811  0.03306428  0.39503040  1  0.011484  0  0.098035  0.10868  0  0.995097  0
H  H17  1  0.70668425  0.03305462  0.60495922  1  0.011759  0  0.098021  0.108685  0  0.995225  0
H  H18  1  0.70671303  0.46693693  0.89503548  1  0.011284  0  0.097968  0.108556  0  0.995253  0
H  H19  1  0.79330002  0.46692120  0.10496370  1  0.011492  0  0.098048  0.108658  0  0.995138  0
H  H20  1  0.13077796  0.06112269  0.48576261  1  0.007  0  0.084597  0.073209  0  1.010519  0
H  H21  1  0.36921493  0.06110872  0.51423596  1  0.006766  0  0.084602  0.073214  0  1.010572  0
H  H22  1  0.36921132  0.43886609  0.98576254  1  0.006768  0  0.084646  0.073269  0  1.010604  0
H  H23  1  0.13078933  0.43887178  0.01423915  1  0.006382  0  0.084605  0.073141  0  1.010663  0
H  H24  1  0.86920580  0.93888324  0.51423611  1  0.006672  0  0.084636  0.073208  0  1.010645  0
H  H25  1  0.63077665  0.93886954  0.48575577  1  0.006819  0  0.084645  0.073213  0  1.010657  0
H  H26  1  0.63077927  0.56110957  0.01423559  1  0.006802  0  0.084602  0.073222  0  1.010551  0
H  H27  1  0.86922179  0.56111686  0.98576714  1  0.007183  0  0.084615  0.073279  0  1.010405  0
H  H28  1  0.10449581  0.91014859  0.47815668  1  0.018593  0  0.090159  0.087916  0  0.986085  0
H  H29  1  0.39548207  0.91013652  0.52184120  1  0.01878  0  0.090226  0.088075  0  0.986024  0
H  H30  1  0.39550405  0.58983739  0.97815770  1  0.018532  0  0.090196  0.088007  0  0.986121  0
H  H31  1  0.10450852  0.58984119  0.02185457  1  0.019318  0  0.090128  0.08795  0  0.986048  0
H  H32  1  0.89548893  0.08985475  0.52184262  1  0.018988  0  0.090172  0.087934  0  0.985998  0
H  H33  1  0.60448996  0.08984174  0.47815577  1  0.018729  0  0.090209  0.08799  0  0.98614  0
H  H34  1  0.60451978  0.41013655  0.02183811  1  0.018776  0  0.090225  0.088092  0  0.985957  0
H  H35  1  0.89549479  0.41014139  0.97815522  1  0.019212  0  0.090176  0.087967  0  0.986015  0
H  H36  1  0.75079234  0.81614937  0.61168242  1  0.090522  0  0.114809  0.077528  0  1.023118  0
H  H37  1  0.74921459  0.81615357  0.38832103  1  0.090511  0  0.114851  0.077558  0  1.023067  0
H  H38  1  0.74921539  0.68384442  0.11168772  1  0.09048  0  0.114806  0.077512  0  1.023054  0
H  H39  1  0.75077684  0.68385781  0.88831333  1  0.090724  0  0.114861  0.077527  0  1.023145  0
H  H40  1  0.24921879  0.18385484  0.38832328  1  0.090641  0  0.114846  0.077568  0  1.023136  0
H  H41  1  0.25078285  0.18385064  0.61167943  1  0.090635  0  0.114846  0.077592  0  1.023023  0
H  H42  1  0.25077912  0.31615027  0.88831973  1  0.090618  0  0.11481  0.077528  0  1.023117  0
H  H43  1  0.24922060  0.31615245  0.11168539  1  0.090534  0  0.114852  0.077545  0  1.023074  0
H  H44  1  0.56985118  0.73191495  0.53047060  1  0.142431  0  0.110808  0.131773  0  1.015815  0
H  H45  1  0.93016096  0.73192465  0.46952816  1  0.142263  0  0.11079  0.131784  0  1.015728  0
H  H46  1  0.93014874  0.76807961  0.03046972  1  0.142374  0  0.110853  0.131782  0  1.015859  0
H  H47  1  0.56984120  0.76809200  0.96952905  1  0.142516  0  0.110825  0.131854  0  1.015743  0
H  H48  1  0.43016776  0.26808752  0.46952871  1  0.142344  0  0.110814  0.131774  0  1.015722  0
H  H49  1  0.06983453  0.26808560  0.53047173  1  0.142407  0  0.11081  0.131817  0  1.015685  0
H  H50  1  0.06983795  0.23191681  0.96953132  1  0.142369  0  0.110816  0.13181  0  1.015663  0
H  H51  1  0.43016308  0.23192431  0.03047782  1  0.142269  0  0.110814  0.131788  0  1.015706  0
H  H52  1  0.61403202  0.41561044  0.66135637  1  0.162059  0  0.110234  0.129535  0  1.0157  0
H  H53  1  0.88596499  0.41561541  0.33864686  1  0.162181  0  0.110259  0.129539  0  1.015808  0
H  H54  1  0.88596464  0.08439311  0.16134881  1  0.162054  0  0.110246  0.12958  0  1.015692  0
H  H55  1  0.61402887  0.08440130  0.83864434  1  0.161877  0  0.110206  0.129572  0  1.015578  0
H  H56  1  0.38596151  0.58439809  0.33864933  1  0.161937  0  0.110201  0.129543  0  1.015704  0
H  H57  1  0.11403929  0.58439398  0.66135478  1  0.162014  0  0.110225  0.129563  0  1.015706  0
H  H58  1  0.11404257  0.91560331  0.83864642  1  0.162049  0  0.1102  0.1295  0  1.015721  0
H  H59  1  0.38596075  0.91560636  0.16134448  1  0.161898  0  0.110232  0.129541  0  1.015676  0
H  H60  1  0.79051462  0.51431349  0.73910050  1  0.105088  0  0.120598  0.094737  0  0.983066  0
H  H61  1  0.70948218  0.51431212  0.26090803  1  0.105014  0  0.120639  0.094799  0  0.982996  0
H  H62  1  0.70948874  0.98569341  0.23909415  1  0.105065  0  0.120606  0.094759  0  0.982991  0
H  H63  1  0.79051655  0.98569825  0.76090707  1  0.105032  0  0.12061  0.094796  0  0.983039  0
H  H64  1  0.20948673  0.48568985  0.26090521  1  0.105132  0  0.120609  0.094815  0  0.983  0
H  H65  1  0.29051331  0.48568603  0.73909826  1  0.105119  0  0.12062  0.094753  0  0.983075  0
H  H66  1  0.29051164  0.01431339  0.76090515  1  0.105028  0  0.120619  0.094783  0  0.983039  0
H  H67  1  0.20948284  0.01430509  0.23908816  1  0.104993  0  0.120631  0.094774  0  0.983034  0
H  H68  1  0.38761235  0.56738002  0.53788298  1  0.052701  0  0.100417  0.108585  0  0.967632  0
H  H69  1  0.11239418  0.56737915  0.46212520  1  0.052579  0  0.100409  0.108548  0  0.967669  0
H  H70  1  0.11238331  0.93261587  0.03788026  1  0.052719  0  0.100423  0.108562  0  0.967627  0
H  H71  1  0.38761038  0.93262064  0.96211822  1  0.052644  0  0.100408  0.108535  0  0.967671  0
H  H72  1  0.61239095  0.43261813  0.46212157  1  0.052554  0  0.100442  0.108608  0  0.967716  0
H  H73  1  0.88761010  0.43261554  0.53788342  1  0.052633  0  0.100434  0.108568  0  0.967607  0
H  H74  1  0.88761120  0.06738488  0.96211671  1  0.052636  0  0.100423  0.108565  0  0.967625  0
H  H75  1  0.61239293  0.06739134  0.03787701  1  0.052437  0  0.100404  0.108506  0  0.967779  0
H  H76  1  0.44480254  0.42858929  0.56790402  1  0.114108  0  0.097118  0.105673  0  1.018138  0
H  H77  1  0.05519804  0.42859324  0.43209767  1  0.114158  0  0.097169  0.105755  0  1.018118  0
H  H78  1  0.05519649  0.07140683  0.06790436  1  0.114141  0  0.097155  0.10575  0  1.018093  0
H  H79  1  0.44479257  0.07141538  0.93209480  1  0.114039  0  0.097125  0.105661  0  1.018108  0
H  H80  1  0.55521738  0.57141232  0.43209994  1  0.1141  0  0.097133  0.105689  0  1.018078  0
H  H81  1  0.94479354  0.57141183  0.56790687  1  0.11402  0  0.097132  0.105684  0  1.018054  0
H  H82  1  0.94478630  0.92858786  0.93209378  1  0.114062  0  0.097128  0.105663  0  1.018054  0
H  H83  1  0.55521269  0.92859574  0.06789984  1  0.114258  0  0.097148  0.105749  0  1.018141  0
C  C84  1  0.03908467  0.86672437  0.63102690  1  1.545189  0  0.197022  0.623179  0  4.168368  0
C  C85  1  0.46088896  0.86671512  0.36897038  1  1.54576  0  0.197204  0.623589  0  4.167736  0
C  C86  1  0.46093261  0.63327594  0.13101910  1  1.545614  0  0.197233  0.623346  0  4.167812  0
C  C87  1  0.03908909  0.63327852  0.86898096  1  1.545983  0  0.197171  0.623361  0  4.167742  0
C  C88  1  0.96090984  0.13328416  0.36897473  1  1.54592  0  0.197244  0.623471  0  4.167822  0
C  C89  1  0.53908209  0.13327611  0.63101961  1  1.545969  0  0.197089  0.623187  0  4.168247  0
C  C90  1  0.53911175  0.36671529  0.86896740  1  1.545454  0  0.197193  0.623537  0  4.167971  0
C  C91  1  0.96090640  0.36671357  0.13102474  1  1.545926  0  0.19722  0.623506  0  4.167585  0
C  C92  1  0.10040856  0.97483466  0.59556118  1  -0.009024  0  -0.169644  -0.299358  0  3.943456  0
C  C93  1  0.39956296  0.97482421  0.40443849  1  -0.008704  0  -0.169624  -0.299203  0  3.943095  0
C  C94  1  0.39960048  0.52516389  0.09555946  1  -0.009374  0  -0.169627  -0.299322  0  3.943231  0
C  C95  1  0.10042430  0.52517120  0.90444694  1  -0.0093  0  -0.16971  -0.29948  0  3.943381  0
C  C96  1  0.89958008  0.02517128  0.40443754  1  -0.009011  0  -0.169678  -0.299353  0  3.943042  0
C  C97  1  0.60040320  0.02515578  0.59555732  1  -0.009901  0  -0.16964  -0.299358  0  3.943216  0
C  C98  1  0.60043312  0.47482907  0.90443693  1  -0.009011  0  -0.169617  -0.299081  0  3.942952  0
C  C99  1  0.89957901  0.47481657  0.09555993  1  -0.009172  0  -0.169638  -0.299186  0  3.943193  0
C  C100  1  0.07215539  0.98882319  0.50872256  1  -0.015863  0  -0.167566  -0.127918  0  3.950084  0
C  C101  1  0.42782895  0.98880955  0.49127596  1  0.010869  0  -0.167565  -0.128171  0  3.950301  0
C  C102  1  0.42784188  0.51116056  0.00871862  1  -0.015564  0  -0.1676  -0.128002  0  3.950118  0
C  C103  1  0.07216519  0.51116866  0.99128370  1  -0.016482  0  -0.167514  -0.127828  0  3.950048  0
C  C104  1  0.92783326  0.01117842  0.49127791  1  0.010812  0  -0.16759  -0.128002  0  3.950003  0
C  C105  1  0.57215090  0.01116438  0.50871694  1  -0.015299  0  -0.167666  -0.127955  0  3.950302  0
C  C106  1  0.57216631  0.48880905  0.99127486  1  0.01123  0  -0.167584  -0.128237  0  3.950083  0
C  C107  1  0.92784300  0.48881566  0.00872259  1  0.010459  0  -0.167565  -0.128136  0  3.950075  0
C  C108  1  0.71608894  0.72809721  0.62109390  1  0.469584  0  0.04345  0.088757  0  3.978397  0
C  C109  1  0.78392415  0.72810247  0.37890776  1  0.46959  0  0.043366  0.0887  0  3.978362  0
C  C110  1  0.78391889  0.77190178  0.12109590  1  0.469585  0  0.043438  0.08875  0  3.978417  0
C  C111  1  0.71607499  0.77191062  0.87890287  1  0.469641  0  0.043344  0.088646  0  3.978304  0
C  C112  1  0.28392120  0.27190959  0.37891065  1  0.469217  0  0.043319  0.088532  0  3.978333  0
C  C113  1  0.21607916  0.27190346  0.62109212  1  0.469571  0  0.043412  0.088639  0  3.978191  0
C  C114  1  0.21607659  0.22809724  0.87890748  1  0.46955  0  0.043402  0.088668  0  3.978401  0
C  C115  1  0.28392929  0.22810136  0.12109876  1  0.469738  0  0.043355  0.08876  0  3.978357  0
C  C116  1  0.61660879  0.68113734  0.57636585  1  -0.062954  0  -0.083466  -0.187914  0  3.918543  0
C  C117  1  0.88340297  0.68114498  0.42363345  1  -0.062791  0  -0.083476  -0.187941  0  3.918761  0
C  C118  1  0.88338973  0.81886160  0.07636365  1  -0.062715  0  -0.083474  -0.187861  0  3.91877  0
C  C119  1  0.61659669  0.81887162  0.92363224  1  -0.06279  0  -0.083351  -0.187778  0  3.918213  0
C  C120  1  0.38339843  0.31887292  0.42363811  1  -0.06247  0  -0.083296  -0.187697  0  3.918123  0
C  C121  1  0.11660229  0.31886700  0.57636527  1  -0.062736  0  -0.083406  -0.187847  0  3.918476  0
C  C122  1  0.11659794  0.18113742  0.92363275  1  -0.062861  0  -0.083449  -0.18789  0  3.918326  0
C  C123  1  0.38340954  0.18114296  0.07637113  1  -0.062715  0  -0.083447  -0.187897  0  3.918415  0
C  C124  1  0.57731381  0.56677524  0.59045253  1  -0.008974  0  0.020972  0.181957  0  3.925713  0
C  C125  1  0.92269316  0.56678050  0.40954846  1  -0.009111  0  0.021051  0.182065  0  3.925981  0
C  C126  1  0.92268486  0.93322372  0.09044706  1  -0.009238  0  0.021049  0.182161  0  3.925779  0
C  C127  1  0.57730927  0.93323781  0.90954715  1  -0.009476  0  0.020884  0.1819  0  3.925727  0
C  C128  1  0.42269144  0.43323502  0.40955260  1  -0.009539  0  0.020908  0.182003  0  3.925778  0
C  C129  1  0.07731210  0.43322802  0.59045026  1  -0.009064  0  0.021004  0.182094  0  3.925712  0
C  C130  1  0.07730867  0.06676925  0.90954933  1  -0.009181  0  0.02094  0.182008  0  3.925559  0
C  C131  1  0.42270087  0.06678023  0.09045448  1  -0.009395  0  0.021062  0.182049  0  3.926023  0
C  C132  1  0.64113763  0.50492091  0.64924688  1  -0.042795  0  -0.077286  -0.171473  0  3.91005  0
C  C133  1  0.85886692  0.50492746  0.35075349  1  -0.042537  0  -0.077426  -0.171655  0  3.910429  0
C  C134  1  0.85886077  0.99508330  0.14924001  1  -0.042828  0  -0.077401  -0.171755  0  3.910283  0
C  C135  1  0.64113482  0.99508993  0.85075248  1  -0.042524  0  -0.077397  -0.171633  0  3.910092  0
C  C136  1  0.35886275  0.49509108  0.35075999  1  -0.042492  0  -0.077323  -0.171607  0  3.909967  0
C  C137  1  0.14113541  0.49508453  0.64924640  1  -0.042868  0  -0.07739  -0.171743  0  3.910056  0
C  C138  1  0.14113374  0.00491831  0.85075289  1  -0.04267  0  -0.077324  -0.171574  0  3.910112  0
C  C139  1  0.35886848  0.00492206  0.14924333  1  -0.04262  0  -0.077387  -0.171622  0  3.910322  0
C  C140  1  0.73874425  0.55870516  0.69226029  1  0.449932  0  0.050329  0.100721  0  3.935948  0
C  C141  1  0.76125777  0.55870848  0.30774244  1  0.449942  0  0.05036  0.100838  0  3.935668  0
C  C142  1  0.76126051  0.94129650  0.19225647  1  0.450069  0  0.050395  0.100888  0  3.935798  0
C  C143  1  0.73873857  0.94130540  0.80774298  1  0.449934  0  0.050346  0.100651  0  3.936315  0
C  C144  1  0.26125417  0.44129991  0.30774367  1  0.450195  0  0.050337  0.10069  0  3.935564  0
C  C145  1  0.23874358  0.44129486  0.69225977  1  0.45003  0  0.050369  0.100869  0  3.9358  0
C  C146  1  0.23873986  0.05870598  0.80774225  1  0.449926  0  0.050352  0.10082  0  3.935932  0
C  C147  1  0.26126082  0.05870053  0.19225748  1  0.45011  0  0.050315  0.10077  0  3.935685  0
C  C148  1  0.47404839  0.51098455  0.54154414  1  -0.04438  0  -0.154784  -0.198458  0  3.917334  0
C  C149  1  0.02595184  0.51098749  0.45846109  1  -0.068397  0  -0.154808  -0.198486  0  3.917346  0
C  C150  1  0.02594926  0.98901480  0.04153876  1  -0.068503  0  -0.154824  -0.198521  0  3.917245  0
C  C151  1  0.47404387  0.98902269  0.95845801  1  -0.068436  0  -0.154705  -0.198283  0  3.917309  0
C  C152  1  0.52596175  0.48902138  0.45846273  1  -0.068431  0  -0.154766  -0.19848  0  3.917554  0
C  C153  1  0.97404169  0.48901845  0.54154345  1  -0.044321  0  -0.154797  -0.198446  0  3.917131  0
C  C154  1  0.97404134  0.01098076  0.95845705  1  -0.044291  0  -0.15477  -0.198421  0  3.917203  0
C  C155  1  0.52596041  0.01099190  0.04154013  1  -0.044095  0  -0.154791  -0.198492  0  3.917568  0
N  N156  1  0.77590765  0.66856062  0.67842687  1  -1.283884  0  -0.338817  -0.250384  0  3.615702  0
N  N157  1  0.72409815  0.66856546  0.32157708  1  -1.283894  0  -0.338757  -0.250401  0  3.615504  0
N  N158  1  0.72410086  0.83144102  0.17842807  1  -1.28382  0  -0.338875  -0.25052  0  3.615795  0
N  N159  1  0.77589641  0.83144930  0.82157074  1  -1.283593  0  -0.338733  -0.25031  0  3.615811  0
N  N160  1  0.22409859  0.33144013  0.32157883  1  -1.283647  0  -0.338766  -0.250301  0  3.615675  0
N  N161  1  0.27590125  0.33143874  0.67842455  1  -1.283713  0  -0.338852  -0.250439  0  3.615615  0
N  N162  1  0.27589365  0.16856664  0.82157065  1  -1.28381  0  -0.338752  -0.250404  0  3.615516  0
N  N163  1  0.22410201  0.16856095  0.17842624  1  -1.283712  0  -0.338775  -0.250395  0  3.615653  0
O  O164  1  0.99254503  0.88193449  0.70113569  1  -1.178878  0  -0.349754  -0.582367  0  2.325854  0
O  O165  1  0.50743308  0.88192158  0.29886315  1  -1.179135  0  -0.349812  -0.582477  0  2.325773  0
O  O166  1  0.50744322  0.61808706  0.20113293  1  -1.179282  0  -0.349831  -0.582427  0  2.325998  0
O  O167  1  0.99255730  0.61808192  0.79887158  1  -1.179088  0  -0.349779  -0.582345  0  2.325842  0
O  O168  1  0.00743482  0.11808096  0.29886420  1  -1.179237  0  -0.34983  -0.582359  0  2.325806  0
O  O169  1  0.49255166  0.11807484  0.70113033  1  -1.179208  0  -0.349744  -0.582304  0  2.325847  0
O  O170  1  0.49255715  0.38192146  0.79885938  1  -1.178752  0  -0.349852  -0.582538  0  2.325882  0
O  O171  1  0.00744014  0.38190758  0.20113471  1  -1.1792  0  -0.349789  -0.582375  0  2.325907  0
O  O172  1  0.03689781  0.77326016  0.59478198  1  -1.195727  0  -0.331783  -0.571148  0  2.11878  0
O  O173  1  0.46309466  0.77325097  0.40522049  1  -1.195854  0  -0.331921  -0.57144  0  2.118567  0
O  O174  1  0.46314347  0.72674097  0.09475910  1  -1.195667  0  -0.331968  -0.571316  0  2.118395  0
O  O175  1  0.03688089  0.72674618  0.90523810  1  -1.195863  0  -0.331947  -0.57137  0  2.118344  0
O  O176  1  0.96310940  0.22674923  0.40523188  1  -1.195835  0  -0.331938  -0.571398  0  2.118513  0
O  O177  1  0.53689203  0.22673507  0.59476950  1  -1.195895  0  -0.331925  -0.571238  0  2.118658  0
O  O178  1  0.53690479  0.27325631  0.90521458  1  -1.195787  0  -0.331882  -0.571389  0  2.118857  0
O  O179  1  0.96312242  0.27324419  0.09476353  1  -1.195958  0  -0.332033  -0.571527  0  2.11816  0
