# generated using pymatgen
data_CuH12(C2N)10
_symmetry_space_group_name_H-M   'P 1'
_cell_length_a   7.30001824
_cell_length_b   9.81431646
_cell_length_c   14.49094257
_cell_angle_alpha   102.61439474
_cell_angle_beta   89.96671954
_cell_angle_gamma   111.74513007
_symmetry_Int_Tables_number   1
_chemical_formula_structural   CuH12(C2N)10
_chemical_formula_sum   'Cu2 H24 C40 N20'
_cell_volume   937.34247259
_cell_formula_units_Z   2
loop_
 _symmetry_equiv_pos_site_id
 _symmetry_equiv_pos_as_xyz
  1  'x, y, z'
loop_
 _atom_site_type_symbol
 _atom_site_label
 _atom_site_symmetry_multiplicity
 _atom_site_fract_x
 _atom_site_fract_y
 _atom_site_fract_z
 _atom_site_occupancy
 _atom_site_hle17_ddec_charge
 _atom_site_hle17_ddec_spin_density
 _atom_site_hle17_ddec_sum_bond_order
 _atom_site_hle17_magmom
 _atom_site_hse06_10hf_ddec_charge
 _atom_site_hse06_10hf_ddec_spin_density
 _atom_site_hse06_10hf_ddec_sum_bond_order
 _atom_site_hse06_10hf_magmom
 _atom_site_hse06_ddec_charge
 _atom_site_hse06_ddec_spin_density
 _atom_site_hse06_ddec_sum_bond_order
 _atom_site_hse06_magmom
 _atom_site_pbe_cm5_charge
 _atom_site_pbe_ddec_charge
 _atom_site_pbe_ddec_spin_density
 _atom_site_pbe_ddec_sum_bond_order
 _atom_site_pbe_magmom
Cu  Cu0  1  0.61161098  0.00013066  0.75001831  1  0.997887  -0.706937  1.974117  -0.535  1.010614  -0.823899  2.388599  -0.699  1.080371  -0.877467  2.332468  -0.774  0.853569  0.958573  -0.774994  2.433057  -0.635
Cu  Cu1  1  0.38839494  0.99987285  0.24998733  1  0.998066  -0.70699  1.974209  -0.535  1.010667  -0.823873  2.388901  -0.699  1.080412  -0.877446  2.332756  -0.774  0.853612  0.958613  -0.774961  2.433372  -0.635
H  H2  1  0.45484803  0.68831343  0.61379226  1  0.108006  0.000498  0.971249  0.0  0.115126  6.4e-05  1.039476  0.0  0.118081  6.2e-05  1.037739  0.0  0.102851  0.113584  1.8e-05  1.039785  0.0
H  H3  1  0.23331594  0.68798341  0.11371191  1  0.108502  0.000521  0.971757  0.0  0.115845  6.4e-05  1.039682  0.0  0.118793  6.1e-05  1.037959  0.0  0.103174  0.114295  1.8e-05  1.040016  0.0
H  H4  1  0.54514964  0.31169001  0.38620854  1  0.108009  0.000499  0.971219  0.0  0.115132  6.5e-05  1.039455  0.0  0.118086  6.1e-05  1.037719  0.0  0.102858  0.11359  1.8e-05  1.039763  0.0
H  H5  1  0.76667262  0.31201549  0.88628687  1  0.108498  0.000511  0.971682  0.0  0.115822  6.5e-05  1.03964  0.0  0.118771  6.1e-05  1.037916  0.0  0.103186  0.11427  1.8e-05  1.039972  0.0
H  H6  1  0.31306857  0.42834653  0.50860863  1  0.092263  0.000297  0.964512  0.0  0.100293  -5e-06  1.030153  0.0  0.102919  -2e-06  1.029446  0.0  0.100237  0.098373  -1.3e-05  1.030701  0.0
H  H7  1  0.11535924  0.42802095  0.00843915  1  0.092751  0.000334  0.964154  0.0  0.100968  -2e-06  1.029419  0.0  0.103607  0.0  1.028731  0.0  0.10024  0.099001  -1.3e-05  1.03005  0.0
H  H8  1  0.68692690  0.57165797  0.49138818  1  0.09224  0.000335  0.964557  0.0  0.100294  -5e-06  1.030197  0.0  0.102919  -2e-06  1.029499  0.0  0.100214  0.098377  -1.3e-05  1.03074  0.0
H  H9  1  0.88462331  0.57198237  0.99155335  1  0.092869  0.000344  0.964168  0.0  0.101033  -2e-06  1.029464  0.0  0.103672  -0.0  1.028775  0.0  0.100263  0.099065  -1.3e-05  1.030095  0.0
H  H10  1  0.20857489  0.20458498  0.57845860  1  0.084237  5.7e-05  0.984932  0.0  0.090688  8e-06  1.052873  0.0  0.092997  2.7e-05  1.052971  0.0  0.09482  0.089303  -2.8e-05  1.052398  0.0
H  H11  1  0.99601508  0.20420630  0.07828717  1  0.084211  9.2e-05  0.984891  0.0  0.090523  1.5e-05  1.053085  0.0  0.092769  3e-05  1.053281  0.0  0.094677  0.089197  -2.8e-05  1.052536  0.0
H  H12  1  0.79142583  0.79542181  0.42154061  1  0.084314  5.2e-05  0.984826  0.0  0.090743  8e-06  1.052768  0.0  0.093044  2.7e-05  1.052878  0.0  0.094848  0.089358  -2.9e-05  1.052299  0.0
H  H13  1  0.00398253  0.79579701  0.92170602  1  0.08429  7.2e-05  0.984891  0.0  0.090611  1.4e-05  1.053071  0.0  0.092865  3e-05  1.053254  0.0  0.094722  0.089283  -2.9e-05  1.052525  0.0
H  H14  1  0.23981330  0.23752865  0.75436855  1  0.095507  0.000618  0.96179  0.0  0.1053  0.000168  1.026789  0.0  0.107352  0.000154  1.026335  0.0  0.099283  0.103895  0.00017  1.026991  0.0
H  H15  1  0.99713623  0.23709876  0.25418461  1  0.095336  0.00063  0.962101  0.0  0.105494  0.000168  1.026705  0.0  0.107469  0.000154  1.026336  0.0  0.099328  0.104112  0.000171  1.026902  0.0
H  H16  1  0.76018541  0.76247135  0.24562900  1  0.095531  0.000621  0.961741  0.0  0.105332  0.000168  1.026734  0.0  0.107386  0.000154  1.026276  0.0  0.099291  0.103926  0.00017  1.026936  0.0
H  H17  1  0.00287090  0.76289890  0.74580778  1  0.095271  0.00063  0.962095  0.0  0.105468  0.000169  1.026661  0.0  0.107439  0.000154  1.026299  0.0  0.099344  0.104088  0.00017  1.026857  0.0
H  H18  1  0.46845074  0.64870856  0.00879601  1  0.079168  0.000231  0.960379  0.0  0.083013  -1e-05  1.032711  0.0  0.086059  6e-06  1.030562  0.0  0.110877  0.080867  -5.5e-05  1.034248  0.0
H  H19  1  0.17983651  0.64831758  0.50872797  1  0.079174  0.00021  0.960135  0.0  0.083154  -9e-06  1.032359  0.0  0.086117  6e-06  1.030314  0.0  0.111113  0.081051  -5.4e-05  1.033814  0.0
H  H20  1  0.53155259  0.35128700  0.99120574  1  0.079131  0.000194  0.960429  0.0  0.082999  -9e-06  1.032728  0.0  0.086026  6e-06  1.030636  0.0  0.110876  0.080855  -5.6e-05  1.034265  0.0
H  H21  1  0.82015599  0.35167000  0.49126712  1  0.079252  0.000192  0.960117  0.0  0.083219  -8e-06  1.032307  0.0  0.086182  6e-06  1.030257  0.0  0.11114  0.081105  -5.5e-05  1.033792  0.0
H  H22  1  0.56075877  0.87693365  0.93833129  1  0.077733  0.000145  0.949  0.0  0.084261  9.4e-05  1.01459  0.0  0.086844  9.3e-05  1.01284  0.0  0.109927  0.082158  5.3e-05  1.016625  0.0
H  H23  1  0.31574604  0.87650506  0.43824384  1  0.078053  0.000149  0.949628  0.0  0.084113  9.3e-05  1.015621  0.0  0.086827  9.2e-05  1.013677  0.0  0.110253  0.081973  5.4e-05  1.017617  0.0
H  H24  1  0.43923442  0.12306081  0.06167168  1  0.077696  0.000151  0.949067  0.0  0.084232  9.5e-05  1.014677  0.0  0.086817  9.2e-05  1.012921  0.0  0.109915  0.082125  5.2e-05  1.016714  0.0
H  H25  1  0.68424600  0.12348710  0.56175605  1  0.078081  0.000172  0.949596  0.0  0.084088  9.3e-05  1.015635  0.0  0.086798  9.2e-05  1.013687  0.0  0.110248  0.081951  5.3e-05  1.017628  0.0
C  C26  1  0.42220930  0.60966167  0.74281295  1  0.160341  0.002426  3.768187  0.002  0.171179  -1.9e-05  4.001762  0.0  0.173807  -7e-06  4.024992  0.0  0.111032  0.168944  -9.1e-05  3.986198  0.0
C  C27  1  0.18693275  0.60927541  0.24269902  1  0.161099  0.002186  3.767694  0.002  0.172057  -4.2e-05  4.000985  0.0  0.174633  -2e-05  4.024368  0.0  0.111433  0.169872  -9.1e-05  3.985316  0.0
C  C28  1  0.57778121  0.39033839  0.25718806  1  0.160348  0.002439  3.768074  0.002  0.171124  -1.9e-05  4.001762  0.0  0.173751  -8e-06  4.024993  0.0  0.111137  0.168893  -9.1e-05  3.986191  0.0
C  C29  1  0.81306540  0.39072350  0.75730113  1  0.161143  0.002208  3.76744  0.002  0.172031  -4.6e-05  4.000794  0.0  0.174603  -1.7e-05  4.024184  0.0  0.111389  0.169841  -9.1e-05  3.985134  0.0
C  C30  1  0.40631435  0.58858099  0.64286247  1  -0.123734  -0.010206  3.695595  -0.009  -0.154735  6.7e-05  3.95509  0.0  -0.158542  0.000109  3.976004  0.0  -0.086764  -0.151735  -0.000157  3.939866  0.0
C  C31  1  0.18199563  0.58823103  0.14275140  1  -0.124261  -0.010241  3.695044  -0.009  -0.156017  6.9e-05  3.955398  0.0  -0.159822  0.000111  3.976381  0.0  -0.087236  -0.153005  -0.000156  3.940165  0.0
C  C32  1  0.59368308  0.41142473  0.35714003  1  -0.123763  -0.010213  3.695708  -0.009  -0.154759  6.5e-05  3.955277  0.0  -0.158565  0.00011  3.976194  0.0  -0.086797  -0.15176  -0.000157  3.940043  0.0
C  C33  1  0.81799702  0.41176782  0.85724461  1  -0.124163  -0.010239  3.69494  -0.009  -0.155917  7.1e-05  3.955281  0.0  -0.159719  0.000109  3.976254  0.0  -0.087209  -0.152902  -0.000156  3.940051  0.0
C  C34  1  0.32997149  0.44480139  0.58546975  1  -0.04584  -0.00517  3.739697  -0.005  -0.061782  6e-06  3.993189  0.0  -0.063975  1.4e-05  4.016096  0.0  -0.085032  -0.060168  -2.6e-05  3.977573  0.0
C  C35  1  0.11463121  0.44442744  0.08530773  1  -0.046287  -0.005293  3.73879  -0.005  -0.062221  -9e-06  3.992458  0.0  -0.064442  6e-06  4.015344  0.0  -0.085013  -0.060611  -2.7e-05  3.976895  0.0
C  C36  1  0.67003084  0.55520314  0.41452913  1  -0.045788  -0.005226  3.739891  -0.005  -0.06173  8e-06  3.993339  0.0  -0.063924  1.4e-05  4.016242  0.0  -0.085046  -0.060115  -2.6e-05  3.977719  0.0
C  C37  1  0.88536289  0.55557706  0.91468908  1  -0.046513  -0.005322  3.739017  -0.005  -0.062392  -8e-06  3.99269  0.0  -0.064614  8e-06  4.015574  0.0  -0.085099  -0.06078  -2.7e-05  3.977128  0.0
C  C38  1  0.26904685  0.31708674  0.62524643  1  -0.058671  0.002404  3.755338  0.002  -0.07248  -4.6e-05  4.008415  0.0  -0.075361  -1e-05  4.032449  0.0  -0.090267  -0.070225  -0.000162  3.991511  0.0
C  C39  1  0.04772780  0.31669765  0.12507347  1  -0.058672  0.00209  3.755691  0.001  -0.072546  -6e-05  4.009185  0.0  -0.075383  -1.5e-05  4.033187  0.0  -0.090549  -0.070334  -0.000162  3.992276  0.0
C  C40  1  0.73095904  0.68291669  0.37475437  1  -0.058814  0.002498  3.755273  0.002  -0.072599  -4.7e-05  4.008359  0.0  -0.075474  -1e-05  4.032402  0.0  -0.090288  -0.070346  -0.000162  3.991453  0.0
C  C41  1  0.95227662  0.68330010  0.87492445  1  -0.058811  0.002194  3.755913  0.001  -0.072727  -6e-05  4.009416  0.0  -0.075562  -1.6e-05  4.033409  0.0  -0.090647  -0.070511  -0.000163  3.992512  0.0
C  C42  1  0.28470239  0.33409090  0.72220464  1  -0.110843  -0.009315  3.700258  -0.008  -0.139282  1.6e-05  3.957388  0.0  -0.142571  5.2e-05  3.979774  0.0  -0.086736  -0.137219  -1e-05  3.942121  0.0
C  C43  1  0.04868935  0.33369181  0.22203103  1  -0.111449  -0.009223  3.702356  -0.008  -0.14063  2.9e-05  3.959445  0.0  -0.143842  5.7e-05  3.981867  0.0  -0.086738  -0.138599  -9e-06  3.944178  0.0
C  C44  1  0.71529607  0.66591137  0.27779392  1  -0.110827  -0.009396  3.700112  -0.008  -0.139266  1.7e-05  3.957211  0.0  -0.142556  5.2e-05  3.979596  0.0  -0.086723  -0.137202  -1e-05  3.941943  0.0
C  C45  1  0.95131199  0.66630249  0.77796226  1  -0.111332  -0.009267  3.702198  -0.008  -0.140584  2.7e-05  3.959361  0.0  -0.143793  5.9e-05  3.981784  0.0  -0.086708  -0.138552  -1e-05  3.944101  0.0
C  C46  1  0.36152027  0.48018558  0.78331417  1  0.152849  -0.001678  3.78188  -0.001  0.158453  4e-05  4.018737  0.0  0.160472  3.5e-05  4.041106  0.0  0.109906  0.156687  -9.8e-05  4.004296  0.0
C  C47  1  0.11791296  0.47978703  0.28319420  1  0.152592  -0.001759  3.783911  -0.001  0.159164  2.1e-05  4.019361  0.0  0.161101  3e-05  4.041919  0.0  0.109609  0.157397  -9.6e-05  4.004826  0.0
C  C48  1  0.63847271  0.51981670  0.21668439  1  0.152819  -0.001625  3.781738  -0.001  0.158515  3.9e-05  4.018539  0.0  0.160535  3.6e-05  4.040908  0.0  0.109904  0.156748  -9.8e-05  4.004094  0.0
C  C49  1  0.88208710  0.52021295  0.71680197  1  0.152735  -0.001762  3.783779  -0.001  0.159318  2.8e-05  4.019247  0.0  0.161254  2.8e-05  4.041806  0.0  0.109649  0.157553  -9.6e-05  4.004718  0.0
C  C50  1  0.45025776  0.63503212  0.93207258  1  0.082521  -0.004548  3.703005  -0.004  0.058645  -3.5e-05  3.962431  0.0  0.061421  -2.7e-05  3.977276  0.0  0.053346  0.056575  -0.000126  3.952543  0.0
C  C51  1  0.18425356  0.63464526  0.43198515  1  0.08172  -0.004569  3.700681  -0.004  0.057725  -3.7e-05  3.960275  0.0  0.060538  -2.5e-05  3.975201  0.0  0.052523  0.055606  -0.000124  3.950401  0.0
C  C52  1  0.54974581  0.36496116  0.06792747  1  0.082638  -0.00444  3.702884  -0.004  0.058772  -3.7e-05  3.962321  0.0  0.061542  -2.5e-05  3.977158  0.0  0.053403  0.056701  -0.000126  3.952434  0.0
C  C53  1  0.81575053  0.36534908  0.56801091  1  0.08159  -0.004501  3.700629  -0.004  0.057626  -3.9e-05  3.960197  0.0  0.06044  -2.6e-05  3.975122  0.0  0.052502  0.055507  -0.000124  3.950318  0.0
C  C54  1  0.50506190  0.76317539  0.89255981  1  0.082  0.00265  3.714607  0.002  0.058169  0.00013  3.977555  0.0  0.062595  0.00015  3.993442  0.0  0.049307  0.055194  4.7e-05  3.96655  0.0
C  C55  1  0.25757659  0.76276880  0.39247170  1  0.081864  0.002397  3.715743  0.002  0.058449  0.000116  3.978462  0.0  0.062817  0.000145  3.994324  0.0  0.049168  0.055532  4.5e-05  3.96744  0.0
C  C56  1  0.49493732  0.23682017  0.10744125  1  0.081992  0.002554  3.714669  0.002  0.058147  0.000132  3.977656  0.0  0.062575  0.000149  3.993535  0.0  0.049276  0.05517  4.7e-05  3.966647  0.0
C  C57  1  0.74241988  0.23722673  0.60752797  1  0.081889  0.002384  3.715834  0.002  0.058497  0.000118  3.978527  0.0  0.062877  0.000144  3.994375  0.0  0.049149  0.05558  4.4e-05  3.967502  0.0
C  C58  1  0.30131230  0.06858748  0.87482637  1  0.509056  0.010433  3.954858  0.004  0.487975  -0.002074  4.239675  -0.008  0.517374  -0.000169  4.249706  -0.006  0.327044  0.466566  -0.003301  4.232538  -0.009
C  C59  1  0.76649240  0.06823286  0.37494568  1  0.509402  0.010497  3.952929  0.004  0.488319  -0.00211  4.23803  -0.008  0.517702  -0.000191  4.248203  -0.006  0.328407  0.467075  -0.003332  4.230319  -0.009
C  C60  1  0.69869492  0.93141039  0.12517915  1  0.508963  0.010341  3.954524  0.004  0.487955  -0.002073  4.239274  -0.008  0.517365  -0.000168  4.249309  -0.006  0.327053  0.466542  -0.003303  4.232127  -0.009
C  C61  1  0.23352618  0.93177406  0.62506251  1  0.509389  0.010542  3.952895  0.004  0.488208  -0.002107  4.23809  -0.008  0.517586  -0.000188  4.248264  -0.006  0.328277  0.466958  -0.003329  4.230383  -0.009
C  C62  1  0.98899987  0.07070783  0.87587053  1  0.518968  0.009539  3.938746  0.003  0.496955  -0.002531  4.224124  -0.009  0.526875  -0.000631  4.233494  -0.006  0.328712  0.475302  -0.003752  4.217045  -0.009
C  C63  1  0.08093866  0.07043999  0.37569381  1  0.518571  0.009497  3.941671  0.003  0.496543  -0.002521  4.227101  -0.009  0.526539  -0.000615  4.236485  -0.006  0.328395  0.474646  -0.003748  4.22044  -0.009
C  C64  1  0.01099829  0.92929111  0.12413101  1  0.518801  0.009438  3.938543  0.003  0.496849  -0.002537  4.223889  -0.009  0.526786  -0.00064  4.233265  -0.006  0.328635  0.475197  -0.00376  4.216812  -0.009
C  C65  1  0.91906126  0.92956795  0.62430763  1  0.51864  0.009467  3.94169  0.003  0.496521  -0.002521  4.22721  -0.009  0.526516  -0.000616  4.236598  -0.006  0.328348  0.474629  -0.003744  4.220561  -0.009
N  N66  1  0.49263734  0.75195383  0.80011561  1  -0.323763  -0.002892  3.162985  -0.005  -0.298724  0.0019  3.444097  0.001  -0.31172  0.002071  3.461283  0.001  -0.299833  -0.288486  0.000616  3.431421  -0.001
N  N67  1  0.25882258  0.75154317  0.30001872  1  -0.324663  -0.002815  3.163067  -0.005  -0.300036  0.001908  3.444501  0.001  -0.313013  0.002079  3.461729  0.001  -0.300259  -0.289864  0.000634  3.431826  0.0
N  N68  1  0.50735591  0.24804623  0.19988540  1  -0.323705  -0.002855  3.162879  -0.005  -0.298724  0.001899  3.444121  0.001  -0.311714  0.002072  3.461298  0.001  -0.299864  -0.28848  0.000614  3.431435  -0.001
N  N69  1  0.74118048  0.24845457  0.69997851  1  -0.324733  -0.002849  3.163042  -0.005  -0.300007  0.001906  3.444377  0.001  -0.31299  0.002079  3.461608  0.001  -0.300179  -0.289837  0.000633  3.431708  0.0
N  N70  1  0.37779357  0.49556326  0.87916788  1  -0.298039  -0.001343  3.033266  -0.002  -0.269033  4.4e-05  3.299253  0.0  -0.27585  6.8e-05  3.313511  0.0  -0.298695  -0.263694  -0.000123  3.289474  0.0
N  N71  1  0.11708742  0.49517797  0.37905850  1  -0.296604  -0.001265  3.030504  -0.002  -0.268074  7e-05  3.296532  0.0  -0.274865  7.6e-05  3.310788  0.0  -0.298002  -0.262787  -0.000122  3.286727  0.0
N  N72  1  0.62220128  0.50443452  0.12083143  1  -0.298094  -0.001416  3.033101  -0.002  -0.269123  4.7e-05  3.299111  0.0  -0.275939  6.6e-05  3.313367  0.0  -0.298755  -0.263784  -0.000123  3.289333  0.0
N  N73  1  0.88291721  0.50481744  0.62093426  1  -0.296618  -0.001313  3.030486  -0.002  -0.268094  6.9e-05  3.296475  0.0  -0.274884  7.7e-05  3.310731  0.0  -0.297996  -0.262807  -0.000122  3.286671  0.0
N  N74  1  0.45287366  0.07100692  0.84563997  1  -0.57469  -0.058601  2.951851  -0.072  -0.565069  -0.040702  3.264553  -0.056  -0.596301  -0.031255  3.267652  -0.046  -0.393335  -0.543205  -0.048162  3.262851  -0.062
N  N75  1  0.61722949  0.07049819  0.34584907  1  -0.573976  -0.058781  2.949359  -0.072  -0.564508  -0.040794  3.262087  -0.056  -0.595745  -0.031292  3.265281  -0.046  -0.393793  -0.542241  -0.048061  3.259203  -0.062
N  N76  1  0.54713120  0.92899446  0.15437365  1  -0.574512  -0.058552  2.951529  -0.072  -0.564989  -0.040706  3.264274  -0.056  -0.596222  -0.031259  3.267367  -0.046  -0.393295  -0.543112  -0.048179  3.262551  -0.062
N  N77  1  0.38276520  0.92950201  0.65416093  1  -0.574006  -0.058777  2.949662  -0.072  -0.564434  -0.040795  3.262389  -0.056  -0.595665  -0.031293  3.265584  -0.046  -0.393718  -0.542159  -0.048077  3.259502  -0.062
N  N78  1  0.14468344  0.06790848  0.91629057  1  -0.43553  -0.023468  3.277126  -0.031  -0.394146  -0.005087  3.539496  -0.008  -0.421135  -0.001446  3.543733  -0.004  -0.292  -0.374101  -0.010028  3.535494  -0.014
N  N79  1  0.92251647  0.06755126  0.41626576  1  -0.435788  -0.023501  3.276983  -0.031  -0.394471  -0.00513  3.539448  -0.008  -0.421544  -0.001463  3.543735  -0.004  -0.292276  -0.374359  -0.01005  3.535472  -0.014
N  N80  1  0.85532211  0.93208604  0.08371656  1  -0.435404  -0.023473  3.277356  -0.031  -0.394008  -0.005089  3.539685  -0.008  -0.421018  -0.001447  3.543939  -0.004  -0.291973  -0.373964  -0.01003  3.535683  -0.014
N  N81  1  0.07749340  0.93246015  0.58374100  1  -0.435693  -0.023525  3.276561  -0.031  -0.39435  -0.005131  3.539039  -0.008  -0.421426  -0.001465  3.543334  -0.004  -0.292162  -0.374232  -0.010054  3.535065  -0.014
N  N82  1  0.84130039  0.07440339  0.84612289  1  -0.570694  -0.05811  2.942816  -0.072  -0.55983  -0.040024  3.250594  -0.055  -0.591149  -0.030536  3.253753  -0.045  -0.391099  -0.537592  -0.047242  3.24791  -0.061
N  N83  1  0.23243308  0.07432489  0.34587541  1  -0.570476  -0.058118  2.945239  -0.071  -0.559504  -0.039952  3.252524  -0.055  -0.59087  -0.03052  3.255751  -0.045  -0.391631  -0.537619  -0.047385  3.250789  -0.061
N  N84  1  0.15872202  0.92558649  0.15387667  1  -0.570674  -0.058095  2.942454  -0.072  -0.559923  -0.04003  3.250267  -0.055  -0.591253  -0.030535  3.253428  -0.045  -0.391118  -0.537686  -0.047234  3.247584  -0.061
N  N85  1  0.76756899  0.92568186  0.65412171  1  -0.57058  -0.058072  2.945218  -0.071  -0.55951  -0.039954  3.252496  -0.055  -0.590878  -0.03052  3.255727  -0.045  -0.391633  -0.537633  -0.047374  3.250779  -0.061
