# generated using pymatgen
data_GdMn2H15(C10O7)2
_symmetry_space_group_name_H-M   'P 1'
_cell_length_a   6.76942413
_cell_length_b   12.55014275
_cell_length_c   30.05961980
_cell_angle_alpha   89.99990371
_cell_angle_beta   89.99893804
_cell_angle_gamma   89.99869047
_symmetry_Int_Tables_number   1
_chemical_formula_structural   GdMn2H15(C10O7)2
_chemical_formula_sum   'Gd4 Mn8 H60 C80 O56'
_cell_volume   2553.78230644
_cell_formula_units_Z   4
loop_
 _symmetry_equiv_pos_site_id
 _symmetry_equiv_pos_as_xyz
  1  'x, y, z'
loop_
 _atom_site_type_symbol
 _atom_site_label
 _atom_site_symmetry_multiplicity
 _atom_site_fract_x
 _atom_site_fract_y
 _atom_site_fract_z
 _atom_site_occupancy
 _atom_site_pbe_bader_charge
 _atom_site_pbe_bader_spin_density
 _atom_site_pbe_cm5_charge
 _atom_site_pbe_ddec_charge
 _atom_site_pbe_ddec_spin_density
 _atom_site_pbe_ddec_sum_bond_order
 _atom_site_pbe_magmom
Gd  Gd0  1  0.52899674  0.56253188  0.53190162  1  2.178393  0  1.467513  2.058244  0  2.158537  0
Gd  Gd1  1  0.02900078  0.43746405  0.46809585  1  2.178389  0  1.467542  2.058267  0  2.158575  0
Gd  Gd2  1  0.52898278  0.93746644  0.03190315  1  2.178464  0  1.46744  2.058331  0  2.158486  0
Gd  Gd3  1  0.02900144  0.06253188  0.96809200  1  2.178434  0  1.467471  2.058268  0  2.158625  0
Mn  Mn4  1  0.30133438  0.18005300  0.62963800  1  0.934622  0  0.476263  -0.067309  0  5.415013  0
Mn  Mn5  1  0.80132986  0.81995386  0.37035899  1  0.934473  0  0.476097  -0.067469  0  5.414896  0
Mn  Mn6  1  0.30137851  0.31994801  0.12964593  1  0.934466  0  0.476281  -0.067219  0  5.414753  0
Mn  Mn7  1  0.80132562  0.68004531  0.87036703  1  0.934537  0  0.476103  -0.067555  0  5.415322  0
Mn  Mn8  1  0.63631785  0.78467258  0.69972646  1  0.929916  0  0.471526  -0.068732  0  5.454393  0
Mn  Mn9  1  0.13633751  0.21533715  0.30027689  1  0.930818  0  0.471602  -0.068611  0  5.454297  0
Mn  Mn10  1  0.63634714  0.71534048  0.19971949  1  0.93051  0  0.471676  -0.068405  0  5.454445  0
Mn  Mn11  1  0.13637618  0.28466606  0.80027520  1  0.930351  0  0.471571  -0.068516  0  5.45413  0
H  H12  1  0.66166105  0.76610649  0.49677940  1  0.631476  0  0.319513  0.412019  0  0.895453  0
H  H13  1  0.16167810  0.23389335  0.50322384  1  0.631461  0  0.319514  0.412039  0  0.895444  0
H  H14  1  0.66166786  0.73389234  0.99678108  1  0.631495  0  0.319546  0.412107  0  0.895334  0
H  H15  1  0.16166834  0.26610990  0.00321784  1  0.631629  0  0.319523  0.41205  0  0.895405  0
H  H16  1  0.85011034  0.69246633  0.48668243  1  0.65884  0  0.301664  0.397905  0  0.942452  0
H  H17  1  0.35010133  0.30754072  0.51332168  1  0.658834  0  0.301636  0.397853  0  0.94253  0
H  H18  1  0.85011851  0.80753735  0.98668339  1  0.658847  0  0.301663  0.397957  0  0.942356  0
H  H19  1  0.35010351  0.19245774  0.01331440  1  0.658945  0  0.301738  0.397973  0  0.942352  0
H  H20  1  0.22032530  0.70231318  0.48917879  1  0.641502  0  0.299668  0.402049  0  0.928457  0
H  H21  1  0.72032220  0.29769868  0.51082054  1  0.641472  0  0.29962  0.401996  0  0.928513  0
H  H22  1  0.22033240  0.79767845  0.98917510  1  0.641283  0  0.299653  0.40205  0  0.92843  0
H  H23  1  0.72034022  0.20232145  0.01082157  1  0.641437  0  0.299716  0.402127  0  0.92833  0
H  H24  1  0.32433846  0.76815075  0.53066410  1  0.657015  0  0.29371  0.392324  0  0.943903  0
H  H25  1  0.82436662  0.23185822  0.46933779  1  0.657399  0  0.293654  0.392274  0  0.943991  0
H  H26  1  0.32435376  0.73185492  0.03066478  1  0.657064  0  0.29372  0.392293  0  0.943956  0
H  H27  1  0.82432620  0.26815244  0.96933046  1  0.656793  0  0.293582  0.392139  0  0.94417  0
H  H28  1  0.51047381  0.34093582  0.67948311  1  0.16253  0  0.121426  0.139495  0  1.004835  0
H  H29  1  0.01047625  0.65904440  0.32052409  1  0.162534  0  0.121459  0.139579  0  1.004594  0
H  H30  1  0.51045965  0.15905201  0.17947619  1  0.162171  0  0.121431  0.139583  0  1.004724  0
H  H31  1  0.01046382  0.84093060  0.82051970  1  0.162376  0  0.121447  0.139471  0  1.004724  0
H  H32  1  0.54129491  0.13611241  0.70762786  1  0.123359  0  0.118455  0.133304  0  1.006757  0
H  H33  1  0.04130146  0.86386026  0.29237123  1  0.123284  0  0.118435  0.133375  0  1.006884  0
H  H34  1  0.54132095  0.36386617  0.20763077  1  0.12321  0  0.118464  0.133341  0  1.00686  0
H  H35  1  0.04131825  0.63611207  0.79237298  1  0.123262  0  0.118421  0.133267  0  1.006756  0
H  H36  1  0.60006174  0.01191120  0.63516745  1  0.152648  0  0.118851  0.130151  0  1.018954  0
H  H37  1  0.10012070  0.98809579  0.36482175  1  0.152511  0  0.118857  0.130098  0  1.018844  0
H  H38  1  0.60011215  0.48808126  0.13518490  1  0.152319  0  0.118894  0.1302  0  1.018922  0
H  H39  1  0.10012051  0.51190182  0.86482259  1  0.152468  0  0.118792  0.130011  0  1.018968  0
H  H40  1  0.60044468  0.13791628  0.56278525  1  0.129063  0  0.131938  0.15385  0  0.947857  0
H  H41  1  0.10051774  0.86209548  0.43720627  1  0.129537  0  0.131918  0.153889  0  0.947855  0
H  H42  1  0.60046341  0.36209957  0.06279581  1  0.129161  0  0.131942  0.153872  0  0.947834  0
H  H43  1  0.10048866  0.63790104  0.93720968  1  0.129447  0  0.131934  0.153885  0  0.948006  0
H  H44  1  0.32992221  0.93133584  0.66858694  1  0.125463  0  0.114122  0.124754  0  1.03897  0
H  H45  1  0.82990346  0.06868262  0.33141527  1  0.125847  0  0.114211  0.124825  0  1.038914  0
H  H46  1  0.32989114  0.56867799  0.16859738  1  0.125843  0  0.114129  0.124825  0  1.038808  0
H  H47  1  0.82985181  0.43130541  0.83139817  1  0.125087  0  0.114124  0.124925  0  1.038683  0
H  H48  1  0.31962078  0.86696356  0.75472546  1  0.146707  0  0.121576  0.13862  0  0.967277  0
H  H49  1  0.81961378  0.13305264  0.24527645  1  0.147193  0  0.121542  0.138533  0  0.967362  0
H  H50  1  0.31961656  0.63307397  0.25472854  1  0.147298  0  0.121528  0.138559  0  0.967312  0
H  H51  1  0.81961651  0.36692709  0.74526905  1  0.147231  0  0.121582  0.138482  0  0.967529  0
H  H52  1  0.38709177  0.65372970  0.75600485  1  0.146118  0  0.11273  0.124687  0  1.035535  0
H  H53  1  0.88711439  0.34628565  0.24399910  1  0.146113  0  0.112718  0.124692  0  1.035594  0
H  H54  1  0.38709491  0.84629582  0.25600046  1  0.146171  0  0.112774  0.124835  0  1.035461  0
H  H55  1  0.88709056  0.15370519  0.74399385  1  0.14608  0  0.112766  0.124812  0  1.035452  0
H  H56  1  0.45063226  0.58989593  0.67091618  1  0.151162  0  0.126846  0.150361  0  0.976149  0
H  H57  1  0.95064821  0.41011464  0.32909117  1  0.151751  0  0.126874  0.150485  0  0.97613  0
H  H58  1  0.45061650  0.91010761  0.17091240  1  0.151492  0  0.126805  0.150336  0  0.976213  0
H  H59  1  0.95061523  0.08988543  0.82908431  1  0.151415  0  0.126822  0.150417  0  0.976215  0
H  H60  1  0.86782960  0.58317238  0.61753139  1  0.112767  0  0.112912  0.172511  0  1.000775  0
H  H61  1  0.36783561  0.41681452  0.38247198  1  0.112661  0  0.112909  0.172605  0  1.000745  0
H  H62  1  0.86781208  0.91685801  0.11753426  1  0.112303  0  0.11301  0.172791  0  1.000587  0
H  H63  1  0.36781916  0.08313128  0.88246212  1  0.112277  0  0.113087  0.172828  0  1.000595  0
H  H64  1  0.01337628  0.68329139  0.59165225  1  0.114313  0  0.116743  0.180743  0  0.981908  0
H  H65  1  0.51338521  0.31670394  0.40835294  1  0.114719  0  0.116768  0.180777  0  0.98178  0
H  H66  1  0.01334963  0.81672989  0.09166251  1  0.114105  0  0.116626  0.180648  0  0.98189  0
H  H67  1  0.51336310  0.18326384  0.90833470  1  0.113372  0  0.116643  0.180693  0  0.981951  0
H  H68  1  0.13303723  0.58114752  0.62290726  1  0.082488  0  0.108807  0.171489  0  0.994757  0
H  H69  1  0.63303264  0.41884631  0.37709877  1  0.082755  0  0.108847  0.171638  0  0.994789  0
H  H70  1  0.13301519  0.91888409  0.12290447  1  0.08256  0  0.108752  0.171566  0  0.994725  0
H  H71  1  0.63302957  0.08111452  0.87708492  1  0.082745  0  0.108787  0.171597  0  0.994615  0
C  C72  1  0.54194364  0.36848689  0.58357630  1  1.544538  0  0.213257  0.597532  0  4.198225  0
C  C73  1  0.04196746  0.63151126  0.41642644  1  1.544155  0  0.213247  0.597405  0  4.198243  0
C  C74  1  0.54196756  0.13152244  0.08357505  1  1.543652  0  0.213265  0.597637  0  4.198139  0
C  C75  1  0.04193911  0.86847173  0.91642203  1  1.545195  0  0.213427  0.597694  0  4.198259  0
C  C76  1  0.55395883  0.27196754  0.61138039  1  -0.091762  0  -0.056928  -0.05233  0  3.934158  0
C  C77  1  0.05394988  0.72803206  0.38862131  1  -0.091387  0  -0.056754  -0.051894  0  3.933793  0
C  C78  1  0.55400384  0.22803436  0.11137841  1  -0.091385  0  -0.056962  -0.052457  0  3.934415  0
C  C79  1  0.05395657  0.77196365  0.88861930  1  -0.091715  0  -0.056939  -0.052366  0  3.934294  0
C  C80  1  0.53566288  0.27099228  0.65907265  1  -0.134875  0  -0.113821  -0.102445  0  3.868318  0
C  C81  1  0.03562824  0.72900118  0.34092979  1  -0.134915  0  -0.11393  -0.102518  0  3.868348  0
C  C82  1  0.53566944  0.22900011  0.15906667  1  -0.134945  0  -0.113947  -0.102631  0  3.868649  0
C  C83  1  0.03563793  0.77098060  0.84092944  1  -0.134859  0  -0.113807  -0.10226  0  3.868012  0
C  C84  1  0.55182690  0.16379098  0.67349765  1  -0.143672  0  -0.112173  -0.074797  0  3.887371  0
C  C85  1  0.05180965  0.83620307  0.32650239  1  -0.143791  0  -0.112174  -0.075109  0  3.887588  0
C  C86  1  0.55187035  0.33620274  0.17349892  1  -0.143163  0  -0.112267  -0.075033  0  3.887587  0
C  C87  1  0.05182234  0.66378254  0.82650245  1  -0.143479  0  -0.112166  -0.074868  0  3.887246  0
C  C88  1  0.58111742  0.09759481  0.63521769  1  -0.145809  0  -0.115313  -0.088148  0  3.879286  0
C  C89  1  0.08116076  0.90240445  0.36477990  1  -0.145483  0  -0.115356  -0.087988  0  3.878759  0
C  C90  1  0.58118470  0.40239789  0.13522290  1  -0.145098  0  -0.115357  -0.088057  0  3.879321  0
C  C91  1  0.08112007  0.59758941  0.86478134  1  -0.145634  0  -0.115197  -0.087886  0  3.879054  0
C  C92  1  0.58132884  0.16420767  0.59693940  1  -0.170726  0  -0.103132  -0.080211  0  3.845613  0
C  C93  1  0.08134819  0.83579318  0.40305852  1  -0.171304  0  -0.103115  -0.080422  0  3.845524  0
C  C94  1  0.58134867  0.33580112  0.09694400  1  -0.171201  0  -0.103143  -0.080278  0  3.845732  0
C  C95  1  0.08134017  0.66420611  0.90306058  1  -0.171152  0  -0.103171  -0.080361  0  3.845507  0
C  C96  1  0.41636568  0.75659478  0.60419612  1  1.642109  0  0.224586  0.620368  0  4.201594  0
C  C97  1  0.91636687  0.24340984  0.39580705  1  1.64191  0  0.224669  0.620471  0  4.201453  0
C  C98  1  0.41635834  0.74340865  0.10419711  1  1.642246  0  0.224373  0.620212  0  4.201969  0
C  C99  1  0.91637126  0.25659198  0.89580040  1  1.640956  0  0.224553  0.620483  0  4.201744  0
C  C100  1  0.39876531  0.76096367  0.65375233  1  -0.083829  0  -0.046388  -0.032257  0  3.899093  0
C  C101  1  0.89879733  0.23904994  0.34624925  1  -0.082639  0  -0.046484  -0.032282  0  3.89923  0
C  C102  1  0.39877736  0.73905015  0.15375267  1  -0.083659  0  -0.046414  -0.032076  0  3.899006  0
C  C103  1  0.89881631  0.26095947  0.84624425  1  -0.083398  0  -0.04641  -0.032115  0  3.898983  0
C  C104  1  0.35446165  0.85148955  0.68089379  1  -0.129021  0  -0.119678  -0.117881  0  3.883644  0
C  C105  1  0.85447899  0.14852062  0.31910465  1  -0.129882  0  -0.119649  -0.117835  0  3.883616  0
C  C106  1  0.35448043  0.64852312  0.18089752  1  -0.129513  0  -0.119452  -0.117706  0  3.883464  0
C  C107  1  0.85451634  0.35147590  0.81909227  1  -0.128836  0  -0.11975  -0.118304  0  3.884278  0
C  C108  1  0.34654110  0.81648035  0.72597256  1  -0.222729  0  -0.112475  -0.067521  0  3.884847  0
C  C109  1  0.84653999  0.18352754  0.27402857  1  -0.223239  0  -0.112467  -0.067527  0  3.885117  0
C  C110  1  0.34652887  0.68353463  0.22597228  1  -0.223271  0  -0.112517  -0.067599  0  3.885224  0
C  C111  1  0.84655073  0.31646449  0.77402021  1  -0.223047  0  -0.112557  -0.067199  0  3.885391  0
C  C112  1  0.38292463  0.70445988  0.72685943  1  -0.147356  0  -0.124238  -0.099705  0  3.909139  0
C  C113  1  0.88292483  0.29554038  0.27313955  1  -0.146977  0  -0.12414  -0.099512  0  3.908965  0
C  C114  1  0.38295057  0.79553871  0.22686405  1  -0.147567  0  -0.124106  -0.09966  0  3.909566  0
C  C115  1  0.88294468  0.20445597  0.77313393  1  -0.148361  0  -0.123987  -0.099684  0  3.909161  0
C  C116  1  0.41683257  0.67010955  0.68216253  1  -0.146377  0  -0.111099  -0.095827  0  3.85168  0
C  C117  1  0.91685870  0.32989905  0.31783830  1  -0.148248  0  -0.111224  -0.096179  0  3.851807  0
C  C118  1  0.41683640  0.82989516  0.18216613  1  -0.146886  0  -0.111239  -0.096229  0  3.851985  0
C  C119  1  0.91682976  0.17010308  0.81783537  1  -0.146566  0  -0.111134  -0.096169  0  3.85176  0
C  C120  1  0.13037952  0.28727595  0.63261574  1  0.858295  0  0.029253  0.12825  0  3.745071  0
C  C121  1  0.63035312  0.71272747  0.36739761  1  0.85853  0  0.029521  0.128398  0  3.744746  0
C  C122  1  0.13041187  0.21272639  0.13261843  1  0.858122  0  0.029639  0.128572  0  3.744733  0
C  C123  1  0.63035918  0.78725552  0.86740058  1  0.858022  0  0.029415  0.128297  0  3.744762  0
C  C124  1  0.18282960  0.12521303  0.58208378  1  0.869426  0  0.030889  0.127782  0  3.762318  0
C  C125  1  0.68286174  0.87482320  0.41791505  1  0.869229  0  0.030919  0.127782  0  3.762606  0
C  C126  1  0.18289655  0.37481834  0.08208568  1  0.869286  0  0.031094  0.127911  0  3.762716  0
C  C127  1  0.68284502  0.62517646  0.91792080  1  0.869756  0  0.030915  0.127928  0  3.762902  0
C  C128  1  0.14739227  0.10528582  0.66555731  1  0.846364  0  0.024155  0.122403  0  3.778723  0
C  C129  1  0.64741860  0.89472057  0.33443402  1  0.845872  0  0.024061  0.122234  0  3.779336  0
C  C130  1  0.14745692  0.39469626  0.16556951  1  0.845393  0  0.023958  0.122215  0  3.779359  0
C  C131  1  0.64740270  0.60528863  0.83443978  1  0.845802  0  0.024225  0.12232  0  3.779071  0
C  C132  1  0.74244012  0.87225889  0.73944061  1  0.843275  0  0.018999  0.11094  0  3.780824  0
C  C133  1  0.24247850  0.12774154  0.26056362  1  0.843193  0  0.019015  0.111118  0  3.781053  0
C  C134  1  0.74248193  0.62774950  0.23943571  1  0.843045  0  0.018953  0.110891  0  3.780729  0
C  C135  1  0.24247067  0.37226129  0.76056486  1  0.843475  0  0.018922  0.111026  0  3.780642  0
C  C136  1  0.79010861  0.83500180  0.65661978  1  0.858627  0  0.023013  0.118482  0  3.779174  0
C  C137  1  0.29011207  0.16498050  0.34337526  1  0.858108  0  0.022959  0.118344  0  3.77975  0
C  C138  1  0.79011045  0.66499276  0.15662184  1  0.858808  0  0.022909  0.118426  0  3.77992  0
C  C139  1  0.29017079  0.33501265  0.84337055  1  0.858195  0  0.022772  0.118167  0  3.779315  0
C  C140  1  0.80486857  0.68096590  0.71199077  1  0.845376  0  0.020577  0.124036  0  3.765952  0
C  C141  1  0.30486422  0.31905366  0.28800754  1  0.840928  0  0.02059  0.124055  0  3.765711  0
C  C142  1  0.80489057  0.81903941  0.21198440  1  0.84108  0  0.020558  0.123989  0  3.765778  0
C  C143  1  0.30492494  0.18095067  0.78800693  1  0.840938  0  0.020749  0.124181  0  3.765709  0
C  C144  1  0.02394143  0.53455284  0.55912792  1  1.511738  0  0.243821  0.774636  0  4.044102  0
C  C145  1  0.52395036  0.46544634  0.44087656  1  1.511772  0  0.243726  0.774631  0  4.043974  0
C  C146  1  0.02394551  0.96545728  0.05912710  1  1.511728  0  0.243693  0.774564  0  4.044084  0
C  C147  1  0.52394480  0.03454349  0.94087040  1  1.511836  0  0.243988  0.775039  0  4.043837  0
C  C148  1  0.00868156  0.59836408  0.60081408  1  -0.105965  0  -0.232353  -0.551996  0  3.848082  0
C  C149  1  0.50868178  0.40163689  0.39919213  1  -0.106267  0  -0.232419  -0.552305  0  3.848342  0
C  C150  1  0.00865876  0.90166041  0.10081364  1  -0.105201  0  -0.23223  -0.552194  0  3.848117  0
C  C151  1  0.50867061  0.09833179  0.89918126  1  -0.104825  0  -0.232403  -0.552464  0  3.848131  0
O  O152  1  0.53795397  0.45901095  0.60163539  1  -1.161051  0  -0.344363  -0.573948  0  2.204973  0
O  O153  1  0.03795202  0.54099203  0.39836471  1  -1.160949  0  -0.344349  -0.57398  0  2.204982  0
O  O154  1  0.53796098  0.04099198  0.10163387  1  -1.160821  0  -0.344285  -0.573951  0  2.20461  0
O  O155  1  0.03797012  0.95899985  0.89835824  1  -1.161643  0  -0.344393  -0.573937  0  2.204549  0
O  O156  1  0.53673097  0.35942974  0.54047331  1  -1.185967  0  -0.34774  -0.647448  0  2.310258  0
O  O157  1  0.03674054  0.64057565  0.45952879  1  -1.185823  0  -0.34782  -0.647486  0  2.310326  0
O  O158  1  0.53672940  0.14057743  0.04047472  1  -1.18572  0  -0.347797  -0.647528  0  2.310426  0
O  O159  1  0.03671848  0.85942796  0.95952339  1  -1.185879  0  -0.347853  -0.647624  0  2.310465  0
O  O160  1  0.50977770  0.67461667  0.58966283  1  -1.200379  0  -0.443313  -0.684942  0  2.339355  0
O  O161  1  0.00979853  0.32538030  0.41034171  1  -1.200444  0  -0.443366  -0.685064  0  2.339504  0
O  O162  1  0.50980092  0.82539840  0.08966477  1  -1.200433  0  -0.443242  -0.685037  0  2.338982  0
O  O163  1  0.00980190  0.17459139  0.91033079  1  -1.199185  0  -0.443285  -0.685011  0  2.338887  0
O  O164  1  0.33599497  0.82709572  0.58066735  1  -1.163435  0  -0.307528  -0.526092  0  2.072444  0
O  O165  1  0.83597502  0.17290911  0.41933283  1  -1.163107  0  -0.307559  -0.526083  0  2.072223  0
O  O166  1  0.33600682  0.67292076  0.08066940  1  -1.163456  0  -0.307381  -0.525882  0  2.073084  0
O  O167  1  0.83600601  0.32707610  0.91932812  1  -1.163178  0  -0.307456  -0.525996  0  2.073159  0
O  O168  1  0.01707290  0.35730853  0.63487546  1  -1.105686  0  -0.153101  -0.133711  0  2.392592  0
O  O169  1  0.51706143  0.64268356  0.36514535  1  -1.105741  0  -0.15327  -0.133816  0  2.39265  0
O  O170  1  0.01707568  0.14269920  0.13486290  1  -1.105242  0  -0.153377  -0.134002  0  2.39252  0
O  O171  1  0.51705423  0.85730803  0.86514295  1  -1.105482  0  -0.153315  -0.133856  0  2.392236  0
O  O172  1  0.10780013  0.09104104  0.55009652  1  -1.107854  0  -0.158559  -0.147804  0  2.371359  0
O  O173  1  0.60781346  0.90900171  0.44989896  1  -1.10772  0  -0.158537  -0.147703  0  2.371562  0
O  O174  1  0.10782577  0.40899218  0.05010705  1  -1.107455  0  -0.158507  -0.147698  0  2.37216  0
O  O175  1  0.60780850  0.59097726  0.94989675  1  -1.108201  0  -0.158509  -0.147791  0  2.37183  0
O  O176  1  0.04396991  0.05729334  0.68947933  1  -1.115674  0  -0.159074  -0.157303  0  2.439877  0
O  O177  1  0.54400653  0.94271036  0.31050877  1  -1.115352  0  -0.158976  -0.157143  0  2.440431  0
O  O178  1  0.04403698  0.44269870  0.18948851  1  -1.115117  0  -0.159101  -0.157279  0  2.440005  0
O  O179  1  0.54402809  0.55729863  0.81050924  1  -1.115179  0  -0.159112  -0.157203  0  2.440229  0
O  O180  1  0.81077452  0.93013504  0.76586627  1  -1.120991  0  -0.167806  -0.163489  0  2.427943  0
O  O181  1  0.31076872  0.06986931  0.23413502  1  -1.121009  0  -0.167798  -0.163576  0  2.428345  0
O  O182  1  0.81076999  0.56987876  0.26586872  1  -1.120826  0  -0.167769  -0.163495  0  2.427945  0
O  O183  1  0.31075110  0.43014073  0.73412824  1  -1.12094  0  -0.167838  -0.163643  0  2.427443  0
O  O184  1  0.88728874  0.86726702  0.62744655  1  -1.108405  0  -0.158183  -0.144969  0  2.395235  0
O  O185  1  0.38728377  0.13273159  0.37255275  1  -1.108112  0  -0.158209  -0.14495  0  2.39543  0
O  O186  1  0.88728602  0.63272405  0.12744796  1  -1.10854  0  -0.15825  -0.145093  0  2.395443  0
O  O187  1  0.38729831  0.36726898  0.87255467  1  -1.108047  0  -0.158086  -0.144843  0  2.395002  0
O  O188  1  0.91137657  0.60983057  0.71999899  1  -1.125219  0  -0.171455  -0.165923  0  2.392596  0
O  O189  1  0.41142604  0.39017252  0.28000087  1  -1.121123  0  -0.171477  -0.166014  0  2.39253  0
O  O190  1  0.91140299  0.89017896  0.21999855  1  -1.121303  0  -0.171479  -0.165963  0  2.392347  0
O  O191  1  0.41141734  0.10981776  0.77999499  1  -1.12108  0  -0.17148  -0.165942  0  2.392762  0
O  O192  1  0.86775174  0.50580290  0.53802177  1  -1.209369  0  -0.421956  -0.726144  0  2.343413  0
O  O193  1  0.36774211  0.49419516  0.46197828  1  -1.209375  0  -0.421918  -0.726076  0  2.343431  0
O  O194  1  0.86775758  0.99419673  0.03802026  1  -1.209331  0  -0.421943  -0.72618  0  2.343475  0
O  O195  1  0.36775843  0.00580133  0.96197779  1  -1.209404  0  -0.42199  -0.726267  0  2.343466  0
O  O196  1  0.19030097  0.50881905  0.54221685  1  -1.207713  0  -0.403482  -0.735877  0  2.347437  0
O  O197  1  0.69030154  0.49118362  0.45778627  1  -1.208041  0  -0.403489  -0.735872  0  2.347318  0
O  O198  1  0.19030251  0.99119144  0.04221767  1  -1.207889  0  -0.403442  -0.735861  0  2.347278  0
O  O199  1  0.69030296  0.00882478  0.95778145  1  -1.207827  0  -0.403641  -0.736166  0  2.347351  0
O  O200  1  0.74022981  0.70675367  0.50797667  1  -1.262719  0  -0.63563  -0.833707  0  2.054348  0
O  O201  1  0.24024087  0.29324520  0.49202491  1  -1.262779  0  -0.635607  -0.833708  0  2.054516  0
O  O202  1  0.74023221  0.79324609  0.00797764  1  -1.262794  0  -0.635652  -0.833842  0  2.054214  0
O  O203  1  0.24023108  0.20675437  0.99202095  1  -1.263035  0  -0.635721  -0.833826  0  2.054244  0
O  O204  1  0.34490806  0.71602058  0.50541260  1  -1.301406  0  -0.642955  -0.866368  0  2.073056  0
O  O205  1  0.84491425  0.28398653  0.49458954  1  -1.301805  0  -0.642866  -0.866264  0  2.073183  0
O  O206  1  0.34491233  0.78398094  0.00541090  1  -1.301302  0  -0.642934  -0.86633  0  2.073077  0
O  O207  1  0.84491147  0.21602457  0.99458258  1  -1.301195  0  -0.642886  -0.866278  0  2.073036  0
