# generated using pymatgen
data_Hf3H10(C9O8)2
_symmetry_space_group_name_H-M   'P 1'
_cell_length_a   12.87452395
_cell_length_b   15.05367292
_cell_length_c   15.08907118
_cell_angle_alpha   90.02310560
_cell_angle_beta   89.90191151
_cell_angle_gamma   89.94669822
_symmetry_Int_Tables_number   1
_chemical_formula_structural   Hf3H10(C9O8)2
_chemical_formula_sum   'Hf6 H20 C36 O32'
_cell_volume   2924.39008356
_cell_formula_units_Z   2
loop_
 _symmetry_equiv_pos_site_id
 _symmetry_equiv_pos_as_xyz
  1  'x, y, z'
loop_
 _atom_site_type_symbol
 _atom_site_label
 _atom_site_symmetry_multiplicity
 _atom_site_fract_x
 _atom_site_fract_y
 _atom_site_fract_z
 _atom_site_occupancy
 _atom_site_pbe_bader_charge
 _atom_site_pbe_bader_spin_density
 _atom_site_pbe_cm5_charge
 _atom_site_pbe_ddec_charge
 _atom_site_pbe_ddec_spin_density
 _atom_site_pbe_ddec_sum_bond_order
 _atom_site_pbe_magmom
Hf  Hf0  1  0.00705084  0.98872026  0.83611218  1  2.595273  0  1.442201  2.119948  0  3.397027  0
Hf  Hf1  1  0.00736804  0.83187631  0.00695679  1  2.612383  0  1.458301  2.153568  0  3.327462  0
Hf  Hf2  1  0.00969150  0.16535919  0.98881923  1  2.597126  0  1.430841  2.125462  0  3.419211  0
Hf  Hf3  1  0.00365192  0.00651175  0.16132350  1  2.604022  0  1.446386  2.136049  0  3.350434  0
Hf  Hf4  1  0.81286360  0.99862607  0.99723183  1  2.622303  0  1.489525  2.122923  0  3.335553  0
Hf  Hf5  1  0.20051576  0.99704395  0.99860992  1  2.625114  0  1.491555  2.117566  0  3.334168  0
H  H6  1  0.15591736  0.86057074  0.86756655  1  0.613423  0  0.344228  0.432568  0  0.828983  0
H  H7  1  0.85558283  0.87004799  0.13382744  1  0.61315  0  0.336862  0.416637  0  0.855752  0
H  H8  1  0.15607206  0.13267515  0.12862857  1  0.61604  0  0.342104  0.429815  0  0.832179  0
H  H9  1  0.86995895  0.13496349  0.85675916  1  0.617393  0  0.337029  0.431039  0  0.839856  0
H  H10  1  0.95390552  0.71093705  0.13308571  1  0.595226  0  0.306907  0.394974  0  0.90066  0
H  H11  1  0.00601293  0.82407687  0.19949461  1  0.648934  0  0.287829  0.406661  0  0.933308  0
H  H12  1  0.95189671  0.13006365  0.27724613  1  0.607637  0  0.300864  0.389209  0  0.913142  0
H  H13  1  0.00425495  0.20076572  0.16960725  1  0.637714  0  0.286648  0.400755  0  0.94135  0
H  H14  1  0.05338336  0.28831518  0.87264011  1  0.576991  0  0.294506  0.395968  0  0.904282  0
H  H15  1  0.95012571  0.07037291  0.67673941  1  0.647549  0  0.344454  0.423035  0  0.85237  0
H  H16  1  0.95441091  0.86517501  0.71897965  1  0.58565  0  0.298419  0.385627  0  0.91867  0
H  H17  1  0.00319766  0.79666432  0.82553457  1  0.650375  0  0.286331  0.402268  0  0.940262  0
H  H18  1  0.93958403  0.27562752  0.11408278  1  0.635608  0  0.327656  0.410165  0  0.87965  0
H  H19  1  0.07312775  0.07698360  0.69165846  1  0.654591  0  0.337192  0.422253  0  0.871411  0
H  H20  1  0.93567970  0.72128683  0.87948550  1  0.605996  0  0.328613  0.41014  0  0.873381  0
H  H21  1  0.07324665  0.87931488  0.27261610  1  0.630678  0  0.326929  0.411406  0  0.876947  0
H  H22  1  0.69930366  0.99835077  0.49559852  1  0.077085  0  0.11942  0.129645  0  0.971157  0
H  H23  1  0.31374966  0.99801648  0.49895072  1  0.119734  0  0.121132  0.132005  0  0.96903  0
H  H24  1  0.69899724  0.49717223  0.99905478  1  0.086873  0  0.121913  0.134833  0  0.965532  0
H  H25  1  0.31301635  0.49716813  0.99734236  1  0.115532  0  0.124939  0.13865  0  0.961407  0
C  C26  1  0.75787365  0.98699914  0.78910038  1  1.641359  0  0.244208  0.700242  0  4.177069  0
C  C27  1  0.25420900  0.78975113  0.00722399  1  1.661332  0  0.24794  0.696527  0  4.173657  0
C  C28  1  0.75663008  0.79008531  0.99700573  1  1.640049  0  0.243437  0.697995  0  4.176055  0
C  C29  1  0.25887313  0.00166686  0.79192995  1  1.689529  0  0.248604  0.702231  0  4.169723  0
C  C30  1  0.25904164  0.20240947  0.98810579  1  1.668245  0  0.247376  0.697355  0  4.175755  0
C  C31  1  0.75627630  0.00964395  0.20430709  1  1.617062  0  0.245812  0.694575  0  4.174765  0
C  C32  1  0.25408510  0.99365421  0.20602105  1  1.661909  0  0.246843  0.69712  0  4.178774  0
C  C33  1  0.75427146  0.20260148  0.00260918  1  1.637089  0  0.246156  0.696318  0  4.180667  0
C  C34  1  0.56274822  0.99691317  0.57827769  1  0.074906  0  0.016358  0.09471  0  4.069974  0
C  C35  1  0.45194461  0.99838882  0.57921496  1  0.072324  0  0.01799  0.099338  0  4.063875  0
C  C36  1  0.39836762  0.99817988  0.49831999  1  -0.00743  0  -0.05452  -0.139558  0  3.860829  0
C  C37  1  0.45031638  0.99825449  0.41647125  1  0.069911  0  0.019314  0.101345  0  4.062777  0
C  C38  1  0.56113385  0.00002209  0.41557681  1  0.272035  0  0.0192  0.098158  0  4.065683  0
C  C39  1  0.61469607  0.99842667  0.49649894  1  0.019693  0  -0.056546  -0.140498  0  3.86674  0
C  C40  1  0.56129298  0.57870475  0.99890016  1  0.205517  0  0.015815  0.091887  0  4.068752  0
C  C41  1  0.45041354  0.57866978  0.99969257  1  0.062435  0  0.019582  0.10077  0  4.060942  0
C  C42  1  0.39764169  0.49713814  0.99773359  1  0.007992  0  -0.053547  -0.139434  0  3.852502  0
C  C43  1  0.45079269  0.41575247  0.99635441  1  0.047076  0  0.019496  0.100312  0  4.065056  0
C  C44  1  0.56155503  0.41576789  0.99832096  1  0.261596  0  0.017798  0.098675  0  4.068121  0
C  C45  1  0.61437236  0.49721959  0.99883387  1  -0.047074  0  -0.056405  -0.142758  0  3.862763  0
C  C46  1  0.39296841  0.33622355  0.99306071  1  0.043775  0  -0.020442  -0.033124  0  4.094678  0
C  C47  1  0.33662908  0.27141189  0.98936264  1  -0.288674  0  -0.025326  -0.163627  0  3.921797  0
C  C48  1  0.67617599  0.27141093  0.00233833  1  0.316359  0  -0.026793  -0.165909  0  3.924032  0
C  C49  1  0.61968767  0.33628190  0.99994522  1  -0.573098  0  -0.022833  -0.035452  0  4.100018  0
C  C50  1  0.39120893  0.65764801  0.00263926  1  -0.229039  0  -0.021849  -0.036034  0  4.08928  0
C  C51  1  0.33187845  0.72061634  0.00605946  1  -0.024026  0  -0.024045  -0.160274  0  3.916812  0
C  C52  1  0.67890749  0.72126284  0.99656469  1  -0.13301  0  -0.03528  -0.185016  0  3.93801  0
C  C53  1  0.62024448  0.65780785  0.99801665  1  -0.120931  0  -0.018571  -0.021728  0  4.093252  0
C  C54  1  0.39058064  0.99640110  0.33807090  1  -0.447228  0  -0.022501  -0.035889  0  4.092205  0
C  C55  1  0.33147017  0.99386807  0.27518453  1  0.193317  0  -0.024973  -0.16241  0  3.918784  0
C  C56  1  0.61960517  0.00363642  0.33637058  1  -0.527841  0  -0.021988  -0.033443  0  4.094024  0
C  C57  1  0.67846843  0.00794405  0.27324408  1  0.276834  0  -0.02653  -0.164731  0  3.925157  0
C  C58  1  0.33634896  0.00254516  0.72278372  1  0.171228  0  -0.028098  -0.170663  0  3.926269  0
C  C59  1  0.39391622  0.00015057  0.65868827  1  -0.429454  0  -0.020237  -0.030505  0  4.091583  0
C  C60  1  0.68046792  0.98941602  0.72016972  1  0.091361  0  -0.031208  -0.176326  0  3.935291  0
C  C61  1  0.62219020  0.99362260  0.65678701  1  -0.323977  0  -0.021711  -0.029772  0  4.100026  0
O  O62  1  0.85206730  0.98355246  0.76104106  1  -1.175503  0  -0.337124  -0.625233  0  2.289082  0
O  O63  1  0.72817922  0.98952854  0.86914499  1  -1.140999  0  -0.316175  -0.543132  0  2.254221  0
O  O64  1  0.16044658  0.76273073  0.00841494  1  -1.141846  0  -0.327744  -0.567352  0  2.264091  0
O  O65  1  0.28542653  0.87023546  0.00558019  1  -1.157298  0  -0.331287  -0.566154  0  2.255952  0
O  O66  1  0.85085903  0.76196289  0.99623089  1  -1.174702  0  -0.336108  -0.620992  0  2.27249  0
O  O67  1  0.72671684  0.87057174  0.99941254  1  -1.150681  0  -0.320781  -0.547508  0  2.244255  0
O  O68  1  0.16480109  0.00681624  0.76465213  1  -1.168676  0  -0.327427  -0.605139  0  2.27754  0
O  O69  1  0.28877458  0.99400454  0.87169717  1  -1.144047  0  -0.316944  -0.545442  0  2.247941  0
O  O70  1  0.01124089  0.87024946  0.76098456  1  -1.231301  0  -0.645253  -0.900482  0  1.95079  0
O  O71  1  0.00449078  0.08699317  0.71846541  1  -1.242554  0  -0.56241  -0.739874  0  2.073493  0
O  O72  1  0.00194635  0.75250486  0.88044597  1  -1.24208  0  -0.594806  -0.783728  0  2.048253  0
O  O73  1  0.00333846  0.75884019  0.12522085  1  -1.237804  0  -0.64244  -0.89962  0  1.945174  0
O  O74  1  0.92442936  0.92613957  0.93206063  1  -1.211526  0  -0.76354  -1.079877  0  2.224908  0
O  O75  1  0.11502464  0.89931472  0.90550015  1  -1.239373  0  -0.649992  -0.956964  0  2.305618  0
O  O76  1  0.16575938  0.23046897  0.98364963  1  -1.15242  0  -0.325339  -0.578614  0  2.287071  0
O  O77  1  0.28907034  0.12175438  0.99278693  1  -1.148392  0  -0.332003  -0.564547  0  2.253963  0
O  O78  1  0.85004700  0.01372266  0.23193652  1  -1.1592  0  -0.333059  -0.592723  0  2.269551  0
O  O79  1  0.72593689  0.00557086  0.12413608  1  -1.140022  0  -0.323341  -0.55342  0  2.24606  0
O  O80  1  0.15993741  0.99009984  0.23282375  1  -1.165502  0  -0.325993  -0.59876  0  2.267977  0
O  O81  1  0.28549259  0.99844403  0.12614996  1  -1.148814  0  -0.32361  -0.553813  0  2.254815  0
O  O82  1  0.84693110  0.22965969  0.01234212  1  -1.155384  0  -0.311382  -0.572665  0  2.283516  0
O  O83  1  0.72477841  0.12225558  0.99149398  1  -1.156118  0  -0.338965  -0.570432  0  2.256697  0
O  O84  1  0.00640936  0.24494163  0.11563685  1  -1.256979  0  -0.594975  -0.780933  0  2.048117  0
O  O85  1  0.99437478  0.25209642  0.88950019  1  -1.201764  0  -0.69693  -0.93148  0  1.842388  0
O  O86  1  0.00841140  0.12485693  0.23478171  1  -1.248775  0  -0.646822  -0.900916  0  1.936733  0
O  O87  1  0.00622877  0.87945977  0.24253443  1  -1.266417  0  -0.597424  -0.790625  0  2.037172  0
O  O88  1  0.11463589  0.09517950  0.09006542  1  -1.245159  0  -0.645684  -0.953074  0  2.291045  0
O  O89  1  0.92456533  0.06801193  0.06115889  1  -1.210686  0  -0.76103  -1.080911  0  2.23166  0
O  O90  1  0.09112968  0.06395083  0.92615997  1  -1.215808  0  -0.755178  -1.069689  0  2.188916  0
O  O91  1  0.89667699  0.90787224  0.09537841  1  -1.248524  0  -0.654409  -0.974721  0  2.361563  0
O  O92  1  0.90340873  0.09186851  0.89534664  1  -1.25447  0  -0.638586  -0.957725  0  2.254825  0
O  O93  1  0.08748248  0.93093841  0.06831125  1  -1.210732  0  -0.75855  -1.067029  0  2.192868  0
