# generated using pymatgen
data_ErZnH11C12(N2O5)2
_symmetry_space_group_name_H-M   'P 1'
_cell_length_a   8.98819354
_cell_length_b   13.00528344
_cell_length_c   18.37076500
_cell_angle_alpha   71.86071301
_cell_angle_beta   75.82409258
_cell_angle_gamma   69.76365997
_symmetry_Int_Tables_number   1
_chemical_formula_structural   ErZnH11C12(N2O5)2
_chemical_formula_sum   'Er4 Zn4 H44 C48 N16 O40'
_cell_volume   1891.93709836
_cell_formula_units_Z   4
loop_
 _symmetry_equiv_pos_site_id
 _symmetry_equiv_pos_as_xyz
  1  'x, y, z'
loop_
 _atom_site_type_symbol
 _atom_site_label
 _atom_site_symmetry_multiplicity
 _atom_site_fract_x
 _atom_site_fract_y
 _atom_site_fract_z
 _atom_site_occupancy
 _atom_site_pbe_bader_charge
 _atom_site_pbe_bader_spin_density
 _atom_site_pbe_cm5_charge
 _atom_site_pbe_ddec_charge
 _atom_site_pbe_ddec_spin_density
 _atom_site_pbe_ddec_sum_bond_order
 _atom_site_pbe_magmom
Er  Er0  1  0.84368849  0.41381630  0.50412889  1  2.190264  0  1.526793  2.133401  0  2.140449  0
Er  Er1  1  0.76156371  0.08620623  0.99587000  1  2.191616  0  1.526388  2.133038  0  2.141082  0
Er  Er2  1  0.15629642  0.58618670  0.49587660  1  2.190266  0  1.526803  2.13349  0  2.140434  0
Er  Er3  1  0.23843745  0.91379346  0.00412716  1  2.191544  0  1.526386  2.132841  0  2.141369  0
Zn  Zn4  1  0.21794789  0.91443172  0.66162936  1  1.288425  0  0.696694  0.768969  0  2.374187  0
Zn  Zn5  1  0.79405157  0.58547524  0.83838378  1  1.287763  0  0.697105  0.769292  0  2.374635  0
Zn  Zn6  1  0.78205445  0.08556795  0.33837092  1  1.28845  0  0.696688  0.768951  0  2.374061  0
Zn  Zn7  1  0.20593874  0.41452021  0.16161616  1  1.287711  0  0.697105  0.76936  0  2.374506  0
H  H8  1  0.51991258  0.38301219  0.56080117  1  0.660344  0  0.306969  0.41492  0  0.907077  0
H  H9  1  0.46376073  0.11686355  0.93922593  1  0.645479  0  0.307754  0.416029  0  0.904786  0
H  H10  1  0.48008552  0.61698663  0.43919927  1  0.660302  0  0.306928  0.414864  0  0.90715  0
H  H11  1  0.53623194  0.88312346  0.06077338  1  0.645516  0  0.307682  0.415946  0  0.904906  0
H  H12  1  0.51990190  0.48076750  0.59173532  1  0.631266  0  0.324089  0.415816  0  0.883489  0
H  H13  1  0.59257617  0.01904392  0.90836686  1  0.625801  0  0.323851  0.415513  0  0.883943  0
H  H14  1  0.48009329  0.51923555  0.40826510  1  0.631058  0  0.324077  0.415832  0  0.88347  0
H  H15  1  0.40742277  0.98094732  0.09163185  1  0.625859  0  0.323821  0.415583  0  0.88388  0
H  H16  1  0.93838667  0.44418772  0.63358933  1  0.655345  0  0.300534  0.403017  0  0.940548  0
H  H17  1  0.01619276  0.05596209  0.86639302  1  0.654098  0  0.30075  0.403347  0  0.940176  0
H  H18  1  0.06160352  0.55581361  0.36641478  1  0.655318  0  0.300537  0.402978  0  0.940615  0
H  H19  1  0.98380002  0.94402744  0.13360790  1  0.654168  0  0.300717  0.403358  0  0.94015  0
H  H20  1  0.79987787  0.38714225  0.67943622  1  0.633512  0  0.343234  0.442397  0  0.833052  0
H  H21  1  0.86641407  0.11279910  0.82055311  1  0.638377  0  0.342092  0.44149  0  0.834059  0
H  H22  1  0.20011099  0.61285400  0.32056861  1  0.633624  0  0.343253  0.442381  0  0.833076  0
H  H23  1  0.13357960  0.88720482  0.17944512  1  0.638459  0  0.342117  0.441492  0  0.834074  0
H  H24  1  0.55997148  0.19000255  0.51692500  1  0.560961  0  0.31767  0.301179  0  0.963007  0
H  H25  1  0.26680386  0.30968338  0.98317207  1  0.550308  0  0.31825  0.301414  0  0.962346  0
H  H26  1  0.44002235  0.81000646  0.48307102  1  0.560964  0  0.317662  0.301113  0  0.963019  0
H  H27  1  0.73319678  0.69031208  0.01682661  1  0.550292  0  0.318365  0.30148  0  0.962401  0
H  H28  1  0.63751152  0.88456964  0.58427754  1  0.078215  0  0.101161  0.147634  0  1.016157  0
H  H29  1  0.10618297  0.61507690  0.91594573  1  0.091428  0  0.101489  0.147909  0  1.014962  0
H  H30  1  0.36250297  0.11543676  0.41572580  1  0.078843  0  0.101194  0.14771  0  1.015929  0
H  H31  1  0.89380419  0.38491513  0.08405751  1  0.091388  0  0.101469  0.147894  0  1.014957  0
H  H32  1  0.63399749  0.94365284  0.65972168  1  0.078995  0  0.109003  0.166792  0  0.962826  0
H  H33  1  0.23747248  0.55614091  0.84046237  1  0.087206  0  0.109331  0.166678  0  0.962877  0
H  H34  1  0.36600534  0.05635948  0.34028069  1  0.07906  0  0.108996  0.166843  0  0.962925  0
H  H35  1  0.76252519  0.44385621  0.15953958  1  0.087152  0  0.109324  0.166667  0  0.96285  0
H  H36  1  0.73063476  0.99385858  0.56500217  1  0.090992  0  0.113536  0.173661  0  0.971482  0
H  H37  1  0.28936736  0.50573358  0.93524179  1  0.090276  0  0.1132  0.173276  0  0.971067  0
H  H38  1  0.26936556  0.00615709  0.43500360  1  0.091171  0  0.113527  0.173719  0  0.971514  0
H  H39  1  0.71062011  0.49426604  0.06476411  1  0.092167  0  0.113205  0.17329  0  0.971087  0
H  H40  1  0.12456378  0.06589494  0.20149410  1  0.054655  0  0.101612  0.150672  0  0.99023  0
H  H41  1  0.39181513  0.43461369  0.29801173  1  0.048494  0  0.102097  0.150726  0  0.991315  0
H  H42  1  0.87543441  0.93410641  0.79850686  1  0.054645  0  0.101561  0.150562  0  0.9902  0
H  H43  1  0.60822681  0.56540643  0.70196897  1  0.048928  0  0.102017  0.150758  0  0.991171  0
H  H44  1  0.17592592  0.18562419  0.13275997  1  0.072688  0  0.095347  0.14397  0  1.043486  0
H  H45  1  0.49452584  0.31517616  0.36683482  1  0.071319  0  0.095076  0.143616  0  1.043456  0
H  H46  1  0.82406491  0.81437550  0.86723789  1  0.072698  0  0.095351  0.143952  0  1.043425  0
H  H47  1  0.50549808  0.68484050  0.63315535  1  0.071483  0  0.095075  0.143642  0  1.043436  0
H  H48  1  0.98425301  0.16737911  0.14343058  1  0.049691  0  0.098731  0.142736  0  1.007031  0
H  H49  1  0.29521438  0.33320046  0.35638836  1  0.044986  0  0.098611  0.142812  0  1.007039  0
H  H50  1  0.01574024  0.83261208  0.85657319  1  0.04951  0  0.098663  0.142623  0  1.00717  0
H  H51  1  0.70481241  0.66683139  0.64360305  1  0.044517  0  0.098707  0.143032  0  1.007046  0
C  C52  1  0.05108907  0.14133827  0.57378303  1  1.656025  0  0.229832  0.62962  0  4.188172  0
C  C53  1  0.76601716  0.35865638  0.92621105  1  1.63896  0  0.227569  0.626941  0  4.192148  0
C  C54  1  0.94891068  0.85866219  0.42622284  1  1.656117  0  0.229827  0.629588  0  4.188455  0
C  C55  1  0.23398784  0.64133405  0.07378384  1  1.63906  0  0.227555  0.626802  0  4.19243  0
C  C56  1  0.22144938  0.13877651  0.56768446  1  0.445356  0  0.098914  0.015433  0  3.947243  0
C  C57  1  0.92781916  0.36108807  0.93233787  1  0.438163  0  0.096954  0.01365  0  3.948951  0
C  C58  1  0.77855260  0.86122401  0.43231514  1  0.445398  0  0.098891  0.015388  0  3.947245  0
C  C59  1  0.07218381  0.63890735  0.06766489  1  0.438287  0  0.097026  0.013821  0  3.948801  0
C  C60  1  0.30340800  0.22027044  0.54096822  1  0.349495  0  0.08655  -0.008513  0  3.927846  0
C  C61  1  0.06452368  0.27954480  0.95909395  1  0.366251  0  0.08846  -0.007069  0  3.932353  0
C  C62  1  0.69658526  0.77973176  0.45903316  1  0.3495  0  0.086602  -0.008582  0  3.927793  0
C  C63  1  0.93547554  0.72045404  0.04090417  1  0.366253  0  0.088428  -0.007178  0  3.932195  0
C  C64  1  0.25273573  0.34392038  0.52007993  1  1.591764  0  0.221336  0.609389  0  4.220258  0
C  C65  1  0.11662825  0.15595432  0.97993057  1  1.585707  0  0.223013  0.612183  0  4.221202  0
C  C66  1  0.74725487  0.65608267  0.47992105  1  1.591989  0  0.22133  0.609471  0  4.219977  0
C  C67  1  0.88337212  0.84403352  0.02006980  1  1.586058  0  0.223038  0.612342  0  4.220879  0
C  C68  1  0.47461438  0.05039344  0.57946963  1  1.034848  0  0.244806  0.433371  0  3.911501  0
C  C69  1  0.10446401  0.44934984  0.92057428  1  1.021041  0  0.245244  0.433598  0  3.912537  0
C  C70  1  0.52538849  0.94961047  0.42052967  1  1.034813  0  0.244806  0.433256  0  3.911755  0
C  C71  1  0.89554412  0.55064140  0.07942386  1  1.021416  0  0.245353  0.433576  0  3.912783  0
C  C72  1  0.62795684  0.96327930  0.59757484  1  -0.04308  0  -0.223549  -0.469573  0  3.893798  0
C  C73  1  0.18876948  0.53640931  0.90259323  1  -0.061462  0  -0.223529  -0.468521  0  3.893161  0
C  C74  1  0.37204395  0.03672965  0.40242688  1  -0.04398  0  -0.223559  -0.469738  0  3.89381  0
C  C75  1  0.81122499  0.46358444  0.09740766  1  -0.06341  0  -0.223525  -0.46848  0  3.893065  0
C  C76  1  0.76254964  0.27407468  0.40955434  1  1.571914  0  0.217006  0.599925  0  4.234306  0
C  C77  1  0.44614563  0.22579269  0.09049382  1  1.584593  0  0.219339  0.602923  0  4.234191  0
C  C78  1  0.23745085  0.72592668  0.59044635  1  1.57212  0  0.217057  0.599955  0  4.234318  0
C  C79  1  0.55384152  0.77421036  0.90950648  1  1.584437  0  0.219333  0.60292  0  4.23459  0
C  C80  1  0.88384458  0.27605697  0.33949317  1  0.439074  0  0.073574  -0.016941  0  4.031923  0
C  C81  1  0.49931029  0.22381942  0.16054279  1  0.445016  0  0.07372  -0.01607  0  4.030403  0
C  C82  1  0.11615125  0.72394183  0.66050972  1  0.438901  0  0.073552  -0.016941  0  4.03195  0
C  C83  1  0.50069295  0.77618361  0.83945883  1  0.445005  0  0.073745  -0.016022  0  4.030239  0
C  C84  1  0.97397419  0.35041045  0.29734136  1  0.372936  0  0.069968  -0.022899  0  4.038132  0
C  C85  1  0.62169350  0.14952803  0.20268999  1  0.387631  0  0.067753  -0.025456  0  4.038787  0
C  C86  1  0.02602481  0.64959174  0.70266042  1  0.373268  0  0.069967  -0.022879  0  4.038313  0
C  C87  1  0.37830980  0.85047757  0.79730835  1  0.387627  0  0.067716  -0.025561  0  4.038858  0
C  C88  1  0.00227895  0.44765824  0.31033668  1  1.565368  0  0.219518  0.593903  0  4.202893  0
C  C89  1  0.76031221  0.05224535  0.18972061  1  1.5515  0  0.218255  0.593887  0  4.203059  0
C  C90  1  0.99771848  0.55234224  0.68966729  1  1.565168  0  0.219471  0.593799  0  4.202743  0
C  C91  1  0.23969563  0.94775768  0.81028155  1  1.55143  0  0.218156  0.593828  0  4.203173  0
C  C92  1  0.01921947  0.22176027  0.23504780  1  1.011988  0  0.216624  0.417082  0  3.963094  0
C  C93  1  0.47608450  0.27845851  0.26481272  1  0.975984  0  0.215455  0.41627  0  3.966063  0
C  C94  1  0.98077714  0.77823938  0.76495427  1  1.011683  0  0.216653  0.417045  0  3.963152  0
C  C95  1  0.52392551  0.72155302  0.73518296  1  0.976522  0  0.215558  0.41652  0  3.966062  0
C  C96  1  0.08037958  0.15666625  0.17480271  1  -0.046073  0  -0.238079  -0.468303  0  3.928501  0
C  C97  1  0.41196697  0.34385952  0.32487963  1  -0.031338  0  -0.237985  -0.467854  0  3.930006  0
C  C98  1  0.91961429  0.84333172  0.82519897  1  -0.045754  0  -0.23798  -0.46803  0  3.928423  0
C  C99  1  0.58805827  0.65616222  0.67510873  1  -0.031963  0  -0.238088  -0.468233  0  3.930044  0
N  N100  1  0.32937605  0.03511238  0.59191414  1  -1.222896  0  -0.34073  -0.366157  0  3.469927  0
N  N101  1  0.95640489  0.46469054  0.90807612  1  -1.212558  0  -0.340413  -0.365737  0  3.471026  0
N  N102  1  0.67062354  0.96488561  0.40808521  1  -1.223009  0  -0.340776  -0.366138  0  3.470087  0
N  N103  1  0.04359449  0.53530239  0.09192163  1  -1.212617  0  -0.340525  -0.36591  0  3.471338  0
N  N104  1  0.46203152  0.16143601  0.54903397  1  -1.267273  0  -0.362207  -0.26895  0  3.55639  0
N  N105  1  0.17244444  0.33828458  0.95104728  1  -1.254635  0  -0.363207  -0.269692  0  3.557304  0
N  N106  1  0.53796117  0.83857299  0.45096273  1  -1.267242  0  -0.362127  -0.268648  0  3.556305  0
N  N107  1  0.82756027  0.66170926  0.04894473  1  -1.254873  0  -0.36335  -0.269747  0  3.557291  0
N  N108  1  0.91531969  0.19568159  0.29962372  1  -1.236388  0  -0.3566  -0.358016  0  3.495648  0
N  N109  1  0.41058976  0.30434080  0.20031157  1  -1.222699  0  -0.355088  -0.356575  0  3.495453  0
N  N110  1  0.08467960  0.80431719  0.70038094  1  -1.236291  0  -0.356605  -0.358049  0  3.495605  0
N  N111  1  0.58941835  0.69566146  0.79968255  1  -1.222603  0  -0.355042  -0.35665  0  3.495332  0
N  N112  1  0.05716772  0.31499260  0.23164200  1  -1.219806  0  -0.354571  -0.389087  0  3.478806  0
N  N113  1  0.60385731  0.18513740  0.26829265  1  -1.202001  0  -0.35307  -0.388352  0  3.479385  0
N  N114  1  0.94283260  0.68500366  0.76836089  1  -1.219846  0  -0.354617  -0.389141  0  3.478972  0
N  N115  1  0.39615446  0.81486991  0.73170320  1  -1.202089  0  -0.3531  -0.38835  0  3.479398  0
O  O116  1  0.95400281  0.23091913  0.53885782  1  -1.216852  0  -0.445957  -0.712018  0  2.337726  0
O  O117  1  0.72337063  0.26916798  0.96112940  1  -1.210934  0  -0.445022  -0.710888  0  2.337157  0
O  O118  1  0.04599692  0.76908135  0.46114641  1  -1.216915  0  -0.446002  -0.712057  0  2.337865  0
O  O119  1  0.27663414  0.73082581  0.03886751  1  -1.210766  0  -0.444979  -0.710785  0  2.337017  0
O  O120  1  0.01564343  0.05180275  0.61148354  1  -1.140399  0  -0.301609  -0.499433  0  2.168524  0
O  O121  1  0.67889750  0.44823744  0.88847187  1  -1.135509  0  -0.300183  -0.49783  0  2.172318  0
O  O122  1  0.98436640  0.94819008  0.38852439  1  -1.140432  0  -0.301565  -0.499363  0  2.168625  0
O  O123  1  0.32111825  0.55174631  0.11151446  1  -1.13597  0  -0.300199  -0.497777  0  2.172469  0
O  O124  1  0.11185352  0.40195816  0.50421126  1  -1.207925  0  -0.418279  -0.72556  0  2.45487  0
O  O125  1  0.01789567  0.09795805  0.99571397  1  -1.209376  0  -0.419742  -0.727726  0  2.45497  0
O  O126  1  0.88813969  0.59804146  0.49579395  1  -1.207949  0  -0.41829  -0.725612  0  2.454681  0
O  O127  1  0.98210947  0.90203486  0.00428580  1  -1.209447  0  -0.419765  -0.727802  0  2.454575  0
O  O128  1  0.35055979  0.39638405  0.51893396  1  -1.195515  0  -0.35259  -0.63732  0  2.25367  0
O  O129  1  0.26578518  0.10346418  0.98108738  1  -1.191837  0  -0.353891  -0.638475  0  2.254859  0
O  O130  1  0.64943123  0.60362071  0.48106387  1  -1.19561  0  -0.352604  -0.637333  0  2.253556  0
O  O131  1  0.73421422  0.89652874  0.01891201  1  -1.191885  0  -0.353816  -0.638446  0  2.254706  0
O  O132  1  0.71397401  0.35706557  0.44177442  1  -1.205199  0  -0.439291  -0.717886  0  2.352546  0
O  O133  1  0.51265706  0.14269091  0.05835043  1  -1.226359  0  -0.439428  -0.718751  0  2.353501  0
O  O134  1  0.28602633  0.64293068  0.55823011  1  -1.205181  0  -0.439278  -0.717885  0  2.352402  0
O  O135  1  0.48733748  0.85730540  0.94164827  1  -1.22638  0  -0.439399  -0.718643  0  2.35392  0
O  O136  1  0.70457249  0.19092890  0.43329795  1  -1.178774  0  -0.290821  -0.523641  0  2.23376  0
O  O137  1  0.32900829  0.30911841  0.06661902  1  -1.181335  0  -0.292385  -0.525863  0  2.233666  0
O  O138  1  0.29542712  0.80906907  0.56670358  1  -1.178897  0  -0.290826  -0.523614  0  2.233895  0
O  O139  1  0.67097710  0.69087786  0.93338352  1  -1.181198  0  -0.292441  -0.525902  0  2.233532  0
O  O140  1  0.94824636  0.47481032  0.37606443  1  -1.207629  0  -0.403755  -0.689579  0  2.350666  0
O  O141  1  0.79920866  0.02507944  0.12399119  1  -1.206669  0  -0.403241  -0.68949  0  2.350467  0
O  O142  1  0.05175415  0.52519102  0.62393789  1  -1.207445  0  -0.40377  -0.689607  0  2.350553  0
O  O143  1  0.20078679  0.97492023  0.87600939  1  -1.206744  0  -0.403107  -0.689263  0  2.350671  0
O  O144  1  0.08701904  0.50052790  0.25637518  1  -1.168716  0  -0.310896  -0.522955  0  2.224118  0
O  O145  1  0.84396173  0.99941463  0.24367141  1  -1.166405  0  -0.309482  -0.521987  0  2.223021  0
O  O146  1  0.91297501  0.49947515  0.74362537  1  -1.168831  0  -0.310856  -0.522844  0  2.224112  0
O  O147  1  0.15604078  0.00059012  0.75632775  1  -1.166293  0  -0.309527  -0.522055  0  2.222788  0
O  O148  1  0.58701212  0.40624348  0.58464199  1  -1.261299  0  -0.622711  -0.834382  0  1.996124  0
O  O149  1  0.57796432  0.09363032  0.91537844  1  -1.240476  0  -0.623471  -0.835355  0  1.994872  0
O  O150  1  0.41297956  0.59375701  0.41536050  1  -1.261055  0  -0.622663  -0.834381  0  1.996121  0
O  O151  1  0.42203197  0.90636177  0.08461987  1  -1.240522  0  -0.623357  -0.835346  0  1.994913  0
O  O152  1  0.86225442  0.40590704  0.62873696  1  -1.265999  0  -0.65214  -0.873071  0  2.100189  0
O  O153  1  0.89688572  0.09430288  0.87121688  1  -1.268664  0  -0.651361  -0.872582  0  2.099713  0
O  O154  1  0.13773426  0.59409513  0.37126607  1  -1.26613  0  -0.652191  -0.87306  0  2.100241  0
O  O155  1  0.10310912  0.90567901  0.12878818  1  -1.268855  0  -0.651339  -0.872542  0  2.099604  0
