# generated using pymatgen
data_ZnH8C12(N3Cl)2
_symmetry_space_group_name_H-M   'P 1'
_cell_length_a   8.25537129
_cell_length_b   11.05033284
_cell_length_c   9.27613161
_cell_angle_alpha   94.76847026
_cell_angle_beta   98.31602969
_cell_angle_gamma   97.89351338
_symmetry_Int_Tables_number   1
_chemical_formula_structural   ZnH8C12(N3Cl)2
_chemical_formula_sum   'Zn2 H16 C24 N12 Cl4'
_cell_volume   824.78841758
_cell_formula_units_Z   2
loop_
 _symmetry_equiv_pos_site_id
 _symmetry_equiv_pos_as_xyz
  1  'x, y, z'
loop_
 _atom_site_type_symbol
 _atom_site_label
 _atom_site_symmetry_multiplicity
 _atom_site_fract_x
 _atom_site_fract_y
 _atom_site_fract_z
 _atom_site_occupancy
 _atom_site_hle17_bader_spin_density
 _atom_site_hle17_ddec_charge
 _atom_site_hle17_ddec_spin_density
 _atom_site_hle17_ddec_sum_bond_order
 _atom_site_hle17_magmom
 _atom_site_hse06_10hf_bader_spin_density
 _atom_site_hse06_10hf_ddec_charge
 _atom_site_hse06_10hf_ddec_spin_density
 _atom_site_hse06_10hf_ddec_sum_bond_order
 _atom_site_hse06_10hf_magmom
 _atom_site_hse06_bader_spin_density
 _atom_site_hse06_ddec_charge
 _atom_site_hse06_ddec_spin_density
 _atom_site_hse06_ddec_sum_bond_order
 _atom_site_hse06_magmom
 _atom_site_pbe_bader_spin_density
 _atom_site_pbe_cm5_charge
 _atom_site_pbe_ddec_charge
 _atom_site_pbe_ddec_spin_density
 _atom_site_pbe_ddec_sum_bond_order
 _atom_site_pbe_magmom
Zn  Zn0  1  0.66752549  0.76006106  0.80196931  1  0  0.805762  0  2.188192  0  0  0.622914  0  2.661234  0  0  0.663584  0  2.619851  0  0  0.564438  0.594523  0  2.689773  0
Zn  Zn1  1  0.33248178  0.23994109  0.19802144  1  0  0.805849  0  2.188256  0  0  0.623007  0  2.661312  0  0  0.663677  0  2.619926  0  0  0.564528  0.594616  0  2.689822  0
H  H2  1  0.00542411  0.88427561  0.96398962  1  0  0.081362  0  0.953698  0  0  0.08367  0  1.029782  0  0  0.086134  0  1.02759  0  0  0.110503  0.081743  0  1.031556  0
H  H3  1  0.99457258  0.11572518  0.03601552  1  0  0.081416  0  0.953664  0  0  0.08369  0  1.02977  0  0  0.086155  0  1.027579  0  0  0.110528  0.081765  0  1.031542  0
H  H4  1  0.24492103  0.82617285  0.12884922  1  0  0.109444  0  0.943819  0  0  0.117231  0  1.002179  0  0  0.119862  0  1.002241  0  0  0.103012  0.115282  0  1.002498  0
H  H5  1  0.75507824  0.17382634  0.87114426  1  0  0.10943  0  0.943791  0  0  0.117209  0  1.002157  0  0  0.119841  0  1.002219  0  0  0.102986  0.115263  0  1.002467  0
H  H6  1  0.20598512  0.62146463  0.23407755  1  0  0.102817  0  0.959652  0  0  0.110606  0  1.022447  0  0  0.113593  0  1.020622  0  0  0.099647  0.108162  0  1.024133  0
H  H7  1  0.79400781  0.37853267  0.76591150  1  0  0.10291  0  0.959676  0  0  0.110706  0  1.022461  0  0  0.113693  0  1.020637  0  0  0.099689  0.108265  0  1.024146  0
H  H8  1  0.92390341  0.49741995  0.18957869  1  0  0.117775  0  0.946603  0  0  0.120565  0  1.017859  0  0  0.124353  0  1.01625  0  0  0.111232  0.117776  0  1.019193  0
H  H9  1  0.07609455  0.50257919  0.81041674  1  0  0.117761  0  0.946554  0  0  0.120556  0  1.017812  0  0  0.124332  0  1.016239  0  0  0.111231  0.117768  0  1.019147  0
H  H10  1  0.40666599  0.60108055  0.56842255  1  0  0.087878  0  0.970917  0  0  0.089662  0  1.045311  0  0  0.092849  0  1.042284  0  0  0.101349  0.087204  0  1.047626  0
H  H11  1  0.59336027  0.39893205  0.43157021  1  0  0.087876  0  0.971047  0  0  0.089677  0  1.045372  0  0  0.092862  0  1.042349  0  0  0.101351  0.087221  0  1.047678  0
H  H12  1  0.10798999  0.59110587  0.46613306  1  0  0.106489  0  0.957553  0  0  0.115271  0  1.019135  0  0  0.118151  0  1.018889  0  0  0.103208  0.113221  0  1.019385  0
H  H13  1  0.89202438  0.40888984  0.53386882  1  0  0.106391  0  0.957609  0  0  0.115193  0  1.019198  0  0  0.118085  0  1.018919  0  0  0.103165  0.113141  0  1.019453  0
H  H14  1  0.95424311  0.76077764  0.55178853  1  0  0.108315  0  0.940796  0  0  0.116752  0  0.999203  0  0  0.120051  0  0.99659  0  0  0.105184  0.114242  0  1.001208  0
H  H15  1  0.04575455  0.23921321  0.44820913  1  0  0.108288  0  0.940882  0  0  0.116705  0  0.999305  0  0  0.12  0  0.996692  0  0  0.105139  0.114195  0  1.00131  0
H  H16  1  0.10548631  0.92547306  0.74136488  1  0  0.116223  0  0.97516  0  0  0.119652  0  1.046266  0  0  0.123882  0  1.04325  0  0  0.101759  0.116576  0  1.048558  0
H  H17  1  0.89449566  0.07451455  0.25864291  1  0  0.116241  0  0.9749  0  0  0.119661  0  1.046039  0  0  0.123889  0  1.043024  0  0  0.101774  0.116583  0  1.048337  0
C  C18  1  0.99363097  0.79948105  0.01646594  1  0  0.148449  0  3.668028  0  0  0.114584  0  3.924943  0  0  0.120946  0  3.943327  0  0  0.05844  0.110504  0  3.912612  0
C  C19  1  0.00635325  0.20051689  0.98352938  1  0  0.148421  0  3.667787  0  0  0.114623  0  3.92466  0  0  0.120984  0  3.94305  0  0  0.058451  0.110531  0  3.91231  0
C  C20  1  0.12710598  0.76510475  0.10629273  1  0  -0.079266  0  3.679  0  0  -0.093894  0  3.930853  0  0  -0.099992  0  3.952347  0  0  -0.071041  -0.090128  0  3.916779  0
C  C21  1  0.87289507  0.23489811  0.89370361  1  0  -0.079304  0  3.679309  0  0  -0.093903  0  3.93111  0  0  -0.100002  0  3.952607  0  0  -0.071029  -0.090137  0  3.91704  0
C  C22  1  0.10454615  0.65424760  0.16700831  1  0  -0.005605  0  3.701282  0  0  -0.023541  0  3.951433  0  0  -0.021559  0  3.970915  0  0  -0.063816  -0.024603  0  3.938536  0
C  C23  1  0.89544199  0.34575051  0.83298117  1  0  -0.00576  0  3.701184  0  0  -0.023748  0  3.951395  0  0  -0.021764  0  3.970875  0  0  -0.063913  -0.024817  0  3.938515  0
C  C24  1  0.94756204  0.58359245  0.14169476  1  0  -0.108631  0  3.675566  0  0  -0.129307  0  3.924098  0  0  -0.135058  0  3.945322  0  0  -0.067771  -0.125619  0  3.910089  0
C  C25  1  0.05243560  0.41640569  0.85830482  1  0  -0.108544  0  3.67534  0  0  -0.129207  0  3.923883  0  0  -0.134966  0  3.945111  0  0  -0.067791  -0.125515  0  3.909871  0
C  C26  1  0.82003802  0.62517357  0.05227453  1  0  0.145201  0  3.761578  0  0  0.141269  0  3.996369  0  0  0.144807  0  4.019374  0  0  0.120225  0.138987  0  3.981012  0
C  C27  1  0.17995415  0.37482816  0.94772355  1  0  0.145188  0  3.761385  0  0  0.141259  0  3.996194  0  0  0.144794  0  4.019206  0  0  0.120286  0.13898  0  3.98083  0
C  C28  1  0.65057512  0.55704976  0.02428998  1  0  0.249097  0  3.717887  0  0  0.237223  0  3.975564  0  0  0.244001  0  3.989415  0  0  0.256125  0.23212  0  3.967313  0
C  C29  1  0.34941904  0.44295011  0.97571250  1  0  0.249086  0  3.718174  0  0  0.237236  0  3.975802  0  0  0.244017  0  3.989651  0  0  0.256075  0.232104  0  3.967577  0
C  C30  1  0.33488120  0.67032698  0.60509444  1  0  0.144547  0  3.661921  0  0  0.109854  0  3.915044  0  0  0.116697  0  3.932035  0  0  0.053912  0.105351  0  3.903784  0
C  C31  1  0.66513153  0.32967890  0.39489975  1  0  0.144432  0  3.662645  0  0  0.109761  0  3.915757  0  0  0.116602  0  3.932757  0  0  0.053859  0.105256  0  3.904497  0
C  C32  1  0.16828517  0.66704892  0.54680856  1  0  -0.098125  0  3.687247  0  0  -0.110045  0  3.936432  0  0  -0.117045  0  3.957934  0  0  -0.072205  -0.105501  0  3.922017  0
C  C33  1  0.83172039  0.33295130  0.45318601  1  0  -0.098052  0  3.686994  0  0  -0.110017  0  3.936163  0  0  -0.117013  0  3.95767  0  0  -0.072176  -0.105475  0  3.921755  0
C  C34  1  0.08438571  0.76025661  0.59372508  1  0  0.01661  0  3.681316  0  0  -0.000386  0  3.925578  0  0  0.003157  0  3.943577  0  0  -0.057399  -0.002589  0  3.913445  0
C  C35  1  0.91561845  0.23972889  0.40627080  1  0  0.016803  0  3.681143  0  0  -0.00015  0  3.925366  0  0  0.003397  0  3.943362  0  0  -0.05726  -0.002361  0  3.913239  0
C  C36  1  0.16830002  0.85225211  0.70111455  1  0  -0.107895  0  3.665473  0  0  -0.129998  0  3.910882  0  0  -0.136526  0  3.932455  0  0  -0.068276  -0.125793  0  3.896428  0
C  C37  1  0.83168844  0.14774392  0.29889092  1  0  -0.108005  0  3.665878  0  0  -0.130135  0  3.911324  0  0  -0.136666  0  3.932903  0  0  -0.068373  -0.125929  0  3.896869  0
C  C38  1  0.33204255  0.84545569  0.75961653  1  0  0.149631  0  3.758011  0  0  0.144838  0  3.99626  0  0  0.14796  0  4.020131  0  0  0.122719  0.143169  0  3.979847  0
C  C39  1  0.66796535  0.15454706  0.24039488  1  0  0.149628  0  3.758011  0  0  0.144866  0  3.996309  0  0  0.147985  0  4.020171  0  0  0.122706  0.143193  0  3.979902  0
C  C40  1  0.42069902  0.92980464  0.88588999  1  0  0.247346  0  3.713696  0  0  0.231559  0  3.977254  0  0  0.23889  0  3.990493  0  0  0.254824  0.226149  0  3.969182  0
C  C41  1  0.57929219  0.07020535  0.11410675  1  0  0.247214  0  3.713292  0  0  0.231295  0  3.976922  0  0  0.238643  0  3.990146  0  0  0.254718  0.22588  0  3.968854  0
N  N42  1  0.84445264  0.73032938  0.98774655  1  0  -0.314354  0  3.276752  0  0  -0.240744  0  3.529521  0  0  -0.258525  0  3.548455  0  0  -0.307522  -0.228706  0  3.516581  0
N  N43  1  0.15554108  0.26967590  0.01226081  1  0  -0.314304  0  3.276152  0  0  -0.240754  0  3.528967  0  0  -0.258533  0  3.547892  0  0  -0.307535  -0.228681  0  3.515984  0
N  N44  1  0.53246834  0.60839737  0.94516102  1  0  -0.143524  0  3.076416  0  0  -0.108285  0  3.352561  0  0  -0.112111  0  3.361327  0  0  -0.140917  -0.106321  0  3.348145  0
N  N45  1  0.46752910  0.39160630  0.05483701  1  0  -0.143584  0  3.076831  0  0  -0.108334  0  3.352958  0  0  -0.112162  0  3.361726  0  0  -0.140884  -0.106356  0  3.348536  0
N  N46  1  0.37916400  0.55134922  0.92004309  1  0  -0.125112  0  2.92166  0  0  -0.11271  0  3.193538  0  0  -0.112471  0  3.202335  0  0  -0.137579  -0.113095  0  3.188606  0
N  N47  1  0.62083091  0.44864791  0.07995919  1  0  -0.125098  0  2.921718  0  0  -0.112682  0  3.193577  0  0  -0.112444  0  3.202372  0  0  -0.137587  -0.113077  0  3.188632  0
N  N48  1  0.41490503  0.75732213  0.70985182  1  0  -0.320088  0  3.307592  0  0  -0.245809  0  3.565182  0  0  -0.26412  0  3.584035  0  0  -0.313701  -0.23336  0  3.552065  0
N  N49  1  0.58510349  0.24269076  0.29015764  1  0  -0.319965  0  3.307806  0  0  -0.245711  0  3.565365  0  0  -0.264022  0  3.584221  0  0  -0.313594  -0.233259  0  3.552219  0
N  N50  1  0.56300494  0.89960167  0.95571310  1  0  -0.151388  0  3.125568  0  0  -0.109694  0  3.405754  0  0  -0.113325  0  3.412971  0  0  -0.147633  -0.108092  0  3.402443  0
N  N51  1  0.43697443  0.10041337  0.04429641  1  0  -0.151355  0  3.125452  0  0  -0.109445  0  3.405466  0  0  -0.113086  0  3.412685  0  0  -0.14765  -0.107839  0  3.402147  0
N  N52  1  0.64455182  0.97026907  0.07155938  1  0  -0.118984  0  2.904927  0  0  -0.107877  0  3.174374  0  0  -0.106694  0  3.180573  0  0  -0.138975  -0.109128  0  3.171287  0
N  N53  1  0.35544360  0.02973083  0.92844222  1  0  -0.119181  0  2.905028  0  0  -0.108158  0  3.174415  0  0  -0.106971  0  3.180625  0  0  -0.139045  -0.109412  0  3.171321  0
Cl  Cl54  1  0.72086467  0.58660846  0.66605298  1  0  -0.58619  0  0.888574  0  0  -0.536568  0  1.140199  0  0  -0.555084  0  1.121749  0  0  -0.332852  -0.521268  0  1.152559  0
Cl  Cl55  1  0.27916078  0.41339477  0.33395149  1  0  -0.586222  0  0.888526  0  0  -0.536632  0  1.140173  0  0  -0.555147  0  1.121722  0  0  -0.332893  -0.52133  0  1.15251  0
Cl  Cl56  1  0.78675064  0.93864096  0.72434169  1  0  -0.577661  0  0.867292  0  0  -0.526665  0  1.101841  0  0  -0.546279  0  1.084444  0  0  -0.346812  -0.510674  0  1.113512  0
Cl  Cl57  1  0.21327489  0.06136230  0.27566065  1  0  -0.577685  0  0.867264  0  0  -0.526696  0  1.101801  0  0  -0.546315  0  1.084407  0  0  -0.346833  -0.51071  0  1.113469  0
