# generated using pymatgen
data_ZnH9C16(N3O2)2
_symmetry_space_group_name_H-M   'P 1'
_cell_length_a   7.16159238
_cell_length_b   7.61791147
_cell_length_c   15.32638450
_cell_angle_alpha   83.37019934
_cell_angle_beta   86.96831268
_cell_angle_gamma   67.09000912
_symmetry_Int_Tables_number   1
_chemical_formula_structural   ZnH9C16(N3O2)2
_chemical_formula_sum   'Zn2 H18 C32 N12 O8'
_cell_volume   765.01503808
_cell_formula_units_Z   2
loop_
 _symmetry_equiv_pos_site_id
 _symmetry_equiv_pos_as_xyz
  1  'x, y, z'
loop_
 _atom_site_type_symbol
 _atom_site_label
 _atom_site_symmetry_multiplicity
 _atom_site_fract_x
 _atom_site_fract_y
 _atom_site_fract_z
 _atom_site_occupancy
 _atom_site_hle17_bader_spin_density
 _atom_site_hle17_ddec_charge
 _atom_site_hle17_ddec_spin_density
 _atom_site_hle17_ddec_sum_bond_order
 _atom_site_hle17_magmom
 _atom_site_hse06_10hf_bader_spin_density
 _atom_site_hse06_10hf_ddec_charge
 _atom_site_hse06_10hf_ddec_spin_density
 _atom_site_hse06_10hf_ddec_sum_bond_order
 _atom_site_hse06_10hf_magmom
 _atom_site_hse06_bader_spin_density
 _atom_site_hse06_ddec_charge
 _atom_site_hse06_ddec_spin_density
 _atom_site_hse06_ddec_sum_bond_order
 _atom_site_hse06_magmom
 _atom_site_pbe_bader_spin_density
 _atom_site_pbe_cm5_charge
 _atom_site_pbe_ddec_charge
 _atom_site_pbe_ddec_spin_density
 _atom_site_pbe_ddec_sum_bond_order
 _atom_site_pbe_magmom
Zn  Zn0  1  0.27597387  0.86421707  0.31008116  1  0  0.969797  0  1.921339  0  0  0.770011  0  2.399025  0  0  0.817769  0  2.345582  0  0  0.698552  0.736821  0  2.435604  0
Zn  Zn1  1  0.72402928  0.13578245  0.68991809  1  0  0.969809  0  1.921337  0  0  0.770028  0  2.399037  0  0  0.817784  0  2.345593  0  0  0.698537  0.736834  0  2.435609  0
H  H2  1  0.45571850  0.67432604  0.72263964  1  0  0.302422  0  0.941895  0  0  0.27654  0  1.011113  0  0  0.287113  0  1.003009  0  0  0.304076  0.269122  0  1.016767  0
H  H3  1  0.54428023  0.32567062  0.27735987  1  0  0.30238  0  0.941924  0  0  0.276489  0  1.01117  0  0  0.287059  0  1.003073  0  0  0.304069  0.269071  0  1.016823  0
H  H4  1  0.87390192  0.94432884  0.44164364  1  0  0.105997  0  0.944808  0  0  0.108225  0  1.013738  0  0  0.11149  0  1.011193  0  0  0.124509  0.10576  0  1.015793  0
H  H5  1  0.12610275  0.05568067  0.55835635  1  0  0.105988  0  0.944829  0  0  0.108247  0  1.013746  0  0  0.111512  0  1.011201  0  0  0.124523  0.10578  0  1.015802  0
H  H6  1  0.53297066  0.92189735  0.43029815  1  0  0.107958  0  0.931216  0  0  0.113235  0  0.994034  0  0  0.11632  0  0.991427  0  0  0.128855  0.110914  0  0.996108  0
H  H7  1  0.46703263  0.07811213  0.56970318  1  0  0.108017  0  0.931115  0  0  0.113258  0  0.993957  0  0  0.116342  0  0.991348  0  0  0.128884  0.110937  0  0.99603  0
H  H8  1  0.65415166  0.80738228  0.16999663  1  0  0.102465  0  0.954062  0  0  0.100318  0  1.034221  0  0  0.105101  0  1.029831  0  0  0.119756  0.096822  0  1.037506  0
H  H9  1  0.34584989  0.19261430  0.83000607  1  0  0.102462  0  0.954091  0  0  0.100298  0  1.034247  0  0  0.105082  0  1.029853  0  0  0.119734  0.096789  0  1.037542  0
H  H10  1  0.15415342  0.63288972  0.77129885  1  0  0.11212  0  0.9706  0  0  0.120793  0  1.029694  0  0  0.123936  0  1.02673  0  0  0.127623  0.118367  0  1.031996  0
H  H11  1  0.84584707  0.36710261  0.22870215  1  0  0.112137  0  0.970568  0  0  0.120798  0  1.02966  0  0  0.12394  0  1.026697  0  0  0.127636  0.11837  0  1.031962  0
H  H12  1  0.03794872  0.67291095  0.92804090  1  0  0.128738  0  0.924132  0  0  0.139394  0  0.978687  0  0  0.143562  0  0.976553  0  0  0.119019  0.136402  0  0.98038  0
H  H13  1  0.96205492  0.32707708  0.07196025  1  0  0.12872  0  0.924069  0  0  0.139367  0  0.978639  0  0  0.143532  0  0.97651  0  0  0.118986  0.136364  0  0.980343  0
H  H14  1  0.57444112  0.77653665  0.97515876  1  0  0.126877  0  0.929925  0  0  0.135975  0  0.987828  0  0  0.14028  0  0.985548  0  0  0.118654  0.13285  0  0.989696  0
H  H15  1  0.42555492  0.22347004  0.02484029  1  0  0.126893  0  0.929866  0  0  0.13599  0  0.987774  0  0  0.140294  0  0.985494  0  0  0.11867  0.13288  0  0.989626  0
H  H16  1  0.67294117  0.72847113  0.81497387  1  0  0.115992  0  0.957542  0  0  0.124483  0  1.018103  0  0  0.127907  0  1.014612  0  0  0.129635  0.121882  0  1.020721  0
H  H17  1  0.32705778  0.27152841  0.18502483  1  0  0.116047  0  0.957542  0  0  0.12451  0  1.018123  0  0  0.127933  0  1.014635  0  0  0.129644  0.121913  0  1.02073  0
H  H18  1  0.79650797  0.31397754  0.47051279  1  0  0.117047  0  0.935684  0  0  0.126147  0  0.997494  0  0  0.130188  0  0.99478  0  0  0.108874  0.123122  0  0.999696  0
H  H19  1  0.20348702  0.68602487  0.52948585  1  0  0.117081  0  0.93572  0  0  0.126197  0  0.9975  0  0  0.130235  0  0.994791  0  0  0.108885  0.123173  0  0.999703  0
C  C20  1  0.82862696  0.90741861  0.38185499  1  0  0.115386  0  3.648631  0  0  0.085531  0  3.906466  0  0  0.088485  0  3.922532  0  0  0.069211  0.083303  0  3.896083  0
C  C21  1  0.17137385  0.09258664  0.61814402  1  0  0.115531  0  3.648493  0  0  0.085551  0  3.906438  0  0  0.088504  0  3.922499  0  0  0.069201  0.083322  0  3.896056  0
C  C22  1  0.63943848  0.89799192  0.37546342  1  0  0.116978  0  3.60977  0  0  0.08195  0  3.867227  0  0  0.086823  0  3.881654  0  0  0.065975  0.078449  0  3.857979  0
C  C23  1  0.36056399  0.10201615  0.62453735  1  0  0.116882  0  3.609745  0  0  0.081968  0  3.867182  0  0  0.086848  0  3.8816  0  0  0.065984  0.078472  0  3.857937  0
C  C24  1  0.70802066  0.83229416  0.23088812  1  0  0.061528  0  3.612584  0  0  0.024049  0  3.866103  0  0  0.026523  0  3.881193  0  0  0.059461  0.022367  0  3.856226  0
C  C25  1  0.29197833  0.16770528  0.76911450  1  0  0.061461  0  3.612543  0  0  0.024048  0  3.865999  0  0  0.026523  0  3.881089  0  0  0.059475  0.022387  0  3.856133  0
C  C26  1  0.90131580  0.83423992  0.23842800  1  0  0.126359  0  3.761547  0  0  0.127052  0  4.004392  0  0  0.13042  0  4.023934  0  0  0.12805  0.12433  0  3.99152  0
C  C27  1  0.09868422  0.16576387  0.76157241  1  0  0.126393  0  3.761569  0  0  0.127064  0  4.004379  0  0  0.130427  0  4.023924  0  0  0.128081  0.124338  0  3.99151  0
C  C28  1  0.05407099  0.80475545  0.16895983  1  0  0.254257  0  3.842264  0  0  0.229146  0  4.110844  0  0  0.237817  0  4.130847  0  0  0.199513  0.223657  0  4.097064  0
C  C29  1  0.94593158  0.19524548  0.83104001  1  0  0.254209  0  3.842306  0  0  0.229151  0  4.110822  0  0  0.237826  0  4.130824  0  0  0.199516  0.223664  0  4.097046  0
C  C30  1  0.22902390  0.76338177  0.05333467  1  0  0.246786  0  3.823817  0  0  0.2316  0  4.0979  0  0  0.236755  0  4.116797  0  0  0.192271  0.228277  0  4.084798  0
C  C31  1  0.77097506  0.23661774  0.94666534  1  0  0.246853  0  3.823817  0  0  0.231659  0  4.097921  0  0  0.236812  0  4.11682  0  0  0.192305  0.228372  0  4.084771  0
C  C32  1  0.24317890  0.66044713  0.81966128  1  0  0.142421  0  3.619298  0  0  0.100109  0  3.876663  0  0  0.10956  0  3.891243  0  0  0.063898  0.094031  0  3.86689  0
C  C33  1  0.75682300  0.33954520  0.18033968  1  0  0.142333  0  3.619271  0  0  0.10008  0  3.876616  0  0  0.109531  0  3.891193  0  0  0.063871  0.094003  0  3.86684  0
C  C34  1  0.17949142  0.68512642  0.90565641  1  0  -0.133411  0  3.659382  0  0  -0.154032  0  3.910656  0  0  -0.162441  0  3.928947  0  0  -0.069032  -0.148722  0  3.898513  0
C  C35  1  0.82051046  0.31486594  0.09434325  1  0  -0.133462  0  3.659241  0  0  -0.154079  0  3.910524  0  0  -0.162493  0  3.928822  0  0  -0.069049  -0.148761  0  3.898387  0
C  C36  1  0.29662151  0.72969621  0.96363913  1  0  0.090093  0  3.751181  0  0  0.100195  0  3.984478  0  0  0.108009  0  4.003742  0  0  0.031429  0.095176  0  3.971302  0
C  C37  1  0.70337722  0.27030043  0.03636103  1  0  0.090244  0  3.751065  0  0  0.100337  0  3.984387  0  0  0.108154  0  4.003648  0  0  0.031485  0.095307  0  3.971207  0
C  C38  1  0.47980675  0.74275770  0.93204091  1  0  -0.146879  0  3.681969  0  0  -0.167421  0  3.934924  0  0  -0.17646  0  3.95452  0  0  -0.071091  -0.161653  0  3.921876  0
C  C39  1  0.52019163  0.25724324  0.06795904  1  0  -0.146969  0  3.681973  0  0  -0.167509  0  3.93492  0  0  -0.176548  0  3.954515  0  0  -0.071114  -0.161755  0  3.921872  0
C  C40  1  0.53625348  0.71699062  0.84541072  1  0  0.134721  0  3.619868  0  0  0.094174  0  3.874824  0  0  0.103032  0  3.890884  0  0  0.0608  0.088542  0  3.863916  0
C  C41  1  0.46374268  0.28300890  0.15458870  1  0  0.134681  0  3.619943  0  0  0.094191  0  3.874879  0  0  0.10305  0  3.890934  0  0  0.060794  0.088562  0  3.863972  0
C  C42  1  0.17848304  0.47863507  0.45215621  1  0  -0.076388  0  3.744374  0  0  -0.065555  0  3.985553  0  0  -0.070439  0  4.005724  0  0  -0.015233  -0.062349  0  3.972065  0
C  C43  1  0.82151195  0.52136732  0.54784309  1  0  -0.076412  0  3.7444  0  0  -0.065495  0  3.985491  0  0  -0.07043  0  4.005722  0  0  -0.015211  -0.06229  0  3.972005  0
C  C44  1  0.06471110  0.37204735  0.43495911  1  0  -0.058225  0  3.724609  0  0  -0.045354  0  3.964881  0  0  -0.048952  0  3.983713  0  0  -0.009599  -0.043175  0  3.952313  0
C  C45  1  0.93528167  0.62795362  0.56504032  1  0  -0.05817  0  3.724563  0  0  -0.045342  0  3.96481  0  0  -0.048924  0  3.983656  0  0  -0.009583  -0.043161  0  3.952241  0
C  C46  1  0.88687407  0.39517170  0.48291873  1  0  -0.085698  0  3.710224  0  0  -0.119351  0  3.966177  0  0  -0.119258  0  3.983531  0  0  -0.080686  -0.119215  0  3.954612  0
C  C47  1  0.11312290  0.60482925  0.51708060  1  0  -0.085757  0  3.710171  0  0  -0.1194  0  3.966149  0  0  -0.119322  0  3.983488  0  0  -0.080702  -0.119267  0  3.954584  0
C  C48  1  0.36665952  0.46184325  0.40017278  1  0  0.673709  0  3.876627  0  0  0.621528  0  4.17427  0  0  0.656282  0  4.164077  0  0  0.217397  0.59777  0  4.180547  0
C  C49  1  0.63333746  0.53815769  0.59982720  1  0  0.673758  0  3.876648  0  0  0.621535  0  4.174323  0  0  0.656307  0  4.164126  0  0  0.21742  0.597773  0  4.180603  0
C  C50  1  0.13027010  0.23049295  0.36743534  1  0  0.666772  0  3.908828  0  0  0.609749  0  4.215788  0  0  0.64497  0  4.205125  0  0  0.207188  0.585712  0  4.222264  0
C  C51  1  0.86972909  0.76950943  0.63256451  1  0  0.666587  0  3.909135  0  0  0.609617  0  4.21601  0  0  0.644838  0  4.205347  0  0  0.207115  0.585578  0  4.222487  0
N  N52  1  0.95775676  0.87379556  0.31429180  1  0  -0.305264  0  3.223802  0  0  -0.244563  0  3.486099  0  0  -0.257644  0  3.50192  0  0  -0.29656  -0.235594  0  3.475729  0
N  N53  1  0.04224546  0.12620969  0.68570717  1  0  -0.305334  0  3.223702  0  0  -0.244608  0  3.486059  0  0  -0.257686  0  3.501878  0  0  -0.296581  -0.235637  0  3.475689  0
N  N54  1  0.57953189  0.86426540  0.29993888  1  0  -0.257419  0  3.23897  0  0  -0.184589  0  3.510113  0  0  -0.197293  0  3.523329  0  0  -0.298938  -0.175974  0  3.501329  0
N  N55  1  0.42047408  0.13573407  0.70006225  1  0  -0.257356  0  3.239043  0  0  -0.184582  0  3.510167  0  0  -0.197286  0  3.523377  0  0  -0.298972  -0.17598  0  3.501384  0
N  N56  1  0.22971626  0.82474174  0.18567896  1  0  -0.316126  0  3.271755  0  0  -0.247241  0  3.577112  0  0  -0.266502  0  3.5937  0  0  -0.245349  -0.234318  0  3.565766  0
N  N57  1  0.77028293  0.17526065  0.81432023  1  0  -0.316122  0  3.271819  0  0  -0.247253  0  3.57717  0  0  -0.266514  0  3.593756  0  0  -0.245389  -0.234327  0  3.56582  0
N  N58  1  0.34262900  0.79843834  0.11194096  1  0  -0.256427  0  2.922683  0  0  -0.242846  0  3.196246  0  0  -0.249881  0  3.214404  0  0  -0.219491  -0.237846  0  3.183798  0
N  N59  1  0.65736937  0.20156261  0.88805833  1  0  -0.256459  0  2.922651  0  0  -0.242874  0  3.196218  0  0  -0.24991  0  3.214376  0  0  -0.219476  -0.237884  0  3.183755  0
N  N60  1  0.04742256  0.76579190  0.08642957  1  0  -0.445721  0  2.900121  0  0  -0.420662  0  3.15943  0  0  -0.433474  0  3.172817  0  0  -0.339708  -0.411802  0  3.149976  0
N  N61  1  0.95257443  0.23420903  0.91357106  1  0  -0.445745  0  2.900229  0  0  -0.4207  0  3.159529  0  0  -0.433512  0  3.172916  0  0  -0.339701  -0.411852  0  3.150063  0
N  N62  1  0.41692397  0.67849494  0.79142064  1  0  -0.22021  0  3.443699  0  0  -0.148953  0  3.674684  0  0  -0.165812  0  3.691655  0  0  -0.339848  -0.137885  0  3.663278  0
N  N63  1  0.58307616  0.32150170  0.20857949  1  0  -0.220133  0  3.44379  0  0  -0.148936  0  3.674828  0  0  -0.165792  0  3.6918  0  0  -0.33985  -0.137868  0  3.663423  0
O  O64  1  0.40823521  0.61090453  0.38275387  1  0  -0.648753  0  2.078486  0  0  -0.581695  0  2.358973  0  0  -0.608999  0  2.343518  0  0  -0.337189  -0.562248  0  2.368817  0
O  O65  1  0.59176294  0.38909355  0.61724623  1  0  -0.648769  0  2.078483  0  0  -0.5817  0  2.358975  0  0  -0.609004  0  2.343513  0  0  -0.337182  -0.562257  0  2.368832  0
O  O66  1  0.47692896  0.30012421  0.37538893  1  0  -0.607561  0  1.993941  0  0  -0.557351  0  2.224098  0  0  -0.58262  0  2.216883  0  0  -0.309557  -0.539438  0  2.228445  0
O  O67  1  0.52307003  0.69987526  0.62461304  1  0  -0.60758  0  1.993977  0  0  -0.55738  0  2.224153  0  0  -0.58265  0  2.21693  0  0  -0.309571  -0.539466  0  2.228502  0
O  O68  1  0.11822431  0.28673067  0.28702651  1  0  -0.623815  0  1.937881  0  0  -0.5824  0  2.170575  0  0  -0.604803  0  2.159079  0  0  -0.323251  -0.566188  0  2.177726  0
O  O69  1  0.88177709  0.71327315  0.71297256  1  0  -0.623734  0  1.937977  0  0  -0.582328  0  2.170621  0  0  -0.604743  0  2.159148  0  0  -0.323216  -0.566118  0  2.177771  0
O  O70  1  0.18835778  0.05362257  0.40020453  1  0  -0.636511  0  2.051472  0  0  -0.558197  0  2.316255  0  0  -0.587749  0  2.302042  0  0  -0.31922  -0.537278  0  2.325159  0
O  O71  1  0.81164200  0.94637836  0.59979604  1  0  -0.636481  0  2.051663  0  0  -0.558187  0  2.316428  0  0  -0.587731  0  2.3022  0  0  -0.31921  -0.537256  0  2.325303  0
