# generated using pymatgen
data_AgH14C12S(NO)3
_symmetry_space_group_name_H-M   'P 1'
_cell_length_a   7.00999536
_cell_length_b   12.69148091
_cell_length_c   14.55842054
_cell_angle_alpha   90.00019509
_cell_angle_beta   89.99975137
_cell_angle_gamma   94.18188446
_symmetry_Int_Tables_number   1
_chemical_formula_structural   AgH14C12S(NO)3
_chemical_formula_sum   'Ag4 H56 C48 S4 N12 O12'
_cell_volume   1291.77381435
_cell_formula_units_Z   4
loop_
 _symmetry_equiv_pos_site_id
 _symmetry_equiv_pos_as_xyz
  1  'x, y, z'
loop_
 _atom_site_type_symbol
 _atom_site_label
 _atom_site_symmetry_multiplicity
 _atom_site_fract_x
 _atom_site_fract_y
 _atom_site_fract_z
 _atom_site_occupancy
 _atom_site_hle17_bader_spin_density
 _atom_site_hle17_ddec_charge
 _atom_site_hle17_ddec_spin_density
 _atom_site_hle17_ddec_sum_bond_order
 _atom_site_hle17_magmom
 _atom_site_hse06_10hf_bader_spin_density
 _atom_site_hse06_10hf_ddec_charge
 _atom_site_hse06_10hf_ddec_spin_density
 _atom_site_hse06_10hf_ddec_sum_bond_order
 _atom_site_hse06_10hf_magmom
 _atom_site_hse06_bader_spin_density
 _atom_site_hse06_ddec_charge
 _atom_site_hse06_ddec_spin_density
 _atom_site_hse06_ddec_sum_bond_order
 _atom_site_hse06_magmom
 _atom_site_pbe_bader_spin_density
 _atom_site_pbe_cm5_charge
 _atom_site_pbe_ddec_charge
 _atom_site_pbe_ddec_spin_density
 _atom_site_pbe_ddec_sum_bond_order
 _atom_site_pbe_magmom
Ag  Ag0  1  0.82268255  0.05311331  0.79009730  1  0  0.513362  0  1.45331  0  0  0.379209  0  1.869117  0  0  0.403155  0  1.833251  0  0  0.506453  0.363283  0  1.893849  0
Ag  Ag1  1  0.67731615  0.44688631  0.29009943  1  0  0.513407  0  1.453284  0  0  0.379287  0  1.869065  0  0  0.403233  0  1.833196  0  0  0.506469  0.363364  0  1.893798  0
Ag  Ag2  1  0.17733296  0.94688592  0.20990174  1  0  0.513409  0  1.453323  0  0  0.3793  0  1.869137  0  0  0.403243  0  1.833267  0  0  0.506503  0.36338  0  1.893871  0
Ag  Ag3  1  0.32267366  0.55311281  0.70990374  1  0  0.513398  0  1.453329  0  0  0.379281  0  1.869136  0  0  0.403224  0  1.83327  0  0  0.506488  0.363359  0  1.89387  0
H  H4  1  0.49944810  0.05469319  0.92678348  1  0  0.104484  0  0.948404  0  0  0.113025  0  1.010382  0  0  0.115866  0  1.008234  0  0  0.123782  0.110903  0  1.012176  0
H  H5  1  0.00055482  0.44531030  0.42678185  1  0  0.104509  0  0.948426  0  0  0.113059  0  1.010378  0  0  0.115901  0  1.008231  0  0  0.123807  0.110939  0  1.012171  0
H  H6  1  0.50056616  0.94530761  0.07322106  1  0  0.104417  0  0.948372  0  0  0.112942  0  1.010397  0  0  0.115784  0  1.00825  0  0  0.123763  0.110822  0  1.012193  0
H  H7  1  0.99944210  0.55470069  0.57321925  1  0  0.104549  0  0.948373  0  0  0.113099  0  1.010327  0  0  0.115943  0  1.008181  0  0  0.123816  0.110973  0  1.012129  0
H  H8  1  0.13769964  0.06277040  0.92434473  1  0  0.108544  0  0.956449  0  0  0.115275  0  1.021094  0  0  0.118003  0  1.018857  0  0  0.122374  0.113224  0  1.022952  0
H  H9  1  0.36230168  0.43723149  0.42434232  1  0  0.108516  0  0.956453  0  0  0.115225  0  1.021154  0  0  0.117952  0  1.018916  0  0  0.122345  0.113172  0  1.023017  0
H  H10  1  0.86231185  0.93723118  0.07565775  1  0  0.108529  0  0.95655  0  0  0.115233  0  1.021227  0  0  0.117961  0  1.01899  0  0  0.122373  0.113183  0  1.023086  0
H  H11  1  0.63769039  0.56277474  0.57565534  1  0  0.108528  0  0.956379  0  0  0.115256  0  1.021055  0  0  0.117983  0  1.018818  0  0  0.122353  0.1132  0  1.022924  0
H  H12  1  0.98400453  0.09854393  0.62252957  1  0  0.117183  0  0.964505  0  0  0.13439  0  1.036923  0  0  0.137119  0  1.033665  0  0  0.092221  0.132298  0  1.039354  0
H  H13  1  0.51599276  0.40145508  0.12252366  1  0  0.117166  0  0.964515  0  0  0.13436  0  1.036948  0  0  0.137088  0  1.033689  0  0  0.092183  0.132268  0  1.039375  0
H  H14  1  0.01599651  0.90145365  0.37747909  1  0  0.117163  0  0.964513  0  0  0.13436  0  1.036927  0  0  0.13709  0  1.033663  0  0  0.092202  0.132267  0  1.039357  0
H  H15  1  0.48399714  0.59854483  0.87747332  1  0  0.117136  0  0.964573  0  0  0.134347  0  1.03699  0  0  0.137079  0  1.033726  0  0  0.092191  0.132252  0  1.039422  0
H  H16  1  0.08770062  0.98212871  0.58491647  1  0  0.137435  0  0.935935  0  0  0.162442  0  0.989022  0  0  0.163362  0  0.989894  0  0  0.104938  0.161689  0  0.988476  0
H  H17  1  0.41229413  0.51786872  0.08491409  1  0  0.137382  0  0.935992  0  0  0.162421  0  0.989048  0  0  0.16334  0  0.98992  0  0  0.104935  0.161667  0  0.988504  0
H  H18  1  0.91230166  0.01786730  0.41508669  1  0  0.137355  0  0.935971  0  0  0.16237  0  0.989056  0  0  0.163289  0  0.989926  0  0  0.104892  0.161621  0  0.988508  0
H  H19  1  0.58769568  0.48213039  0.91508633  1  0  0.137414  0  0.935961  0  0  0.162422  0  0.98906  0  0  0.163337  0  0.989929  0  0  0.104929  0.161672  0  0.988512  0
H  H20  1  0.20585030  0.10768442  0.56211999  1  0  0.133622  0  0.944032  0  0  0.157195  0  0.998525  0  0  0.158308  0  0.999288  0  0  0.102996  0.156343  0  0.997975  0
H  H21  1  0.29414807  0.39231301  0.06211691  1  0  0.13357  0  0.944045  0  0  0.157139  0  0.998572  0  0  0.158251  0  0.999335  0  0  0.102968  0.156287  0  0.998024  0
H  H22  1  0.79416073  0.89231321  0.43788386  1  0  0.1336  0  0.944003  0  0  0.157142  0  0.998556  0  0  0.158253  0  0.999319  0  0  0.102987  0.156291  0  0.998005  0
H  H23  1  0.70583898  0.60768688  0.93788351  1  0  0.133636  0  0.943962  0  0  0.157175  0  0.99852  0  0  0.158287  0  0.999284  0  0  0.102995  0.156323  0  0.997969  0
H  H24  1  0.67930996  0.01333151  0.63234745  1  0  0.105254  0  0.98531  0  0  0.122218  0  1.060759  0  0  0.12513  0  1.057556  0  0  0.085163  0.120017  0  1.063105  0
H  H25  1  0.82068905  0.48667070  0.13234802  1  0  0.105274  0  0.985279  0  0  0.122237  0  1.060741  0  0  0.125146  0  1.057541  0  0  0.08516  0.120032  0  1.063086  0
H  H26  1  0.32069822  0.98666611  0.36765434  1  0  0.105258  0  0.985152  0  0  0.122194  0  1.060652  0  0  0.125105  0  1.057451  0  0  0.08517  0.119991  0  1.062998  0
H  H27  1  0.17929961  0.51333078  0.86765514  1  0  0.105229  0  0.985217  0  0  0.12218  0  1.060685  0  0  0.125093  0  1.057482  0  0  0.085162  0.119979  0  1.06303  0
H  H28  1  0.51948615  0.08836220  0.56824187  1  0  0.132537  0  0.971779  0  0  0.150476  0  1.035012  0  0  0.151744  0  1.035548  0  0  0.098386  0.149436  0  1.034728  0
H  H29  1  0.98050894  0.41163819  0.06823846  1  0  0.132503  0  0.97183  0  0  0.150482  0  1.03501  0  0  0.15175  0  1.035546  0  0  0.098404  0.149444  0  1.034724  0
H  H30  1  0.48052097  0.91163858  0.43176610  1  0  0.132436  0  0.971939  0  0  0.150426  0  1.035099  0  0  0.151695  0  1.035637  0  0  0.098381  0.149387  0  1.034817  0
H  H31  1  0.01947525  0.58836169  0.93176127  1  0  0.132449  0  0.971862  0  0  0.150393  0  1.035078  0  0  0.151661  0  1.035615  0  0  0.098354  0.149353  0  1.034796  0
H  H32  1  0.46697394  0.95041275  0.58447505  1  0  0.143904  0  0.948123  0  0  0.166212  0  1.001651  0  0  0.167846  0  1.001562  0  0  0.102233  0.164926  0  1.001772  0
H  H33  1  0.03302652  0.54958471  0.08447080  1  0  0.143892  0  0.948122  0  0  0.166241  0  1.001593  0  0  0.167874  0  1.001503  0  0  0.102229  0.164955  0  1.001716  0
H  H34  1  0.53303709  0.04958488  0.41553086  1  0  0.143892  0  0.947989  0  0  0.166227  0  1.001497  0  0  0.16786  0  1.001407  0  0  0.102265  0.164942  0  1.001619  0
H  H35  1  0.96695900  0.45041438  0.91552687  1  0  0.143865  0  0.948004  0  0  0.166166  0  1.001545  0  0  0.1678  0  1.001457  0  0  0.102232  0.16488  0  1.001666  0
H  H36  1  0.21840080  0.17786937  0.07466130  1  0  0.105832  0  0.930761  0  0  0.121148  0  0.983488  0  0  0.12414  0  0.981444  0  0  0.108187  0.118965  0  0.984998  0
H  H37  1  0.28160515  0.32213288  0.57466005  1  0  0.105799  0  0.930786  0  0  0.121114  0  0.98351  0  0  0.124103  0  0.981466  0  0  0.108182  0.118931  0  0.985021  0
H  H38  1  0.78159260  0.82213608  0.92533568  1  0  0.105801  0  0.930731  0  0  0.121129  0  0.98342  0  0  0.12412  0  0.981374  0  0  0.108159  0.118942  0  0.984935  0
H  H39  1  0.71840178  0.67786631  0.42533830  1  0  0.1058  0  0.930731  0  0  0.121126  0  0.983439  0  0  0.124117  0  0.981394  0  0  0.108182  0.118942  0  0.984955  0
H  H40  1  0.34755979  0.17750630  0.23256291  1  0  0.106083  0  0.951872  0  0  0.120331  0  1.004901  0  0  0.123289  0  1.003956  0  0  0.10052  0.118224  0  1.005722  0
H  H41  1  0.15244015  0.32249332  0.73256193  1  0  0.106234  0  0.951732  0  0  0.120421  0  1.004837  0  0  0.123376  0  1.003893  0  0  0.100554  0.118312  0  1.00566  0
H  H42  1  0.65244554  0.82249130  0.76743339  1  0  0.106032  0  0.951917  0  0  0.120288  0  1.004945  0  0  0.123246  0  1.003996  0  0  0.100505  0.118177  0  1.005768  0
H  H43  1  0.84755946  0.67750426  0.26743642  1  0  0.106159  0  0.951837  0  0  0.120379  0  1.004895  0  0  0.123337  0  1.003947  0  0  0.100534  0.118269  0  1.005716  0
H  H44  1  0.77817627  0.20217934  0.34106122  1  0  0.107626  0  0.984008  0  0  0.114515  0  1.051555  0  0  0.118845  0  1.048496  0  0  0.097259  0.111348  0  1.053945  0
H  H45  1  0.72182000  0.29781571  0.84106140  1  0  0.107682  0  0.9839  0  0  0.114531  0  1.051513  0  0  0.118862  0  1.048453  0  0  0.097276  0.111364  0  1.053899  0
H  H46  1  0.22182887  0.79781668  0.65893920  1  0  0.107569  0  0.984044  0  0  0.114453  0  1.051615  0  0  0.118779  0  1.048565  0  0  0.097241  0.111284  0  1.054001  0
H  H47  1  0.27818085  0.70218030  0.15893695  1  0  0.107667  0  0.98385  0  0  0.114554  0  1.051426  0  0  0.118885  0  1.048365  0  0  0.09728  0.111386  0  1.053817  0
H  H48  1  0.65249977  0.20737978  0.18219316  1  0  0.092034  0  0.964937  0  0  0.101482  0  1.031287  0  0  0.104882  0  1.027951  0  0  0.098424  0.099013  0  1.033683  0
H  H49  1  0.84750414  0.29261947  0.68219376  1  0  0.092038  0  0.964763  0  0  0.10149  0  1.031119  0  0  0.104891  0  1.027782  0  0  0.098434  0.099023  0  1.033515  0
H  H50  1  0.34749261  0.79261698  0.81780725  1  0  0.091999  0  0.96481  0  0  0.101439  0  1.031163  0  0  0.104837  0  1.027828  0  0  0.098383  0.098974  0  1.033559  0
H  H51  1  0.15250574  0.70738052  0.31780529  1  0  0.092004  0  0.964754  0  0  0.101406  0  1.031148  0  0  0.104803  0  1.027816  0  0  0.098384  0.098937  0  1.033549  0
H  H52  1  0.28460616  0.20281734  0.39910580  1  0  0.3284  0  0.925837  0  0  0.313096  0  0.987872  0  0  0.319839  0  0.982837  0  0  0.291527  0.308343  0  0.991317  0
H  H53  1  0.21539758  0.29717895  0.89910462  1  0  0.328368  0  0.925914  0  0  0.313073  0  0.987922  0  0  0.319819  0  0.982884  0  0  0.29154  0.308318  0  0.991368  0
H  H54  1  0.71539764  0.79717947  0.60089255  1  0  0.328353  0  0.925945  0  0  0.313056  0  0.987953  0  0  0.319801  0  0.982916  0  0  0.291533  0.3083  0  0.991402  0
H  H55  1  0.78460678  0.70282260  0.10089579  1  0  0.328443  0  0.925803  0  0  0.313084  0  0.987918  0  0  0.319829  0  0.982881  0  0  0.291536  0.308329  0  0.991367  0
H  H56  1  0.05233666  0.21343920  0.43712941  1  0  0.325636  0  0.9347  0  0  0.311079  0  0.995927  0  0  0.317918  0  0.990637  0  0  0.291446  0.306216  0  0.999664  0
H  H57  1  0.44766837  0.28655881  0.93712841  1  0  0.325617  0  0.934689  0  0  0.311107  0  0.995868  0  0  0.317933  0  0.990599  0  0  0.291443  0.306241  0  0.99961  0
H  H58  1  0.94767303  0.78655921  0.56287032  1  0  0.325699  0  0.934583  0  0  0.311109  0  0.995873  0  0  0.31795  0  0.990581  0  0  0.291443  0.306246  0  0.99961  0
H  H59  1  0.55233457  0.71344273  0.06287407  1  0  0.325607  0  0.934697  0  0  0.311076  0  0.995884  0  0  0.317913  0  0.990596  0  0  0.291448  0.306214  0  0.999619  0
C  C60  1  0.42229639  0.04272735  0.70359930  1  0  0.221639  0  3.668643  0  0  0.226957  0  3.901999  0  0  0.230575  0  3.925382  0  0  0.130879  0.224104  0  3.886465  0
C  C61  1  0.07770417  0.45727533  0.20359824  1  0  0.221747  0  3.668311  0  0  0.227035  0  3.901713  0  0  0.23065  0  3.925093  0  0  0.130947  0.22418  0  3.886188  0
C  C62  1  0.57771511  0.95727423  0.29640386  1  0  0.221778  0  3.668176  0  0  0.2269  0  3.90177  0  0  0.230513  0  3.92515  0  0  0.130921  0.224048  0  3.886243  0
C  C63  1  0.92228772  0.54272932  0.79639943  1  0  0.221736  0  3.668294  0  0  0.226855  0  3.901905  0  0  0.230468  0  3.925289  0  0  0.130917  0.224004  0  3.886374  0
C  C64  1  0.41788395  0.05285306  0.86311938  1  0  0.085838  0  3.661989  0  0  0.048765  0  3.920248  0  0  0.051536  0  3.937142  0  0  0.049394  0.046461  0  3.909566  0
C  C65  1  0.08211495  0.44714782  0.36311827  1  0  0.085835  0  3.661841  0  0  0.048789  0  3.920121  0  0  0.051557  0  3.937013  0  0  0.049404  0.046482  0  3.909442  0
C  C66  1  0.58212556  0.94714377  0.13688379  1  0  0.085861  0  3.661977  0  0  0.048763  0  3.920325  0  0  0.051528  0  3.937214  0  0  0.049378  0.046451  0  3.909649  0
C  C67  1  0.91787855  0.55285842  0.63688215  1  0  0.085711  0  3.661837  0  0  0.048604  0  3.920234  0  0  0.051365  0  3.93712  0  0  0.049303  0.046295  0  3.909559  0
C  C68  1  0.22197207  0.06051469  0.86169705  1  0  0.088015  0  3.666706  0  0  0.052145  0  3.924566  0  0  0.056008  0  3.941966  0  0  0.048334  0.048756  0  3.914291  0
C  C69  1  0.27802666  0.43948460  0.36169414  1  0  0.088131  0  3.666659  0  0  0.052234  0  3.924637  0  0  0.056101  0  3.942037  0  0  0.048383  0.04885  0  3.914352  0
C  C70  1  0.77803781  0.93948530  0.13830406  1  0  0.08813  0  3.666957  0  0  0.052313  0  3.92487  0  0  0.056176  0  3.942274  0  0  0.048428  0.048953  0  3.914545  0
C  C71  1  0.72196541  0.56052163  0.63830353  1  0  0.088116  0  3.666613  0  0  0.052249  0  3.924573  0  0  0.056114  0  3.941973  0  0  0.048436  0.048895  0  3.914232  0
C  C72  1  0.22419715  0.05657853  0.70194688  1  0  0.219798  0  3.683763  0  0  0.223674  0  3.922841  0  0  0.227646  0  3.946097  0  0  0.132904  0.22073  0  3.907314  0
C  C73  1  0.27580305  0.44342098  0.20194467  1  0  0.219756  0  3.683773  0  0  0.223674  0  3.922837  0  0  0.22765  0  3.946087  0  0  0.132918  0.220725  0  3.907319  0
C  C74  1  0.77581246  0.94341909  0.29805216  1  0  0.219662  0  3.684023  0  0  0.223721  0  3.922965  0  0  0.227693  0  3.946219  0  0  0.132949  0.220772  0  3.907447  0
C  C75  1  0.72418827  0.55657893  0.79805368  1  0  0.219672  0  3.683805  0  0  0.223685  0  3.922825  0  0  0.22766  0  3.946075  0  0  0.132913  0.220738  0  3.907306  0
C  C76  1  0.11981320  0.06192228  0.61317363  1  0  -0.36675  0  3.691872  0  0  -0.44986  0  3.923282  0  0  -0.452978  0  3.931915  0  0  -0.237315  -0.447256  0  3.917354  0
C  C77  1  0.38018339  0.43807611  0.11317188  1  0  -0.366655  0  3.691993  0  0  -0.449781  0  3.92339  0  0  -0.452904  0  3.932035  0  0  -0.237276  -0.447179  0  3.917464  0
C  C78  1  0.88018926  0.93807531  0.38682679  1  0  -0.366622  0  3.691885  0  0  -0.44973  0  3.923272  0  0  -0.452859  0  3.93193  0  0  -0.237285  -0.447124  0  3.917341  0
C  C79  1  0.61980642  0.56192301  0.88682717  1  0  -0.366696  0  3.691969  0  0  -0.449816  0  3.923394  0  0  -0.452932  0  3.932027  0  0  -0.237325  -0.44721  0  3.917465  0
C  C80  1  0.52806042  0.02326260  0.61747032  1  0  -0.372089  0  3.685011  0  0  -0.451745  0  3.913224  0  0  -0.455881  0  3.922162  0  0  -0.243026  -0.448392  0  3.90716  0
C  C81  1  0.97193834  0.47673640  0.11746712  1  0  -0.372032  0  3.684719  0  0  -0.45176  0  3.912955  0  0  -0.455897  0  3.921898  0  0  -0.243021  -0.448407  0  3.906887  0
C  C82  1  0.47194776  0.97673502  0.38253491  1  0  -0.372005  0  3.684479  0  0  -0.451647  0  3.912767  0  0  -0.455777  0  3.921694  0  0  -0.243064  -0.448297  0  3.906713  0
C  C83  1  0.02804728  0.52326349  0.88253055  1  0  -0.37195  0  3.684569  0  0  -0.451507  0  3.912801  0  0  -0.455642  0  3.921737  0  0  -0.243006  -0.448156  0  3.906737  0
C  C84  1  0.92557354  0.19282865  0.11829719  1  0  -0.176085  0  3.795786  0  0  -0.147382  0  4.043229  0  0  -0.158572  0  4.068061  0  0  -0.046586  -0.14011  0  4.026532  0
C  C85  1  0.57442444  0.30717588  0.61829770  1  0  -0.17603  0  3.795676  0  0  -0.147376  0  4.043141  0  0  -0.158566  0  4.067976  0  0  -0.046485  -0.140085  0  4.026408  0
C  C86  1  0.07442350  0.80717129  0.88170254  1  0  -0.176032  0  3.795661  0  0  -0.147447  0  4.043227  0  0  -0.158639  0  4.068055  0  0  -0.046519  -0.140155  0  4.026496  0
C  C87  1  0.42557849  0.69282567  0.38170271  1  0  -0.175989  0  3.795722  0  0  -0.147385  0  4.043263  0  0  -0.158575  0  4.068095  0  0  -0.046516  -0.140087  0  4.026524  0
C  C88  1  0.12111847  0.18292870  0.13275012  1  0  -0.043492  0  3.777827  0  0  -0.071729  0  4.031403  0  0  -0.066528  0  4.047899  0  0  -0.092312  -0.074897  0  4.02013  0
C  C89  1  0.37887995  0.31707451  0.63275004  1  0  -0.043499  0  3.778024  0  0  -0.071716  0  4.031612  0  0  -0.066514  0  4.048109  0  0  -0.092362  -0.074893  0  4.020331  0
C  C90  1  0.87888208  0.81707678  0.86724823  1  0  -0.043563  0  3.777804  0  0  -0.071749  0  4.03137  0  0  -0.066547  0  4.047865  0  0  -0.092342  -0.07492  0  4.020086  0
C  C91  1  0.62111871  0.68292702  0.36724900  1  0  -0.04354  0  3.777968  0  0  -0.071739  0  4.031545  0  0  -0.066539  0  4.048044  0  0  -0.092373  -0.074914  0  4.020266  0
C  C92  1  0.19406973  0.18110445  0.22186205  1  0  -0.229114  0  3.753772  0  0  -0.236524  0  4.009533  0  0  -0.244141  0  4.027016  0  0  -0.119493  -0.231611  0  3.997747  0
C  C93  1  0.30592639  0.31889828  0.72185800  1  0  -0.229179  0  3.753766  0  0  -0.236547  0  4.00952  0  0  -0.244163  0  4.026999  0  0  -0.119504  -0.231632  0  3.997731  0
C  C94  1  0.80593178  0.81889709  0.77813699  1  0  -0.229036  0  3.7537  0  0  -0.236448  0  4.009444  0  0  -0.244065  0  4.026925  0  0  -0.119494  -0.231532  0  3.997655  0
C  C95  1  0.69407217  0.68110245  0.27814036  1  0  -0.229179  0  3.753762  0  0  -0.236542  0  4.009509  0  0  -0.24416  0  4.026991  0  0  -0.119487  -0.231627  0  3.997733  0
C  C96  1  0.07291109  0.18945195  0.29921536  1  0  0.329386  0  3.857583  0  0  0.319216  0  4.108179  0  0  0.332764  0  4.127215  0  0  0.096412  0.310146  0  4.094911  0
C  C97  1  0.42708523  0.31054632  0.79921515  1  0  0.329305  0  3.857623  0  0  0.319165  0  4.108209  0  0  0.332715  0  4.127239  0  0  0.096451  0.310092  0  4.094933  0
C  C98  1  0.92708843  0.81054484  0.70078300  1  0  0.32944  0  3.85761  0  0  0.319265  0  4.10822  0  0  0.332814  0  4.127252  0  0  0.096478  0.310193  0  4.09495  0
C  C99  1  0.57291581  0.68945127  0.20078389  1  0  0.329426  0  3.857489  0  0  0.319218  0  4.108141  0  0  0.332767  0  4.127173  0  0  0.096442  0.310135  0  4.094895  0
C  C100  1  0.87514153  0.19660775  0.28301154  1  0  -0.211257  0  3.729711  0  0  -0.226305  0  3.988043  0  0  -0.234628  0  4.007545  0  0  -0.116719  -0.22077  0  3.974833  0
C  C101  1  0.62485295  0.30339183  0.78300988  1  0  -0.211285  0  3.729738  0  0  -0.226321  0  3.988075  0  0  -0.234647  0  4.007579  0  0  -0.116763  -0.220809  0  3.974924  0
C  C102  1  0.12485657  0.80338904  0.71698681  1  0  -0.211222  0  3.729627  0  0  -0.226262  0  3.987934  0  0  -0.234585  0  4.007436  0  0  -0.116709  -0.220733  0  3.974743  0
C  C103  1  0.37514961  0.69660655  0.21698916  1  0  -0.211202  0  3.72965  0  0  -0.22631  0  3.988106  0  0  -0.234632  0  4.007606  0  0  -0.116715  -0.220756  0  3.97486  0
C  C104  1  0.80408071  0.19899144  0.19416888  1  0  -0.058143  0  3.825327  0  0  -0.088085  0  4.085986  0  0  -0.08352  0  4.104725  0  0  -0.098305  -0.090773  0  4.073048  0
C  C105  1  0.69591758  0.30100941  0.69416981  1  0  -0.058152  0  3.825172  0  0  -0.088055  0  4.085837  0  0  -0.083492  0  4.104577  0  0  -0.098331  -0.090746  0  4.072889  0
C  C106  1  0.19591748  0.80100613  0.80583016  1  0  -0.058119  0  3.825022  0  0  -0.088005  0  4.085721  0  0  -0.083437  0  4.104453  0  0  -0.098289  -0.090693  0  4.072773  0
C  C107  1  0.30408821  0.69899214  0.30582786  1  0  -0.058291  0  3.825225  0  0  -0.088144  0  4.085922  0  0  -0.08358  0  4.10466  0  0  -0.098378  -0.090833  0  4.072981  0
S  S108  1  0.82957171  0.19815545  0.00576311  1  0  1.29148  0  5.680857  0  0  1.195323  0  6.202764  0  0  1.242987  0  6.179145  0  0  0.496015  1.162489  0  6.217825  0
S  S109  1  0.67042848  0.30184711  0.50576547  1  0  1.291361  0  5.68086  0  0  1.195233  0  6.202768  0  0  1.242891  0  6.179159  0  0  0.495978  1.162393  0  6.217824  0
S  S110  1  0.17042266  0.80184606  0.99423524  1  0  1.291386  0  5.680727  0  0  1.195287  0  6.202607  0  0  1.242952  0  6.178987  0  0  0.495984  1.162446  0  6.217665  0
S  S111  1  0.32957178  0.69815600  0.49423357  1  0  1.291387  0  5.680907  0  0  1.195281  0  6.2028  0  0  1.242941  0  6.179188  0  0  0.495999  1.162438  0  6.217862  0
N  N112  1  0.14143028  0.18878159  0.38708333  1  0  -0.680421  0  3.121537  0  0  -0.642303  0  3.349556  0  0  -0.665046  0  3.351587  0  0  -0.596028  -0.626123  0  3.347668  0
N  N113  1  0.35857118  0.31121860  0.88708121  1  0  -0.680382  0  3.121693  0  0  -0.642328  0  3.34968  0  0  -0.665058  0  3.35173  0  0  -0.59608  -0.626142  0  3.347793  0
N  N114  1  0.85857191  0.81121363  0.61291777  1  0  -0.680469  0  3.121658  0  0  -0.642326  0  3.349709  0  0  -0.665069  0  3.351737  0  0  -0.596052  -0.626143  0  3.347825  0
N  N115  1  0.64143709  0.68877981  0.11291783  1  0  -0.680424  0  3.12151  0  0  -0.642256  0  3.349568  0  0  -0.664996  0  3.351596  0  0  -0.596032  -0.626073  0  3.347687  0
N  N116  1  0.12766292  0.06494014  0.78140822  1  0  -0.297275  0  3.323308  0  0  -0.215856  0  3.594144  0  0  -0.232072  0  3.611695  0  0  -0.335812  -0.204812  0  3.582489  0
N  N117  1  0.37233784  0.43505808  0.28140854  1  0  -0.297326  0  3.323331  0  0  -0.215926  0  3.594219  0  0  -0.232144  0  3.611769  0  0  -0.335841  -0.20488  0  3.582567  0
N  N118  1  0.87234926  0.93505512  0.21859151  1  0  -0.297264  0  3.323571  0  0  -0.215928  0  3.594423  0  0  -0.232143  0  3.611972  0  0  -0.335843  -0.204885  0  3.582775  0
N  N119  1  0.62765234  0.56494419  0.71858982  1  0  -0.297225  0  3.323382  0  0  -0.215873  0  3.59429  0  0  -0.232089  0  3.611839  0  0  -0.335827  -0.204833  0  3.582643  0
N  N120  1  0.51635199  0.04492238  0.78444108  1  0  -0.298971  0  3.333261  0  0  -0.215161  0  3.598481  0  0  -0.231103  0  3.617096  0  0  -0.334087  -0.204262  0  3.586129  0
N  N121  1  0.98364722  0.45508117  0.28443780  1  0  -0.299137  0  3.333235  0  0  -0.215317  0  3.598489  0  0  -0.231256  0  3.6171  0  0  -0.334191  -0.20442  0  3.586142  0
N  N122  1  0.48365638  0.95507682  0.21556345  1  0  -0.299071  0  3.333249  0  0  -0.215203  0  3.598596  0  0  -0.231132  0  3.617194  0  0  -0.334181  -0.204307  0  3.586252  0
N  N123  1  0.01634646  0.54492665  0.71556056  1  0  -0.299027  0  3.333179  0  0  -0.215145  0  3.598488  0  0  -0.231078  0  3.617094  0  0  -0.334116  -0.204252  0  3.586142  0
O  O124  1  0.82538212  0.08985849  0.96778421  1  0  -0.68936  0  1.986704  0  0  -0.633946  0  2.258709  0  0  -0.656151  0  2.242923  0  0  -0.354513  -0.617876  0  2.268667  0
O  O125  1  0.67460772  0.41014015  0.46778761  1  0  -0.689357  0  1.986754  0  0  -0.633943  0  2.258769  0  0  -0.656138  0  2.242966  0  0  -0.354566  -0.617886  0  2.26875  0
O  O126  1  0.17460645  0.91014220  0.03221621  1  0  -0.689346  0  1.986592  0  0  -0.633948  0  2.2586  0  0  -0.656153  0  2.242817  0  0  -0.354555  -0.617889  0  2.268583  0
O  O127  1  0.32538637  0.58985898  0.53221349  1  0  -0.689364  0  1.98672  0  0  -0.633955  0  2.258726  0  0  -0.656159  0  2.242945  0  0  -0.354505  -0.617884  0  2.268697  0
O  O128  1  0.96068251  0.27255385  0.95362896  1  0  -0.696063  0  1.962629  0  0  -0.643444  0  2.212837  0  0  -0.663687  0  2.197885  0  0  -0.352521  -0.629007  0  2.222545  0
O  O129  1  0.53931772  0.22744715  0.45362935  1  0  -0.696008  0  1.962471  0  0  -0.643415  0  2.212719  0  0  -0.663653  0  2.197765  0  0  -0.352478  -0.628978  0  2.222426  0
O  O130  1  0.03931195  0.72744844  0.04637008  1  0  -0.696041  0  1.962543  0  0  -0.643427  0  2.21276  0  0  -0.663671  0  2.197807  0  0  -0.352512  -0.628996  0  2.222473  0
O  O131  1  0.46068475  0.77255044  0.54637107  1  0  -0.695958  0  1.962426  0  0  -0.643385  0  2.212687  0  0  -0.663623  0  2.197733  0  0  -0.35252  -0.628953  0  2.2224  0
O  O132  1  0.63708628  0.23553296  0.01713891  1  0  -0.679106  0  1.940503  0  0  -0.625861  0  2.181802  0  0  -0.646679  0  2.168916  0  0  -0.353137  -0.611046  0  2.190036  0
O  O133  1  0.86291382  0.26446963  0.51713939  1  0  -0.679033  0  1.940527  0  0  -0.625804  0  2.181845  0  0  -0.646626  0  2.168962  0  0  -0.353124  -0.610995  0  2.190083  0
O  O134  1  0.36290524  0.76446853  0.98285807  1  0  -0.679011  0  1.940455  0  0  -0.625782  0  2.181774  0  0  -0.646605  0  2.168895  0  0  -0.353073  -0.610969  0  2.190012  0
O  O135  1  0.13709216  0.73553350  0.48285622  1  0  -0.679038  0  1.94061  0  0  -0.625794  0  2.181919  0  0  -0.646612  0  2.169032  0  0  -0.353098  -0.610984  0  2.190158  0
