# generated using pymatgen
data_CdH17C17N2O5
_symmetry_space_group_name_H-M   'P 1'
_cell_length_a   8.75040462
_cell_length_b   10.60354975
_cell_length_c   10.91407216
_cell_angle_alpha   60.65983530
_cell_angle_beta   69.98498269
_cell_angle_gamma   85.11799435
_symmetry_Int_Tables_number   1
_chemical_formula_structural   CdH17C17N2O5
_chemical_formula_sum   'Cd2 H34 C34 N4 O10'
_cell_volume   825.22185538
_cell_formula_units_Z   2
loop_
 _symmetry_equiv_pos_site_id
 _symmetry_equiv_pos_as_xyz
  1  'x, y, z'
loop_
 _atom_site_type_symbol
 _atom_site_label
 _atom_site_symmetry_multiplicity
 _atom_site_fract_x
 _atom_site_fract_y
 _atom_site_fract_z
 _atom_site_occupancy
 _atom_site_hle17_bader_spin_density
 _atom_site_hle17_ddec_charge
 _atom_site_hle17_ddec_spin_density
 _atom_site_hle17_ddec_sum_bond_order
 _atom_site_hle17_magmom
 _atom_site_hse06_10hf_bader_spin_density
 _atom_site_hse06_10hf_ddec_charge
 _atom_site_hse06_10hf_ddec_spin_density
 _atom_site_hse06_10hf_ddec_sum_bond_order
 _atom_site_hse06_10hf_magmom
 _atom_site_hse06_bader_spin_density
 _atom_site_hse06_ddec_charge
 _atom_site_hse06_ddec_spin_density
 _atom_site_hse06_ddec_sum_bond_order
 _atom_site_hse06_magmom
 _atom_site_pbe_bader_spin_density
 _atom_site_pbe_cm5_charge
 _atom_site_pbe_ddec_charge
 _atom_site_pbe_ddec_spin_density
 _atom_site_pbe_ddec_sum_bond_order
 _atom_site_pbe_magmom
Cd  Cd0  1  0.22433369  0.91662101  0.66702219  1  0  1.16528  0  1.656614  0  0  0.983923  0  2.101173  0  0  1.040761  0  2.04617  0  0  0.769688  0.943382  0  2.138715  0
Cd  Cd1  1  0.77566555  0.08337700  0.33297806  1  0  1.165323  0  1.656632  0  0  0.98394  0  2.101167  0  0  1.040777  0  2.046165  0  0  0.769699  0.9434  0  2.13871  0
H  H2  1  0.97054275  0.75401881  0.02476456  1  0  0.095816  0  0.954668  0  0  0.103001  0  1.024234  0  0  0.104896  0  1.022283  0  0  0.134247  0.101523  0  1.025715  0
H  H3  1  0.02945541  0.24598029  0.97523638  1  0  0.095811  0  0.954661  0  0  0.102989  0  1.024243  0  0  0.10487  0  1.022308  0  0  0.134244  0.101511  0  1.025725  0
H  H4  1  0.38246667  0.58172813  0.84231397  1  0  0.106711  0  0.952955  0  0  0.116784  0  1.012089  0  0  0.119083  0  1.01141  0  0  0.118491  0.115078  0  1.012743  0
H  H5  1  0.61753270  0.41827096  0.15768481  1  0  0.106686  0  0.953091  0  0  0.11676  0  1.012219  0  0  0.11906  0  1.01154  0  0  0.118485  0.115055  0  1.012874  0
H  H6  1  0.20925008  0.36915499  0.13544815  1  0  0.124656  0  0.960747  0  0  0.13178  0  1.02567  0  0  0.134939  0  1.023961  0  0  0.12328  0.129881  0  1.026334  0
H  H7  1  0.79074943  0.63084519  0.86455098  1  0  0.12464  0  0.960733  0  0  0.131761  0  1.025671  0  0  0.13492  0  1.023962  0  0  0.123263  0.129861  0  1.026334  0
H  H8  1  0.91064493  0.35668454  0.30628078  1  0  0.095675  0  0.935053  0  0  0.108401  0  1.002325  0  0  0.110027  0  1.000129  0  0  0.115561  0.107079  0  1.004194  0
H  H9  1  0.08935324  0.64331456  0.69372016  1  0  0.095565  0  0.935059  0  0  0.108325  0  1.002291  0  0  0.109955  0  1.000088  0  0  0.115528  0.107006  0  1.004161  0
H  H10  1  0.81524444  0.51883997  0.25923567  1  0  0.09008  0  0.918811  0  0  0.104764  0  0.982186  0  0  0.105124  0  0.982833  0  0  0.115985  0.104341  0  0.981986  0
H  H11  1  0.18475481  0.48115804  0.74076549  1  0  0.090074  0  0.918801  0  0  0.104741  0  0.982172  0  0  0.105099  0  0.982821  0  0  0.115999  0.10432  0  0.981973  0
H  H12  1  0.95688413  0.25605488  0.53153673  1  0  0.099707  0  0.946422  0  0  0.114377  0  0.999834  0  0  0.116518  0  0.999702  0  0  0.103989  0.112605  0  1.000353  0
H  H13  1  0.04311619  0.74394203  0.46846374  1  0  0.099628  0  0.946531  0  0  0.11438  0  0.999842  0  0  0.116522  0  0.99971  0  0  0.10398  0.112607  0  1.000364  0
H  H14  1  0.99117424  0.72367331  0.27061577  1  0  0.096674  0  0.966712  0  0  0.106079  0  1.032569  0  0  0.109183  0  1.030743  0  0  0.099943  0.103526  0  1.034464  0
H  H15  1  0.00882621  0.27632469  0.72938415  1  0  0.096678  0  0.966706  0  0  0.106085  0  1.032547  0  0  0.109183  0  1.030739  0  0  0.099952  0.103532  0  1.034443  0
H  H16  1  0.73597625  0.10439597  0.83732673  1  0  0.115174  0  0.943276  0  0  0.128582  0  1.004489  0  0  0.130139  0  1.005387  0  0  0.101687  0.127499  0  1.003895  0
H  H17  1  0.26402461  0.89560529  0.16267242  1  0  0.1152  0  0.94329  0  0  0.128621  0  1.004482  0  0  0.130173  0  1.005389  0  0  0.101697  0.127538  0  1.003887  0
H  H18  1  0.66454504  0.02012473  0.75768867  1  0  0.113223  0  0.960516  0  0  0.125209  0  1.023566  0  0  0.127252  0  1.023303  0  0  0.100609  0.123667  0  1.023976  0
H  H19  1  0.33545326  0.97987546  0.24231172  1  0  0.113253  0  0.960486  0  0  0.12524  0  1.023543  0  0  0.127282  0  1.02328  0  0  0.100624  0.123698  0  1.023953  0
H  H20  1  0.50507142  0.78921777  0.91237292  1  0  0.097158  0  0.959802  0  0  0.107624  0  1.023264  0  0  0.110773  0  1.021796  0  0  0.097266  0.105317  0  1.024452  0
H  H21  1  0.49492931  0.21078240  0.08762680  1  0  0.097167  0  0.959849  0  0  0.107634  0  1.023301  0  0  0.110782  0  1.021835  0  0  0.097278  0.105328  0  1.024489  0
H  H22  1  0.35621696  0.58889000  0.16833891  1  0  0.080013  0  0.977546  0  0  0.088152  0  1.041839  0  0  0.090603  0  1.041713  0  0  0.09339  0.086528  0  1.04174  0
H  H23  1  0.64378391  0.41111127  0.83166115  1  0  0.080009  0  0.977522  0  0  0.088142  0  1.041828  0  0  0.090574  0  1.041721  0  0  0.093388  0.08652  0  1.041725  0
H  H24  1  0.40024939  0.57226888  0.38865344  1  0  0.090011  0  0.97008  0  0  0.104076  0  1.027897  0  0  0.106643  0  1.027373  0  0  0.097534  0.102134  0  1.028634  0
H  H25  1  0.59975392  0.42773237  0.61134687  1  0  0.090033  0  0.970085  0  0  0.104114  0  1.02788  0  0  0.106682  0  1.027356  0  0  0.097531  0.10217  0  1.028618  0
H  H26  1  0.75791834  0.94517957  0.09609612  1  0  0.112928  0  0.940582  0  0  0.12483  0  1.001223  0  0  0.128423  0  0.998936  0  0  0.103423  0.122179  0  1.003031  0
H  H27  1  0.24208265  0.05482279  0.90390248  1  0  0.112923  0  0.940575  0  0  0.124839  0  1.001199  0  0  0.128417  0  0.998931  0  0  0.103413  0.122187  0  1.003006  0
H  H28  1  0.57538952  0.63805289  0.48673371  1  0  0.107989  0  0.949881  0  0  0.121966  0  1.009679  0  0  0.124696  0  1.007743  0  0  0.098607  0.119957  0  1.011254  0
H  H29  1  0.42461377  0.36194836  0.51326477  1  0  0.10799  0  0.949857  0  0  0.121974  0  1.009665  0  0  0.124704  0  1.007727  0  0  0.098599  0.119964  0  1.011239  0
H  H30  1  0.73177424  0.78614751  0.36567274  1  0  0.118365  0  0.95545  0  0  0.130628  0  1.021384  0  0  0.132525  0  1.02097  0  0  0.102562  0.129289  0  1.021706  0
H  H31  1  0.26822799  0.21385485  0.63432734  1  0  0.118363  0  0.95544  0  0  0.130617  0  1.021401  0  0  0.132514  0  1.020985  0  0  0.102584  0.129283  0  1.021719  0
H  H32  1  0.37549929  0.08336127  0.38393458  1  0  0.399505  0  0.918875  0  0  0.367715  0  0.985233  0  0  0.379156  0  0.968685  0  0  0.277015  0.35956  0  0.997006  0
H  H33  1  0.62450010  0.91663783  0.61606603  1  0  0.399481  0  0.918908  0  0  0.367715  0  0.985232  0  0  0.379155  0  0.968685  0  0  0.277028  0.359561  0  0.997004  0
H  H34  1  0.19507559  0.11221501  0.37975156  1  0  0.421134  0  0.885203  0  0  0.388777  0  0.951513  0  0  0.400697  0  0.934345  0  0  0.278483  0.380348  0  0.963597  0
H  H35  1  0.80492271  0.88778518  0.62024882  1  0  0.421171  0  0.885149  0  0  0.388818  0  0.95145  0  0  0.400738  0  0.934282  0  0  0.27849  0.380389  0  0.963535  0
C  C36  1  0.06173504  0.68084312  0.01307928  1  0  0.161068  0  3.672031  0  0  0.099459  0  3.939778  0  0  0.113652  0  3.953751  0  0  0.14068  0.090532  0  3.929605  0
C  C37  1  0.93826434  0.31915598  0.98692132  1  0  0.161098  0  3.672002  0  0  0.099487  0  3.939754  0  0  0.113692  0  3.953734  0  0  0.140689  0.09056  0  3.929582  0
C  C38  1  0.27277671  0.58696375  0.92410734  1  0  0.004454  0  3.754224  0  0  -0.028928  0  4.021952  0  0  -0.02685  0  4.042661  0  0  -0.001978  -0.030384  0  4.008098  0
C  C39  1  0.72721659  0.41303538  0.07589495  1  0  0.004432  0  3.754189  0  0  -0.028955  0  4.021924  0  0  -0.026879  0  4.042632  0  0  -0.001981  -0.030412  0  4.008072  0
C  C40  1  0.18939728  0.48114270  0.06843370  1  0  -0.065593  0  3.65862  0  0  -0.104071  0  3.91695  0  0  -0.102897  0  3.935409  0  0  0.003259  -0.104929  0  3.904113  0
C  C41  1  0.81060330  0.51885638  0.93156475  1  0  -0.065555  0  3.658494  0  0  -0.104033  0  3.916822  0  0  -0.102858  0  3.93528  0  0  0.003267  -0.104891  0  3.903982  0
C  C42  1  0.92938122  0.47167121  0.27164210  1  0  -0.040786  0  3.644735  0  0  -0.109408  0  3.895712  0  0  -0.10431  0  3.905277  0  0  -0.045764  -0.112703  0  3.889375  0
C  C43  1  0.07061681  0.52832680  0.72835849  1  0  -0.04073  0  3.644761  0  0  -0.109294  0  3.895639  0  0  -0.104198  0  3.905204  0  0  -0.045758  -0.112601  0  3.889319  0
C  C44  1  0.97508026  0.36326502  0.51792702  1  0  -0.098505  0  3.735614  0  0  -0.115514  0  3.977318  0  0  -0.118158  0  3.999956  0  0  -0.086303  -0.113834  0  3.962349  0
C  C45  1  0.02491790  0.63673408  0.48207301  1  0  -0.098372  0  3.735657  0  0  -0.115427  0  3.977382  0  0  -0.118072  0  4.000022  0  0  -0.086259  -0.113746  0  3.962411  0
C  C46  1  0.96912905  0.48745307  0.38795973  1  0  0.059415  0  3.757585  0  0  0.079249  0  3.99586  0  0  0.078041  0  4.020753  0  0  -0.015653  0.080083  0  3.978929  0
C  C47  1  0.03086912  0.51254603  0.61204121  1  0  0.059428  0  3.757603  0  0  0.079182  0  3.995962  0  0  0.077975  0  4.020856  0  0  -0.015694  0.080019  0  3.979032  0
C  C48  1  0.99481849  0.62459228  0.37069465  1  0  -0.114526  0  3.753046  0  0  -0.136082  0  4.003901  0  0  -0.138932  0  4.026413  0  0  -0.092625  -0.134049  0  3.989113  0
C  C49  1  0.00518089  0.37540682  0.62930596  1  0  -0.114473  0  3.75294  0  0  -0.135996  0  4.003771  0  0  -0.138847  0  4.026278  0  0  -0.092598  -0.13397  0  3.988998  0
C  C50  1  0.90422989  0.97243496  0.77001323  1  0  0.690816  0  3.852134  0  0  0.645007  0  4.148543  0  0  0.678232  0  4.142967  0  0  0.200416  0.622533  0  4.151342  0
C  C51  1  0.09577097  0.02756630  0.22998501  1  0  0.690775  0  3.852184  0  0  0.644938  0  4.148641  0  0  0.678163  0  4.143066  0  0  0.200401  0.622463  0  4.151441  0
C  C52  1  0.73079632  0.00415387  0.83228605  1  0  -0.313943  0  3.690778  0  0  -0.354434  0  3.924519  0  0  -0.360712  0  3.932529  0  0  -0.164155  -0.350064  0  3.919023  0
C  C53  1  0.26920455  0.99584739  0.16771310  1  0  -0.314015  0  3.690751  0  0  -0.354548  0  3.924543  0  0  -0.360825  0  3.932549  0  0  -0.164203  -0.350176  0  3.919045  0
C  C54  1  0.64250402  0.87973156  0.98716434  1  0  0.127089  0  3.7518  0  0  0.149743  0  3.987441  0  0  0.150469  0  4.012546  0  0  -0.008326  0.149218  0  3.97043  0
C  C55  1  0.35749807  0.12026970  0.01283539  1  0  0.127026  0  3.751771  0  0  0.149725  0  3.987365  0  0  0.150452  0  4.012467  0  0  -0.008317  0.1492  0  3.970356  0
C  C56  1  0.52993256  0.77820411  0.00832589  1  0  -0.132804  0  3.730992  0  0  -0.155455  0  3.977627  0  0  -0.158468  0  3.998591  0  0  -0.097483  -0.153627  0  3.963878  0
C  C57  1  0.47006722  0.22179826  0.99167396  1  0  -0.132759  0  3.731039  0  0  -0.155419  0  3.977654  0  0  -0.158431  0  3.998613  0  0  -0.097494  -0.153592  0  3.963908  0
C  C58  1  0.44536075  0.66640951  0.15229122  1  0  -0.066778  0  3.817301  0  0  -0.075313  0  4.067508  0  0  -0.075993  0  4.088176  0  0  -0.097363  -0.074893  0  4.05363  0
C  C59  1  0.55464121  0.33359067  0.84770997  1  0  -0.066844  0  3.817285  0  0  -0.075388  0  4.067524  0  0  -0.076051  0  4.0882  0  0  -0.097393  -0.074966  0  4.053646  0
C  C60  1  0.47184494  0.65561419  0.27593438  1  0  -0.139182  0  3.753805  0  0  -0.163606  0  4.002521  0  0  -0.166886  0  4.023534  0  0  -0.099627  -0.161555  0  3.988504  0
C  C61  1  0.52815945  0.34438597  0.72406614  1  0  -0.139117  0  3.753844  0  0  -0.16359  0  4.002521  0  0  -0.16687  0  4.023528  0  0  -0.099603  -0.161539  0  3.988504  0
C  C62  1  0.58566957  0.75484025  0.25674221  1  0  0.11849  0  3.771082  0  0  0.14151  0  4.009148  0  0  0.142226  0  4.033946  0  0  -0.01327  0.141252  0  3.991997  0
C  C63  1  0.41433279  0.24516319  0.74325731  1  0  0.118359  0  3.771155  0  0  0.141509  0  4.009081  0  0  0.142226  0  4.033872  0  0  -0.013274  0.141252  0  3.991931  0
C  C64  1  0.67085739  0.86602846  0.11179542  1  0  -0.182097  0  3.6805  0  0  -0.210049  0  3.925891  0  0  -0.213843  0  3.946569  0  0  -0.095838  -0.207097  0  3.911532  0
C  C65  1  0.32914482  0.13397388  0.88820284  1  0  -0.182007  0  3.680498  0  0  -0.210015  0  3.925829  0  0  -0.213802  0  3.946515  0  0  -0.095812  -0.207062  0  3.911469  0
C  C66  1  0.60597407  0.74870659  0.39137394  1  0  -0.319389  0  3.698546  0  0  -0.364021  0  3.935909  0  0  -0.370009  0  3.943044  0  0  -0.16553  -0.359786  0  3.930922  0
C  C67  1  0.39402694  0.25129577  0.60862648  1  0  -0.319273  0  3.698519  0  0  -0.36399  0  3.935846  0  0  -0.369974  0  3.942975  0  0  -0.165529  -0.359757  0  3.930854  0
C  C68  1  0.49192525  0.84723113  0.43615138  1  0  0.733389  0  3.806409  0  0  0.685514  0  4.099919  0  0  0.719728  0  4.092797  0  0  0.217676  0.662156  0  4.104241  0
C  C69  1  0.50807414  0.15276798  0.56385013  1  0  0.733135  0  3.806716  0  0  0.68544  0  4.100013  0  0  0.719652  0  4.092894  0  0  0.217634  0.662081  0  4.104334  0
N  N70  1  0.19164038  0.71087264  0.89107485  1  0  -0.40569  0  3.264836  0  0  -0.33077  0  3.552103  0  0  -0.352931  0  3.569468  0  0  -0.362632  -0.315097  0  3.539323  0
N  N71  1  0.80835778  0.28912646  0.10892518  1  0  -0.405657  0  3.264757  0  0  -0.330736  0  3.552019  0  0  -0.352897  0  3.569384  0  0  -0.362608  -0.315063  0  3.53924  0
N  N72  1  0.05576979  0.54251936  0.12260160  1  0  -0.055752  0  3.573786  0  0  0.038405  0  3.790784  0  0  0.023434  0  3.817336  0  0  -0.239014  0.048563  0  3.772324  0
N  N73  1  0.94422837  0.45747974  0.87739844  1  0  -0.055774  0  3.573853  0  0  0.038364  0  3.790839  0  0  0.023393  0  3.817386  0  0  -0.239016  0.048527  0  3.772379  0
O  O74  1  0.01866145  0.01640899  0.79133475  1  0  -0.640402  0  1.92918  0  0  -0.576203  0  2.166922  0  0  -0.604492  0  2.15754  0  0  -0.326288  -0.556487  0  2.172819  0
O  O75  1  0.98133928  0.98359118  0.20866496  1  0  -0.640372  0  1.929181  0  0  -0.576168  0  2.166947  0  0  -0.604457  0  2.157563  0  0  -0.326279  -0.556452  0  2.172844  0
O  O76  1  0.93067245  0.89825706  0.70180087  1  0  -0.674872  0  1.966004  0  0  -0.605735  0  2.199689  0  0  -0.634585  0  2.188676  0  0  -0.32887  -0.585589  0  2.206508  0
O  O77  1  0.06932706  0.10174312  0.29819827  1  0  -0.674845  0  1.966028  0  0  -0.605695  0  2.199724  0  0  -0.634543  0  2.188707  0  0  -0.328874  -0.585549  0  2.206543  0
O  O78  1  0.53379364  0.98516190  0.35554304  1  0  -0.693829  0  2.055763  0  0  -0.615833  0  2.303117  0  0  -0.645471  0  2.290411  0  0  -0.332858  -0.595152  0  2.311281  0
O  O79  1  0.46620817  0.01483718  0.64445689  1  0  -0.693607  0  2.055752  0  0  -0.615783  0  2.303139  0  0  -0.645422  0  2.29044  0  0  -0.332836  -0.5951  0  2.311296  0
O  O80  1  0.35967884  0.78921171  0.54597643  1  0  -0.639969  0  1.966831  0  0  -0.573062  0  2.214557  0  0  -0.601782  0  2.204013  0  0  -0.32188  -0.553081  0  2.221282  0
O  O81  1  0.64031987  0.21078194  0.45402605  1  0  -0.639922  0  1.967015  0  0  -0.573035  0  2.214633  0  0  -0.601761  0  2.204106  0  0  -0.32186  -0.553055  0  2.221358  0
O  O82  1  0.27205978  0.11822567  0.42744156  1  0  -0.840797  0  1.844322  0  0  -0.777152  0  2.028839  0  0  -0.800968  0  1.994966  0  0  -0.598349  -0.759983  0  2.051966  0
O  O83  1  0.72793972  0.88177451  0.57255757  1  0  -0.840831  0  1.8443  0  0  -0.777189  0  2.028787  0  0  -0.801008  0  1.994918  0  0  -0.598371  -0.760021  0  2.051914  0
