# generated using pymatgen
data_FeNiH16(C11N4)2
_symmetry_space_group_name_H-M   'P 1'
_cell_length_a   8.92734854
_cell_length_b   9.48251492
_cell_length_c   11.82271096
_cell_angle_alpha   90.00028289
_cell_angle_beta   89.99988931
_cell_angle_gamma   100.12569973
_symmetry_Int_Tables_number   1
_chemical_formula_structural   FeNiH16(C11N4)2
_chemical_formula_sum   'Fe2 Ni2 H32 C44 N16'
_cell_volume   985.24780566
_cell_formula_units_Z   2
loop_
 _symmetry_equiv_pos_site_id
 _symmetry_equiv_pos_as_xyz
  1  'x, y, z'
loop_
 _atom_site_type_symbol
 _atom_site_label
 _atom_site_symmetry_multiplicity
 _atom_site_fract_x
 _atom_site_fract_y
 _atom_site_fract_z
 _atom_site_occupancy
 _atom_site_pbe_bader_spin_density
 _atom_site_pbe_cm5_charge
 _atom_site_pbe_ddec_charge
 _atom_site_pbe_ddec_spin_density
 _atom_site_pbe_ddec_sum_bond_order
 _atom_site_pbe_magmom
Fe  Fe0  1  0.99999995  0.49999967  0.00000096  1  0  0.826951  0.498344  0  3.758042  0
Fe  Fe1  1  0.00000044  0.99999979  0.49999977  1  0  0.826951  0.498344  0  3.758094  0
Ni  Ni2  1  0.99999548  0.99999972  0.99999945  1  0  0.393006  0.129004  0  3.903222  0
Ni  Ni3  1  0.00000049  0.50000012  0.49999965  1  0  0.392996  0.128949  0  3.903343  0
H  H4  1  0.47390480  0.50074577  0.70392294  1  0  0.106344  0.111593  0  1.024331  0
H  H5  1  0.52609486  0.99925762  0.20391840  1  0  0.106344  0.1116  0  1.024261  0
H  H6  1  0.52609628  0.49925395  0.29607651  1  0  0.10634  0.111586  0  1.024332  0
H  H7  1  0.47390662  0.00074425  0.79608104  1  0  0.10634  0.111597  0  1.024313  0
H  H8  1  0.94943167  0.65077267  0.77284871  1  0  0.121573  0.088524  0  1.01639  0
H  H9  1  0.05057005  0.84922472  0.27285018  1  0  0.121585  0.088554  0  1.016364  0
H  H10  1  0.05056881  0.34922385  0.22715158  1  0  0.121571  0.08854  0  1.016369  0
H  H11  1  0.94943288  0.15077286  0.72715096  1  0  0.121577  0.088516  0  1.016369  0
H  H12  1  0.72484829  0.65146023  0.65154251  1  0  0.104802  0.110653  0  1.031929  0
H  H13  1  0.27515329  0.84854070  0.15154113  1  0  0.1048  0.110639  0  1.031926  0
H  H14  1  0.27515371  0.34853842  0.34845694  1  0  0.104792  0.110632  0  1.031933  0
H  H15  1  0.72484891  0.15145902  0.84845832  1  0  0.104795  0.110627  0  1.031927  0
H  H16  1  0.33057048  0.17988586  0.02148588  1  0  0.09896  0.093678  0  1.02826  0
H  H17  1  0.66943016  0.32012030  0.52148460  1  0  0.09893  0.093657  0  1.028236  0
H  H18  1  0.66943020  0.82011172  0.97851188  1  0  0.098956  0.093658  0  1.028308  0
H  H19  1  0.33057000  0.67988049  0.47851569  1  0  0.098941  0.093688  0  1.028235  0
H  H20  1  0.55951887  0.22168777  0.14690881  1  0  0.103591  0.111275  0  1.043674  0
H  H21  1  0.44048446  0.27831059  0.64691023  1  0  0.103551  0.111249  0  1.043712  0
H  H22  1  0.44048090  0.77831088  0.85309064  1  0  0.103572  0.111289  0  1.043643  0
H  H23  1  0.55951570  0.72169021  0.35309006  1  0  0.10355  0.111251  0  1.043723  0
H  H24  1  0.33018871  0.31329420  0.84100799  1  0  0.103284  0.113251  0  1.032282  0
H  H25  1  0.66981072  0.18671605  0.34100290  1  0  0.103285  0.113244  0  1.03238  0
H  H26  1  0.66981217  0.68670445  0.15899061  1  0  0.103278  0.113242  0  1.03228  0
H  H27  1  0.33019036  0.81328367  0.65899740  1  0  0.10329  0.113253  0  1.032374  0
H  H28  1  0.85125218  0.30727274  0.13519065  1  0  0.301024  0.283614  0  0.953405  0
H  H29  1  0.14875064  0.19272877  0.63519045  1  0  0.301048  0.283647  0  0.953338  0
H  H30  1  0.14874686  0.69272806  0.86480965  1  0  0.301049  0.283655  0  0.953367  0
H  H31  1  0.85124952  0.80727203  0.36480815  1  0  0.301047  0.283648  0  0.953343  0
H  H32  1  0.81147469  0.46749908  0.16502678  1  0  0.294638  0.289454  0  0.981538  0
H  H33  1  0.18852585  0.03250260  0.66502592  1  0  0.294641  0.289481  0  0.98151  0
H  H34  1  0.18852660  0.53250172  0.83497436  1  0  0.294665  0.289508  0  0.981453  0
H  H35  1  0.81147411  0.96749712  0.33497269  1  0  0.294645  0.289487  0  0.981483  0
C  C36  1  0.88366201  0.04062230  0.11999478  1  0  0.008466  0.017323  0  3.858923  0
C  C37  1  0.11633220  0.45937482  0.61999312  1  0  0.008397  0.017226  0  3.858923  0
C  C38  1  0.11632879  0.95937635  0.88000636  1  0  0.008384  0.01717  0  3.858903  0
C  C39  1  0.88366908  0.54062597  0.38000633  1  0  0.008427  0.017297  0  3.858896  0
C  C40  1  0.69867975  0.43146598  0.92440338  1  0  0.110158  0.10164  0  3.948284  0
C  C41  1  0.30132224  0.06853514  0.42440174  1  0  0.110177  0.101687  0  3.948358  0
C  C42  1  0.30131950  0.56853589  0.07559860  1  0  0.110188  0.101709  0  3.948296  0
C  C43  1  0.69867884  0.93146458  0.57559771  1  0  0.110218  0.101727  0  3.94842  0
C  C44  1  0.56555444  0.41808331  0.85584473  1  0  -0.003664  0.044132  0  4.020322  0
C  C45  1  0.43444581  0.08191954  0.35584210  1  0  -0.003665  0.044138  0  4.020222  0
C  C46  1  0.43444461  0.58191749  0.14415557  1  0  -0.003647  0.044112  0  4.020341  0
C  C47  1  0.56555547  0.91808126  0.64415820  1  0  -0.003665  0.044114  0  4.020279  0
C  C48  1  0.57515333  0.50174992  0.75575108  1  0  -0.070164  -0.086761  0  3.933457  0
C  C49  1  0.42484625  0.99825379  0.25574753  1  0  -0.070127  -0.086752  0  3.933247  0
C  C50  1  0.42484663  0.49824980  0.24424921  1  0  -0.070159  -0.08675  0  3.933462  0
C  C51  1  0.57515503  0.00174701  0.74425276  1  0  -0.070115  -0.08675  0  3.933328  0
C  C52  1  0.84090368  0.58658497  0.79700725  1  0  0.058845  0.096964  0  3.897126  0
C  C53  1  0.15909820  0.91341364  0.29700797  1  0  0.058839  0.096945  0  3.897125  0
C  C54  1  0.15909740  0.41341476  0.20299304  1  0  0.05884  0.096923  0  3.897172  0
C  C55  1  0.84090380  0.08658501  0.70299232  1  0  0.058831  0.096943  0  3.897014  0
C  C56  1  0.71234248  0.58571301  0.72756218  1  0  -0.08802  -0.134547  0  3.992033  0
C  C57  1  0.28765787  0.91428839  0.22756019  1  0  -0.088049  -0.134541  0  3.991971  0
C  C58  1  0.28765768  0.41428778  0.27243811  1  0  -0.088019  -0.134539  0  3.992046  0
C  C59  1  0.71234414  0.08571027  0.77244010  1  0  -0.08805  -0.134505  0  3.992015  0
C  C60  1  0.69311579  0.36410328  0.03086454  1  0  0.086275  0.182058  0  3.966389  0
C  C61  1  0.30688831  0.13589759  0.53086391  1  0  0.086259  0.182077  0  3.966403  0
C  C62  1  0.30688345  0.63589859  0.96913745  1  0  0.08623  0.182025  0  3.966405  0
C  C63  1  0.69311185  0.86410321  0.46913554  1  0  0.08625  0.182043  0  3.966427  0
C  C64  1  0.43310512  0.25176739  0.99396257  1  0  -0.086074  -0.058012  0  3.998413  0
C  C65  1  0.56689512  0.24823736  0.49396039  1  0  -0.086041  -0.057976  0  3.998313  0
C  C66  1  0.56689484  0.74823233  0.00603773  1  0  -0.086043  -0.057972  0  3.998396  0
C  C67  1  0.43310505  0.75176343  0.50603906  1  0  -0.086052  -0.058052  0  3.998391  0
C  C68  1  0.56269980  0.27350582  0.06471202  1  0  -0.086472  -0.161493  0  3.961145  0
C  C69  1  0.43730201  0.22649525  0.56471240  1  0  -0.086464  -0.161501  0  3.961048  0
C  C70  1  0.43730036  0.72649498  0.93528912  1  0  -0.086487  -0.161572  0  3.961049  0
C  C71  1  0.56269683  0.77350447  0.43528789  1  0  -0.086474  -0.161479  0  3.961123  0
C  C72  1  0.43258709  0.32468828  0.89284715  1  0  -0.087783  -0.130583  0  3.947154  0
C  C73  1  0.56741219  0.17531586  0.39284385  1  0  -0.087774  -0.130612  0  3.947262  0
C  C74  1  0.56741287  0.67531145  0.10715314  1  0  -0.087796  -0.130563  0  3.947155  0
C  C75  1  0.43258890  0.82468386  0.60715560  1  0  -0.087777  -0.130592  0  3.947284  0
C  C76  1  0.98293859  0.81026993  0.03823153  1  0  0.009951  0.000604  0  3.797518  0
C  C77  1  0.01705737  0.68972925  0.53823573  1  0  0.009961  0.000671  0  3.797484  0
C  C78  1  0.01705914  0.18972980  0.96176877  1  0  0.009967  0.000677  0  3.797427  0
C  C79  1  0.98294372  0.31027048  0.46176287  1  0  0.009968  0.000645  0  3.797538  0
N  N80  1  0.81136328  0.07211031  0.19624813  1  0  -0.356121  -0.385099  0  3.059208  0
N  N81  1  0.18863062  0.42788620  0.69624709  1  0  -0.356082  -0.385021  0  3.059143  0
N  N82  1  0.18862976  0.92788834  0.80375216  1  0  -0.356081  -0.385008  0  3.059051  0
N  N83  1  0.81137087  0.57211567  0.30375151  1  0  -0.356102  -0.385078  0  3.05911  0
N  N84  1  0.83629263  0.51123753  0.89252327  1  0  -0.334818  -0.181151  0  3.605244  0
N  N85  1  0.16371003  0.98876058  0.39252428  1  0  -0.334799  -0.181148  0  3.605246  0
N  N86  1  0.16370733  0.48876219  0.10747787  1  0  -0.334801  -0.181115  0  3.605199  0
N  N87  1  0.83629218  0.01123914  0.60747517  1  0  -0.334819  -0.181148  0  3.605227  0
N  N88  1  0.82907545  0.40003987  0.09876011  1  0  -0.603366  -0.522275  0  3.453065  0
N  N89  1  0.17092611  0.09996034  0.59876038  1  0  -0.603388  -0.522327  0  3.452854  0
N  N90  1  0.17092359  0.59996093  0.90124103  1  0  -0.603381  -0.522322  0  3.452942  0
N  N91  1  0.82907517  0.90004045  0.40123907  1  0  -0.603403  -0.522352  0  3.452908  0
N  N92  1  0.98157442  0.68642739  0.04550542  1  0  -0.4014  -0.298513  0  3.590047  0
N  N93  1  0.01842325  0.81357504  0.54550672  1  0  -0.401398  -0.298561  0  3.590089  0
N  N94  1  0.01842462  0.31357341  0.95449572  1  0  -0.401406  -0.298577  0  3.59004  0
N  N95  1  0.98157784  0.18642468  0.45449188  1  0  -0.4014  -0.298537  0  3.590145  0
