# generated using pymatgen
data_Zn4H26C45BrN5O13
_symmetry_space_group_name_H-M   'P 1'
_cell_length_a   15.61799343
_cell_length_b   19.11874554
_cell_length_c   19.34676184
_cell_angle_alpha   95.09329741
_cell_angle_beta   102.10992483
_cell_angle_gamma   97.01290009
_symmetry_Int_Tables_number   1
_chemical_formula_structural   Zn4H26C45BrN5O13
_chemical_formula_sum   'Zn4 H26 C45 Br1 N5 O13'
_cell_volume   5566.97993955
_cell_formula_units_Z   1
loop_
 _symmetry_equiv_pos_site_id
 _symmetry_equiv_pos_as_xyz
  1  'x, y, z'
loop_
 _atom_site_type_symbol
 _atom_site_label
 _atom_site_symmetry_multiplicity
 _atom_site_fract_x
 _atom_site_fract_y
 _atom_site_fract_z
 _atom_site_occupancy
 _atom_site_pbe_bader_charge
 _atom_site_pbe_bader_spin_density
 _atom_site_pbe_cm5_charge
 _atom_site_pbe_ddec_charge
 _atom_site_pbe_ddec_spin_density
 _atom_site_pbe_ddec_sum_bond_order
 _atom_site_pbe_magmom
Zn  Zn0  1  0.42967828  0.55262673  0.55132655  1  1.315345  0  0.673792  0.966042  0  2.379314  0
Zn  Zn1  1  0.56807057  0.44784246  0.57187178  1  1.312981  0  0.670071  0.958259  0  2.397711  0
Zn  Zn2  1  0.57724581  0.55637315  0.45676048  1  1.309956  0  0.668997  0.96349  0  2.3663  0
Zn  Zn3  1  0.41746326  0.42753623  0.42412457  1  1.314468  0  0.671608  0.971028  0  2.339909  0
H  H4  1  0.83905974  0.53783707  0.68065117  1  0.094751  0  0.106939  0.111908  0  0.991329  0
H  H5  1  0.35647803  0.42426934  0.06889349  1  0.099218  0  0.108732  0.114353  0  0.989826  0
H  H6  1  0.14198525  0.53185414  0.67829219  1  0.084308  0  0.089416  0.096257  0  1.03705  0
H  H7  1  0.36557048  0.41376532  0.19891582  1  0.101064  0  0.105769  0.117259  0  0.997805  0
H  H8  1  0.62397107  0.47279375  0.78535977  1  0.106135  0  0.111932  0.119171  0  0.984251  0
H  H9  1  0.64431234  0.48111931  0.91817712  1  0.095837  0  0.110736  0.117287  0  0.987345  0
H  H10  1  0.57920505  0.58707769  0.25143163  1  0.094765  0  0.107264  0.119863  0  1.006628  0
H  H11  1  0.00359354  0.54278103  0.71269506  1  0.062291  0  0.103789  0.105012  0  0.99181  0
H  H12  1  0.84113008  0.50435357  0.45915045  1  0.048278  0  0.105735  0.109806  0  1.016026  0
H  H13  1  0.15240929  0.43436698  0.33582677  1  0.085999  0  0.107919  0.112139  0  0.989859  0
H  H14  1  0.90506792  0.46559780  0.38874153  1  0.094414  0  0.105028  0.103257  0  1.007765  0
H  H15  1  0.57340370  0.10391801  0.58463975  1  0.089029  0  0.108491  0.112709  0  1.004787  0
H  H16  1  0.98826266  0.43026038  0.30027338  1  0.044871  0  0.104342  0.101437  0  0.989719  0
H  H17  1  0.22720236  0.50980484  0.58785443  1  0.087579  0  0.095153  0.105583  0  1.051702  0
H  H18  1  0.57246429  0.23571157  0.59037834  1  0.105884  0  0.110518  0.116989  0  0.987008  0
H  H19  1  0.61318165  0.64863652  0.16730096  1  0.435324  0  0.320696  0.256745  0  0.932751  0
H  H20  1  0.49526641  0.64926442  0.03398850  1  0.030776  0  0.103612  0.112215  0  0.974358  0
H  H21  1  0.59459521  0.62161456  0.01813496  1  0.096705  0  0.101302  0.105268  0  1.030574  0
H  H22  1  0.59829154  0.70486219  0.07023727  1  0.021689  0  0.109684  0.114718  0  0.975871  0
H  H23  1  0.44936395  0.90104675  0.60563358  1  0.094996  0  0.110876  0.114556  0  0.986894  0
H  H24  1  0.44983768  0.76893021  0.60173238  1  0.110766  0  0.110847  0.117951  0  0.987046  0
H  H25  1  0.43754485  0.21132844  0.37000268  1  0.092807  0  0.110233  0.116153  0  0.988166  0
H  H26  1  0.57982589  0.90479933  0.43094951  1  0.10063  0  0.107177  0.11097  0  1.004914  0
H  H27  1  0.44551380  0.08003802  0.36255602  1  0.090377  0  0.109844  0.114259  0  0.98819  0
H  H28  1  0.58645788  0.77381071  0.43081703  1  0.102583  0  0.108255  0.113133  0  0.990762  0
H  H29  1  0.37993600  0.53152296  0.89777989  1  0.119625  0  0.105076  0.117938  0  1.023578  0
C  C30  1  0.50125507  0.30884579  0.48574064  1  1.554828  0  0.228654  0.606206  0  4.16406  0
C  C31  1  0.87853333  0.51100535  0.51410263  1  -0.026251  0  -0.07884  -0.135512  0  3.936024  0
C  C32  1  0.87691413  0.53111032  0.63979284  1  -0.003025  0  -0.087421  -0.09776  0  4.006385  0
C  C33  1  0.51736856  0.68570815  0.51376470  1  1.543665  0  0.226695  0.602663  0  4.169144  0
C  C34  1  0.16071018  0.47322883  0.44465462  1  -0.09544  0  -0.01347  -0.079136  0  3.918557  0
C  C35  1  0.51764401  0.76398664  0.51575704  1  0.003334  0  -0.014596  -0.037164  0  3.961966  0
C  C36  1  0.55533105  0.80210863  0.46795642  1  -0.036833  0  -0.078813  -0.077361  0  3.971575  0
C  C37  1  0.55194041  0.87432492  0.46800836  1  -0.018605  0  -0.08255  -0.144163  0  3.954995  0
C  C38  1  0.51263511  0.90947902  0.51751602  1  0.34157  0  0.089582  0.171595  0  4.055829  0
C  C39  1  0.47802272  0.87206681  0.56714858  1  -0.048405  0  -0.077333  -0.138304  0  3.954453  0
C  C40  1  0.47873218  0.79937646  0.56516088  1  -0.030834  0  -0.078505  -0.079238  0  3.971605  0
C  C41  1  0.02321611  0.44809730  0.35515179  1  0.027112  0  -0.09415  -0.089322  0  4.060815  0
C  C42  1  0.54437659  0.12826952  0.53812928  1  0.007133  0  -0.082221  -0.145214  0  3.955687  0
C  C43  1  0.54346266  0.20088821  0.54121742  1  -0.069329  0  -0.077083  -0.075243  0  3.968977  0
C  C44  1  0.50796957  0.08485595  0.47347559  1  0.321233  0  0.089227  0.172988  0  4.047521  0
C  C45  1  0.49053693  0.49824136  0.68891656  1  1.586686  0  0.223861  0.612206  0  4.166473  0
C  C46  1  0.50400661  0.23078404  0.48075462  1  0.041829  0  -0.013631  -0.033772  0  3.961822  0
C  C47  1  0.46777318  0.18732149  0.41636763  1  -0.045557  0  -0.079796  -0.083529  0  3.974858  0
C  C48  1  0.47176154  0.11484640  0.41223008  1  -0.037598  0  -0.078742  -0.140828  0  3.952907  0
C  C49  1  0.47569478  0.49908141  0.23225427  1  -0.01597  0  -0.017685  -0.010089  0  4.005137  0
C  C50  1  0.53131980  0.55087540  0.21058302  1  -0.031973  0  -0.096616  -0.213426  0  3.965807  0
C  C51  1  0.52649703  0.55923489  0.13807342  1  0.437229  0  0.114013  0.179625  0  4.028765  0
C  C52  1  0.97661180  0.46830424  0.40521899  1  -0.108452  0  -0.083489  -0.117396  0  3.990685  0
C  C53  1  0.46480908  0.50846491  0.08653525  1  0.463157  0  0.084975  0.07751  0  4.010221  0
C  C54  1  0.40471862  0.45954867  0.11017295  1  -0.079884  0  -0.084477  -0.133075  0  4.005503  0
C  C55  1  0.40999498  0.45329777  0.18137622  1  -0.011834  0  -0.10316  -0.128216  0  4.023238  0
C  C56  1  0.43354669  0.51958310  0.87276356  1  0.015568  0  -0.096101  -0.215929  0  3.959603  0
C  C57  1  0.48485006  0.49414935  0.31014904  1  1.544475  0  0.227536  0.60515  0  4.153427  0
C  C58  1  0.42464475  0.51804382  0.79964076  1  -0.120572  0  -0.006217  0.11345  0  3.938911  0
C  C59  1  0.51281856  0.50610704  0.91555594  1  0.41786  0  0.091492  0.192618  0  4.059515  0
C  C60  1  0.49317084  0.50104918  0.76685560  1  -0.000453  0  -0.020784  -0.086555  0  3.930714  0
C  C61  1  0.57151640  0.48662554  0.81096936  1  0.049463  0  -0.079134  -0.069369  0  3.977547  0
C  C62  1  0.58273222  0.49071918  0.88429290  1  -0.115557  0  -0.086762  -0.157959  0  3.974843  0
C  C63  1  0.01955443  0.49013777  0.47710535  1  -0.06446  0  -1e-06  0.032599  0  3.939479  0
C  C64  1  0.73441958  0.51849736  0.54795693  1  1.547263  0  0.22598  0.607845  0  4.160053  0
C  C65  1  0.25957749  0.47860666  0.46027993  1  1.577452  0  0.230901  0.615011  0  4.144019  0
C  C66  1  0.96744615  0.53313440  0.65716910  1  -0.091991  0  -0.089001  -0.13277  0  4.001021  0
C  C67  1  0.83228397  0.52128189  0.56734045  1  0.005503  0  -0.019876  -0.036055  0  4.003987  0
C  C68  1  0.11521406  0.45018960  0.37491702  1  0.043687  0  -0.082391  -0.09137  0  3.994433  0
C  C69  1  0.56584906  0.64965026  0.05796468  1  0.328085  0  -0.132328  -0.214727  0  3.985095  0
C  C70  1  0.11354646  0.49214288  0.49779516  1  0.003844  0  0.002491  0.067292  0  3.93416  0
C  C71  1  0.97019221  0.50778421  0.53070168  1  0.039447  0  -0.001686  0.032765  0  3.945413  0
C  C72  1  0.01544741  0.52135790  0.60380212  1  0.012475  0  -0.004193  0.086304  0  4.016928  0
C  C73  1  0.10874511  0.52153510  0.62206593  1  -0.095387  0  -0.09495  -0.134337  0  4.01529  0
C  C74  1  0.15607129  0.50865613  0.57171527  1  -0.025387  0  -0.093627  -0.123775  0  3.997506  0
Br  Br75  1  0.31379835  0.53696804  0.74756295  1  -0.05538  0  0.025768  -0.067961  0  1.493045  0
N  N76  1  0.50751364  0.98283839  0.52278168  1  -0.479721  0  -0.144182  -0.131037  0  3.28733  0
N  N77  1  0.50721554  0.01055228  0.46568027  1  -0.48928  0  -0.145258  -0.134712  0  3.268062  0
N  N78  1  0.45642703  0.49965371  0.01306189  1  -0.550591  0  -0.155433  -0.128614  0  3.347421  0
N  N79  1  0.52737347  0.51077929  0.99044846  1  -0.523561  0  -0.160517  -0.151661  0  3.278223  0
N  N80  1  0.57770762  0.61701894  0.12329707  1  -1.198314  0  -0.425809  -0.252132  0  3.606039  0
O  O81  1  0.49697980  0.49541297  0.49945136  1  -1.236087  0  -0.572774  -1.029807  0  2.538716  0
O  O82  1  0.69162120  0.49473943  0.59260671  1  -1.176308  0  -0.320577  -0.554894  0  2.320834  0
O  O83  1  0.29230706  0.43250471  0.42571975  1  -1.160421  0  -0.315362  -0.549078  0  2.311953  0
O  O84  1  0.70044790  0.53909374  0.48845165  1  -1.175617  0  -0.318321  -0.549265  0  2.308039  0
O  O85  1  0.30359736  0.53002422  0.50549768  1  -1.178797  0  -0.313134  -0.544565  0  2.359211  0
O  O86  1  0.44495501  0.53894697  0.65282006  1  -1.172395  0  -0.313682  -0.548785  0  2.389829  0
O  O87  1  0.42990225  0.44796866  0.32815769  1  -1.165372  0  -0.313815  -0.545587  0  2.320371  0
O  O88  1  0.55394726  0.34647780  0.53932838  1  -1.170039  0  -0.316641  -0.548089  0  2.342037  0
O  O89  1  0.56425354  0.65719128  0.47550528  1  -1.170159  0  -0.316311  -0.550417  0  2.327413  0
O  O90  1  0.44666174  0.33123750  0.43670430  1  -1.167409  0  -0.31447  -0.548122  0  2.322712  0
O  O91  1  0.46935906  0.65365078  0.55047228  1  -1.177636  0  -0.315026  -0.54385  0  2.345698  0
O  O92  1  0.53706565  0.45530580  0.66516892  1  -1.160968  0  -0.315252  -0.542214  0  2.332438  0
O  O93  1  0.54716582  0.53664754  0.35246051  1  -1.174494  0  -0.318819  -0.549196  0  2.341958  0
