# generated using pymatgen
data_ZnH18C35(NO2)2
_symmetry_space_group_name_H-M   'P 1'
_cell_length_a   14.12614958
_cell_length_b   15.20412527
_cell_length_c   15.66138212
_cell_angle_alpha   102.98351135
_cell_angle_beta   89.89143388
_cell_angle_gamma   100.02341271
_symmetry_Int_Tables_number   1
_chemical_formula_structural   ZnH18C35(NO2)2
_chemical_formula_sum   'Zn2 H36 C70 N4 O8'
_cell_volume   3225.23569769
_cell_formula_units_Z   2
loop_
 _symmetry_equiv_pos_site_id
 _symmetry_equiv_pos_as_xyz
  1  'x, y, z'
loop_
 _atom_site_type_symbol
 _atom_site_label
 _atom_site_symmetry_multiplicity
 _atom_site_fract_x
 _atom_site_fract_y
 _atom_site_fract_z
 _atom_site_occupancy
 _atom_site_pbe_bader_charge
 _atom_site_pbe_bader_spin_density
 _atom_site_pbe_cm5_charge
 _atom_site_pbe_ddec_charge
 _atom_site_pbe_ddec_spin_density
 _atom_site_pbe_ddec_sum_bond_order
 _atom_site_pbe_magmom
Zn  Zn0  1  0.52826332  0.60147155  0.49028316  1  1.31031  0  0.682073  0.860815  0  2.335092  0
Zn  Zn1  1  0.47773112  0.40706572  0.51254367  1  1.3154  0  0.68334  0.859927  0  2.371483  0
H  H2  1  0.02445876  0.60049728  0.47696233  1  0.093311  0  0.120788  0.124182  0  0.955564  0
H  H3  1  0.63931012  0.72210693  0.75911649  1  0.100846  0  0.10952  0.116302  0  1.001487  0
H  H4  1  0.69726546  0.75723075  0.91637149  1  0.096011  0  0.105847  0.111178  0  1.000852  0
H  H5  1  0.42553676  0.20461109  0.07459902  1  0.075181  0  0.108224  0.113919  0  0.996288  0
H  H6  1  0.64993251  0.59731284  0.14703631  1  0.090209  0  0.114168  0.121142  0  0.996235  0
H  H7  1  0.50881004  0.35096401  0.83780108  1  0.053053  0  0.115516  0.123467  0  0.995277  0
H  H8  1  0.59982031  0.65915760  0.34063390  1  0.118893  0  0.120203  0.09852  0  1.007184  0
H  H9  1  0.33065278  0.32623906  0.60476383  1  0.134427  0  0.123801  0.10767  0  0.987428  0
H  H10  1  0.14788666  0.03807053  0.55736771  1  0.070861  0  0.100635  0.101265  0  0.998373  0
H  H11  1  0.00599786  0.00190444  0.64515315  1  0.066662  0  0.099706  0.095135  0  0.996069  0
H  H12  1  0.02418193  0.94307950  0.77940687  1  0.040722  0  0.101488  0.09692  0  0.993287  0
H  H13  1  0.98054057  0.41868639  0.53832720  1  0.091927  0  0.116411  0.115577  0  0.967023  0
H  H14  1  0.18586390  0.92132280  0.82538388  1  0.040511  0  0.10409  0.100568  0  0.986381  0
H  H15  1  0.32779736  0.95768618  0.73764513  1  0.089311  0  0.099799  0.102632  0  1.023111  0
H  H16  1  0.48435196  0.83152020  0.17868139  1  0.046834  0  0.100096  0.100031  0  0.999904  0
H  H17  1  0.53019393  0.84489467  0.02870842  1  0.0353  0  0.098478  0.091573  0  1.004097  0
H  H18  1  0.65427031  0.97509034  0.00682226  1  0.043561  0  0.100062  0.093603  0  0.997093  0
H  H19  1  0.73372044  0.09088539  0.13676252  1  0.064848  0  0.102929  0.097355  0  0.991106  0
H  H20  1  0.68814225  0.07759371  0.28680240  1  0.087413  0  0.09654  0.094436  0  1.037535  0
H  H21  1  0.61575979  0.91921549  0.62173960  1  0.062589  0  0.101392  0.099498  0  0.99693  0
H  H22  1  0.59879394  0.94439318  0.78291863  1  0.07428  0  0.102375  0.097389  0  0.994032  0
H  H23  1  0.46375867  0.85089748  0.84341359  1  0.058951  0  0.102172  0.095687  0  0.99712  0
H  H24  1  0.26542879  0.17889730  0.64694171  1  0.082663  0  0.112069  0.122826  0  1.002064  0
H  H25  1  0.34686953  0.73167959  0.74155185  1  0.072282  0  0.105384  0.101159  0  0.983433  0
H  H26  1  0.36521770  0.70590985  0.58072907  1  0.136954  0  0.104762  0.118045  0  1.032837  0
H  H27  1  0.63879631  0.17500480  0.58343593  1  0.059276  0  0.101886  0.099261  0  0.995313  0
H  H28  1  0.80949305  0.19887245  0.54208246  1  0.060669  0  0.101202  0.096017  0  0.994162  0
H  H29  1  0.85441920  0.25652144  0.40771837  1  0.050022  0  0.103098  0.097289  0  0.991399  0
H  H30  1  0.72754942  0.29202578  0.31696152  1  0.047908  0  0.105055  0.099306  0  0.983264  0
H  H31  1  0.55755822  0.27058190  0.36015024  1  0.113554  0  0.101818  0.108562  0  1.050212  0
H  H32  1  0.61670816  0.79177728  0.26824808  1  0.102835  0  0.109621  0.120623  0  1.014062  0
H  H33  1  0.35612369  0.88072816  0.57323887  1  0.113616  0  0.106574  0.112578  0  1.040639  0
H  H34  1  0.53237888  0.09044164  0.35525891  1  0.093188  0  0.106045  0.110378  0  1.039953  0
H  H35  1  0.55957238  0.52864011  0.21840335  1  0.069643  0  0.105113  0.106069  0  1.035246  0
H  H36  1  0.50806418  0.45172878  0.77446787  1  0.112  0  0.10679  0.113808  0  1.024079  0
H  H37  1  0.42523366  0.25990534  0.23726226  1  0.103893  0  0.110934  0.116621  0  0.988303  0
C  C38  1  0.53291396  0.56100295  0.66625938  1  1.581738  0  0.214654  0.58867  0  4.17869  0
C  C39  1  0.51645208  0.37362542  0.90884934  1  0.08917  0  -0.067083  -0.144369  0  3.926097  0
C  C40  1  0.66078841  0.64229595  0.02762819  1  0.076376  0  0.007647  0.021071  0  4.089867  0
C  C41  1  0.48903583  0.30981370  0.95876389  1  0.077685  0  0.009793  0.020134  0  4.084809  0
C  C42  1  0.32529981  0.18296245  0.60324557  1  0.055855  0  -0.083819  -0.175109  0  3.979068  0
C  C43  1  0.58138935  0.79455807  0.33048528  1  -0.093768  0  -0.084911  -0.178054  0  3.983436  0
C  C44  1  0.36243714  0.26507077  0.58247990  1  0.368044  0  0.039151  0.084887  0  3.956046  0
C  C45  1  0.57456816  0.72219336  0.37074729  1  0.496469  0  0.038999  0.090013  0  3.960469  0
C  C46  1  0.48649386  0.20430802  0.50418927  1  0.540434  0  0.145081  0.194836  0  3.891926  0
C  C47  1  0.50696883  0.80060203  0.49503750  1  0.520894  0  0.144202  0.195256  0  3.887019  0
C  C48  1  0.44371882  0.11408473  0.51073587  1  -0.013628  0  0.002191  -0.054112  0  3.907928  0
C  C49  1  0.48958378  0.43464869  0.33290827  1  1.53666  0  0.215881  0.590788  0  4.175547  0
C  C50  1  0.50062465  0.87438936  0.45407402  1  0.046647  0  0.005409  -0.050998  0  3.8902  0
C  C51  1  0.36505426  0.10422492  0.56724668  1  0.000864  0  0.009825  0.071381  0  3.977186  0
C  C52  1  0.54356980  0.87306937  0.37088533  1  -0.009054  0  0.011358  0.074388  0  3.972166  0
C  C53  1  0.31899619  0.50586498  0.50173774  1  1.665319  0  0.221381  0.669828  0  4.241257  0
C  C54  1  0.68562650  0.50695501  0.49980771  1  1.672592  0  0.215998  0.660259  0  4.250822  0
C  C55  1  0.47917853  0.03331142  0.46447193  1  -0.051233  0  -0.000934  0.04492  0  3.990647  0
C  C56  1  0.45576508  0.95165649  0.49468729  1  0.010205  0  0.000642  0.046638  0  3.980471  0
C  C57  1  0.38121659  0.94578363  0.55564655  1  -0.049505  0  -0.07707  -0.15799  0  3.939276  0
C  C58  1  0.52484923  0.03043076  0.38319992  1  -0.101418  0  -0.077187  -0.157995  0  3.956315  0
C  C59  1  0.33194875  0.01634973  0.58706171  1  -0.004443  0  0.003392  0.036935  0  3.95379  0
C  C60  1  0.58113883  0.53441039  0.89623201  1  0.017462  0  0.001308  0.037034  0  3.970275  0
C  C61  1  0.55040652  0.95199313  0.33322320  1  0.040922  0  0.000339  0.031229  0  3.958422  0
C  C62  1  0.78536279  0.49842616  0.50632332  1  -0.071591  0  -0.035656  -0.17158  0  3.942864  0
C  C63  1  0.21972767  0.51786797  0.50179196  1  -0.050687  0  -0.042227  -0.185993  0  3.947734  0
C  C64  1  0.96534325  0.47903918  0.51751472  1  0.053289  0  -0.062917  -0.04781  0  4.068807  0
C  C65  1  0.03995163  0.53996773  0.49722767  1  0.138001  0  -0.062009  -0.047371  0  4.058949  0
C  C66  1  0.13607480  0.52844338  0.50047656  1  -0.273362  0  -0.038867  -0.016072  0  4.17321  0
C  C67  1  0.86924476  0.48995767  0.51235675  1  -0.190024  0  -0.03929  -0.021101  0  4.173087  0
C  C68  1  0.57002173  0.58416956  0.75975108  1  0.011816  0  -0.0096  -0.012791  0  3.957686  0
C  C69  1  0.49308598  0.39831051  0.23582935  1  0.023918  0  -0.00977  -0.016282  0  3.969782  0
C  C70  1  0.65589754  0.69006492  0.88528253  1  -0.016667  0  -0.089019  -0.137702  0  3.985442  0
C  C71  1  0.53581050  0.42890768  0.09331783  1  -0.007395  0  -0.000264  0.037278  0  3.973261  0
C  C72  1  0.45631986  0.27542375  0.10604149  1  0.048032  0  -0.087495  -0.132597  0  3.983257  0
C  C73  1  0.62429368  0.67107903  0.79856837  1  -0.119747  0  -0.07692  -0.07829  0  3.968576  0
C  C74  1  0.45602966  0.30572902  0.19603787  1  -0.097606  0  -0.077956  -0.083218  0  3.974882  0
C  C75  1  0.55052085  0.51727701  0.80770983  1  -0.013912  0  -0.078503  -0.13218  0  3.933984  0
C  C76  1  0.53331157  0.45769981  0.18498485  1  -0.035976  0  -0.080485  -0.135414  0  3.944522  0
C  C77  1  0.72047487  0.72690355  0.06867533  1  0.816448  0  0.175495  0.228402  0  4.046585  0
C  C78  1  0.45383236  0.21660217  0.91592428  1  0.819014  0  0.174485  0.234694  0  4.046538  0
C  C79  1  0.24754848  0.99996241  0.64145197  1  0.005947  0  -0.010346  0.064947  0  4.002409  0
C  C80  1  0.15643478  0.01338188  0.61669998  1  -0.041544  0  -0.094402  -0.142572  0  3.999436  0
C  C81  1  0.07658929  0.99267172  0.66592724  1  -0.068533  0  -0.097531  -0.087883  0  4.057695  0
C  C82  1  0.63370739  0.62341703  0.93592093  1  0.010438  0  0.005185  0.044545  0  3.978388  0
C  C83  1  0.08666793  0.95926393  0.74099783  1  -0.101293  0  -0.094492  -0.091301  0  4.03691  0
C  C84  1  0.17713229  0.94658078  0.76648368  1  0.049904  0  -0.09229  -0.080143  0  4.027703  0
C  C85  1  0.25701698  0.96651404  0.71704630  1  -0.089187  0  -0.086754  -0.120907  0  3.95701  0
C  C86  1  0.58328662  0.95349546  0.24346823  1  -0.027009  0  -0.009766  0.06888  0  3.996814  0
C  C87  1  0.54002484  0.88781478  0.16971767  1  -0.045788  0  -0.09308  -0.137773  0  3.987608  0
C  C88  1  0.56523315  0.89588842  0.08525981  1  -0.014872  0  -0.096534  -0.083286  0  4.050784  0
C  C89  1  0.63459710  0.96898588  0.07289778  1  -0.042224  0  -0.090495  -0.08165  0  4.026991  0
C  C90  1  0.67889494  0.03397680  0.14568972  1  -0.065297  0  -0.09125  -0.076054  0  4.029895  0
C  C91  1  0.65343551  0.02649989  0.23017336  1  -0.031419  0  -0.089482  -0.125621  0  3.962627  0
C  C92  1  0.49169614  0.81069129  0.59086076  1  -0.062803  0  -0.009103  0.02748  0  3.997706  0
C  C93  1  0.49392579  0.33639412  0.05306463  1  -0.025823  0  0.005077  0.046107  0  3.978701  0
C  C94  1  0.55714937  0.87793075  0.64846432  1  -0.062636  0  -0.086871  -0.119526  0  3.980333  0
C  C95  1  0.54750364  0.89194666  0.73890046  1  -0.097239  0  -0.092568  -0.085324  0  4.03643  0
C  C96  1  0.47178070  0.83942435  0.77271351  1  -0.031011  0  -0.085736  -0.080739  0  4.022617  0
C  C97  1  0.40636973  0.77273842  0.71568417  1  -0.065678  0  -0.086545  -0.072177  0  4.005579  0
C  C98  1  0.41610627  0.75809634  0.62512849  1  0.02621  0  -0.085345  -0.112528  0  3.952355  0
C  C99  1  0.58700280  0.22137777  0.47440097  1  -0.025317  0  -0.009228  0.031444  0  3.990468  0
C  C100  1  0.65865578  0.20093413  0.52509357  1  -0.029561  0  -0.087836  -0.118077  0  3.974283  0
C  C101  1  0.75444511  0.21403670  0.50156171  1  -0.051407  0  -0.090622  -0.082853  0  4.03386  0
C  C102  1  0.77956043  0.24648469  0.42643428  1  -0.050772  0  -0.088461  -0.082843  0  4.020115  0
C  C103  1  0.70849417  0.26644182  0.37561288  1  -0.03424  0  -0.087459  -0.072161  0  4.007791  0
C  C104  1  0.55687557  0.46627931  0.94787827  1  -0.002997  0  0.002805  0.038498  0  3.97694  0
C  C105  1  0.61273792  0.25436452  0.39948848  1  -0.013712  0  -0.087207  -0.112722  0  3.958979  0
C  C106  1  0.57407045  0.49202590  0.03991898  1  0.025715  0  0.002875  0.040005  0  3.98346  0
C  C107  1  0.62919098  0.57953621  0.07759500  1  -0.073059  0  -0.069284  -0.147236  0  3.934998  0
N  N108  1  0.44340538  0.27648878  0.53585113  1  -1.229097  0  -0.316978  -0.25593  0  3.481348  0
N  N109  1  0.53923730  0.72517908  0.45204610  1  -1.226044  0  -0.313857  -0.25236  0  3.473034  0
N  N110  1  0.77006398  0.79576401  0.10280394  1  -1.119674  0  -0.312562  -0.360308  0  2.697932  0
N  N111  1  0.42590605  0.13980949  0.88142459  1  -1.132887  0  -0.312215  -0.36832  0  2.706459  0
O  O112  1  0.55621082  0.62150335  0.62191464  1  -1.153856  0  -0.305372  -0.535493  0  2.353125  0
O  O113  1  0.47029114  0.37492793  0.37889763  1  -1.155541  0  -0.30875  -0.541551  0  2.369366  0
O  O114  1  0.48168878  0.48189215  0.63909616  1  -1.183292  0  -0.323828  -0.561926  0  2.356451  0
O  O115  1  0.50683223  0.52095502  0.36104500  1  -1.158238  0  -0.311316  -0.552594  0  2.358658  0
O  O116  1  0.38063398  0.57650259  0.49698250  1  -1.163161  0  -0.308936  -0.554378  0  2.335293  0
O  O117  1  0.62532445  0.44266798  0.51978312  1  -1.15907  0  -0.308437  -0.549528  0  2.322514  0
O  O118  1  0.33518063  0.42747032  0.50624277  1  -1.134007  0  -0.310054  -0.54059  0  2.267017  0
O  O119  1  0.66775091  0.57705835  0.47553099  1  -1.137678  0  -0.316206  -0.538503  0  2.243519  0
