# generated using pymatgen
data_Zn8H37C66NO28
_symmetry_space_group_name_H-M   'P 1'
_cell_length_a   18.47987085
_cell_length_b   18.48671309
_cell_length_c   18.47571645
_cell_angle_alpha   60.03713988
_cell_angle_beta   60.12994374
_cell_angle_gamma   90.10450642
_symmetry_Int_Tables_number   1
_chemical_formula_structural   Zn8H37C66NO28
_chemical_formula_sum   'Zn8 H37 C66 N1 O28'
_cell_volume   4470.37407587
_cell_formula_units_Z   1
loop_
 _symmetry_equiv_pos_site_id
 _symmetry_equiv_pos_as_xyz
  1  'x, y, z'
loop_
 _atom_site_type_symbol
 _atom_site_label
 _atom_site_symmetry_multiplicity
 _atom_site_fract_x
 _atom_site_fract_y
 _atom_site_fract_z
 _atom_site_occupancy
 _atom_site_pbe_bader_charge
 _atom_site_pbe_bader_spin_density
 _atom_site_pbe_cm5_charge
 _atom_site_pbe_ddec_charge
 _atom_site_pbe_ddec_spin_density
 _atom_site_pbe_ddec_sum_bond_order
 _atom_site_pbe_magmom
Zn  Zn0  1  0.54359311  0.95552784  0.91426615  1  1.298491  0  0.669666  0.956938  0  2.380908  0
Zn  Zn1  1  0.54472814  0.13000788  0.91255487  1  1.296987  0  0.671362  0.958397  0  2.379564  0
Zn  Zn2  1  0.54301586  0.95528944  0.08758157  1  1.30554  0  0.669576  0.956968  0  2.396064  0
Zn  Zn3  1  0.37049571  0.95713785  0.08695372  1  1.295303  0  0.669023  0.953305  0  2.38293  0
Zn  Zn4  1  0.95718608  0.54214464  0.08824821  1  1.303893  0  0.669898  0.957106  0  2.382056  0
Zn  Zn5  1  0.95795726  0.54387333  0.91334873  1  1.311021  0  0.667437  0.949769  0  2.38782  0
Zn  Zn6  1  0.95944886  0.37016003  0.08649059  1  1.297307  0  0.669331  0.955481  0  2.390721  0
Zn  Zn7  1  0.13128883  0.54391993  0.91339209  1  1.313796  0  0.670979  0.959461  0  2.383141  0
H  H8  1  0.40123503  0.57034479  0.12470362  1  0.054483  0  0.102924  0.099215  0  0.990342  0
H  H9  1  0.28870046  0.96818920  0.93485889  1  0.064181  0  0.100987  0.105173  0  1.012629  0
H  H10  1  0.19582628  0.02576352  0.87480609  1  0.054381  0  0.102036  0.097894  0  0.99245  0
H  H11  1  0.09987551  0.92988067  0.87500390  1  0.049603  0  0.10231  0.098212  0  0.992498  0
H  H12  1  0.09771261  0.77709297  0.93496439  1  0.06296  0  0.101183  0.106647  0  1.009726  0
H  H13  1  0.21136391  0.53216305  0.06622383  1  0.077846  0  0.101109  0.104989  0  1.012214  0
H  H14  1  0.30568454  0.47492435  0.12411329  1  0.071162  0  0.105086  0.102474  0  0.987748  0
H  H15  1  0.40232451  0.72259424  0.06679727  1  0.061504  0  0.100811  0.105077  0  1.014248  0
H  H16  1  0.70951848  0.80301178  0.11047385  1  0.081799  0  0.106709  0.11406  0  0.994461  0
H  H17  1  0.80548039  0.70890241  0.10943589  1  0.105027  0  0.106978  0.114354  0  0.99432  0
H  H18  1  0.83701693  0.74000850  0.79005144  1  0.055723  0  0.09704  0.105919  0  0.985348  0
H  H19  1  0.74112386  0.64357973  0.89190901  1  0.067436  0  0.098122  0.108495  0  0.982649  0
H  H20  1  0.74004927  0.83607132  0.79084217  1  0.074765  0  0.099445  0.111145  0  0.978191  0
H  H21  1  0.64417890  0.73956024  0.89228919  1  0.044046  0  0.100015  0.112479  0  0.979101  0
H  H22  1  0.41332661  0.79603212  0.40583514  1  0.13024  0  0.107407  0.114563  0  0.993743  0
H  H23  1  0.31822135  0.70120671  0.59583869  1  0.078683  0  0.108521  0.116218  0  0.991729  0
H  H24  1  0.03209579  0.65499214  0.59596411  1  0.042379  0  0.095869  0.104  0  0.986897  0
H  H25  1  0.03291048  0.75129134  0.59617062  1  0.040758  0  0.097102  0.106479  0  0.984451  0
H  H26  1  0.12869340  0.75164099  0.40302372  1  0.044256  0  0.100198  0.111787  0  0.977129  0
H  H27  1  0.12965326  0.84794117  0.40320285  1  0.045936  0  0.098154  0.107762  0  0.982841  0
H  H28  1  0.41574958  0.31905830  0.89078436  1  0.101915  0  0.107669  0.117625  0  0.999431  0
H  H29  1  0.32093489  0.41419616  0.89077519  1  0.139657  0  0.108686  0.116643  0  0.990398  0
H  H30  1  0.03257454  0.12739868  0.21036241  1  0.046642  0  0.097966  0.107813  0  0.980917  0
H  H31  1  0.03711987  0.13265694  0.10915258  1  0.057768  0  0.097578  0.107078  0  0.981948  0
H  H32  1  0.12908337  0.03096928  0.20979602  1  0.028303  0  0.097137  0.106517  0  0.983936  0
H  H33  1  0.13340890  0.03591324  0.10887041  1  0.035455  0  0.098367  0.108961  0  0.981705  0
H  H34  1  0.70297520  0.08624627  0.11741361  1  0.134515  0  0.111749  0.118838  0  0.987885  0
H  H35  1  0.79933004  0.18252069  0.11549918  1  0.09512  0  0.111614  0.117233  0  0.988299  0
H  H36  1  0.74559077  0.46463459  0.88211265  1  0.091234  0  0.109981  0.130793  0  0.972923  0
H  H37  1  0.84405907  0.46857506  0.78301074  1  0.062399  0  0.106584  0.125535  0  0.969782  0
H  H38  1  0.74825579  0.36950874  0.78365734  1  0.106805  0  0.127084  0.106638  0  0.95413  0
H  H39  1  0.70091320  0.08511585  0.59554249  1  0.088866  0  0.106769  0.113706  0  0.994426  0
H  H40  1  0.79577560  0.18014537  0.40550507  1  0.072101  0  0.105983  0.112568  0  0.996454  0
H  H41  1  0.84845645  0.46596350  0.40387808  1  0.062306  0  0.099704  0.111342  0  0.977937  0
H  H42  1  0.75191222  0.46673756  0.40413244  1  0.044311  0  0.099717  0.111122  0  0.978304  0
H  H43  1  0.75219793  0.36957001  0.59697478  1  0.036609  0  0.096565  0.105604  0  0.985023  0
H  H44  1  0.65589607  0.37030823  0.59712310  1  0.054543  0  0.101392  0.114283  0  0.9745  0
C  C45  1  0.36386058  0.13912558  0.99850565  1  1.547137  0  0.228678  0.610518  0  4.17627  0
C  C46  1  0.63800350  0.86027698  0.00213164  1  1.519799  0  0.226136  0.606355  0  4.179995  0
C  C47  1  0.63953950  0.13659194  0.72392705  1  1.580308  0  0.227257  0.607799  0  4.17908  0
C  C48  1  0.36234047  0.86140851  0.27693584  1  1.577064  0  0.227348  0.608458  0  4.176973  0
C  C49  1  0.63804230  0.13684703  0.00186423  1  1.581245  0  0.228422  0.60632  0  4.182325  0
C  C50  1  0.36129404  0.86121082  0.00119329  1  1.57466  0  0.231847  0.621724  0  4.167256  0
C  C51  1  0.24755755  0.92597741  0.93479109  1  -0.014196  0  -0.093027  -0.130158  0  3.984719  0
C  C52  1  0.19537595  0.95803836  0.90163960  1  -0.027413  0  -0.094337  -0.086822  0  4.053164  0
C  C53  1  0.14096195  0.90363852  0.90164618  1  -0.096028  0  -0.094883  -0.085743  0  4.053173  0
C  C54  1  0.14003570  0.81841814  0.93475200  1  0.008628  0  -0.092614  -0.130376  0  3.984875  0
C  C55  1  0.19351473  0.78241309  0.96960453  1  -0.052488  0  -0.00055  0.061161  0  3.978807  0
C  C56  1  0.24884290  0.83771749  0.96968598  1  0.025304  0  -0.000776  0.06172  0  3.975067  0
C  C57  1  0.19575153  0.69603104  0.00123377  1  0.013805  0  -0.00559  -0.112868  0  3.90007  0
C  C58  1  0.25066223  0.66216024  0.03269980  1  -0.028867  0  -0.00069  0.060309  0  3.977166  0
C  C59  1  0.30605339  0.71743793  0.03273315  1  0.05543  0  -0.000676  0.062898  0  3.97547  0
C  C60  1  0.30368160  0.80380833  0.00133518  1  -0.058271  0  -0.006605  -0.116503  0  3.898589  0
C  C61  1  0.25237438  0.57414539  0.06666309  1  -0.021951  0  -0.091431  -0.12848  0  3.984008  0
C  C62  1  0.30522837  0.54221734  0.09874560  1  -0.107932  0  -0.093217  -0.083949  0  4.044538  0
C  C63  1  0.35958872  0.59648773  0.09892017  1  0.0002  0  -0.093417  -0.08543  0  4.049726  0
C  C64  1  0.35995527  0.68143003  0.06691021  1  -0.026664  0  -0.09369  -0.132962  0  3.988836  0
C  C65  1  0.72010462  0.77242484  0.94059432  1  -0.030656  0  -0.002156  0.065146  0  3.881181  0
C  C66  1  0.69529332  0.80394228  0.00116099  1  -0.001634  0  -0.014282  -0.080008  0  3.980723  0
C  C67  1  0.72765103  0.77950083  0.06218081  1  -0.026124  0  -0.08363  -0.099741  0  3.983083  0
C  C68  1  0.78141633  0.72675632  0.06161949  1  -0.059434  0  -0.083913  -0.100016  0  3.982221  0
C  C69  1  0.80621275  0.69506917  0.00001653  1  0.021466  0  -0.01391  -0.08056  0  3.982285  0
C  C70  1  0.77399125  0.71949296  0.94006752  1  0.029403  0  -0.002917  0.063796  0  3.88089  0
C  C71  1  0.77244809  0.71115632  0.86324132  1  -0.029141  0  -0.151211  -0.199398  0  3.887925  0
C  C72  1  0.71160551  0.77121176  0.86370376  1  -0.05002  0  -0.150154  -0.202079  0  3.882357  0
C  C73  1  0.21281621  0.77708678  0.44668386  1  -0.064213  0  -0.002166  0.065003  0  3.881682  0
C  C74  1  0.30492671  0.80462568  0.39049706  1  -0.036198  0  -0.013023  -0.079805  0  3.980257  0
C  C75  1  0.34150075  0.77565017  0.44739547  1  -0.114627  0  -0.082648  -0.0981  0  3.980869  0
C  C76  1  0.28821184  0.72247840  0.55386844  1  0.083935  0  -0.081721  -0.096994  0  3.977765  0
C  C77  1  0.19490576  0.69482162  0.61019552  1  -0.067643  0  -0.014264  -0.080324  0  3.981846  0
C  C78  1  0.15936511  0.72368386  0.55345028  1  0.016843  0  -0.003088  0.063303  0  3.88206  0
C  C79  1  0.07413853  0.72097481  0.56012380  1  -0.030119  0  -0.151776  -0.199543  0  3.891156  0
C  C80  1  0.13468261  0.78146244  0.43925313  1  0.04187  0  -0.150777  -0.199842  0  3.883927  0
C  C81  1  0.21498592  0.16032316  0.05974638  1  0.015879  0  -0.003719  0.06233  0  3.886392  0
C  C82  1  0.30703908  0.19585096  0.99923514  1  -0.042814  0  -0.013894  -0.080639  0  3.980496  0
C  C83  1  0.34396969  0.28909529  0.93821922  1  0.022185  0  -0.0801  -0.093275  0  3.96088  0
C  C84  1  0.29074016  0.34242792  0.93852339  1  -0.105158  0  -0.081735  -0.096381  0  3.971463  0
C  C85  1  0.19747489  0.30588320  0.99987476  1  0.018782  0  -0.014766  -0.083664  0  3.986717  0
C  C86  1  0.16169544  0.21378193  0.06006960  1  -0.002065  0  -0.004013  0.062021  0  3.883663  0
C  C87  1  0.07644353  0.13561045  0.13732237  1  -0.049173  0  -0.151785  -0.198612  0  3.88771  0
C  C88  1  0.13682124  0.07510714  0.13699023  1  0.021385  0  -0.150762  -0.198951  0  3.886028  0
C  C89  1  0.72349780  0.28608634  0.93797739  1  -0.039774  0  -0.005732  0.006337  0  3.913473  0
C  C90  1  0.69507202  0.19399680  0.00165295  1  0.015151  0  -0.005047  -0.051162  0  3.962904  0
C  C91  1  0.72395030  0.15808046  0.06598559  1  -0.068951  0  -0.074282  -0.091642  0  3.953224  0
C  C92  1  0.77805366  0.21212770  0.06477220  1  0.016553  0  -0.072489  -0.081273  0  3.949527  0
C  C93  1  0.80660035  0.30531621  0.99948348  1  0.0213  0  -0.007866  -0.072907  0  3.957584  0
C  C94  1  0.77703698  0.34029169  0.93673210  1  -0.01087  0  0.00456  0.082472  0  3.887659  0
C  C95  1  0.77904340  0.42521385  0.85586105  1  -0.001909  0  -0.138328  -0.234877  0  3.835287  0
C  C96  1  0.72035228  0.36326561  0.85525882  1  0.210214  0  0.018155  -0.0276  0  3.733769  0
C  C97  1  0.72439675  0.28596772  0.55388676  1  -0.097958  0  -0.002662  0.063977  0  3.878852  0
C  C98  1  0.69558421  0.19377830  0.61033312  1  0.043356  0  -0.013992  -0.080517  0  3.982364  0
C  C99  1  0.72268837  0.15700666  0.55373519  1  -0.023014  0  -0.083856  -0.098581  0  3.983901  0
C  C100  1  0.77577214  0.21026021  0.44726661  1  -0.038912  0  -0.084563  -0.100966  0  3.986093  0
C  C101  1  0.80495468  0.30364916  0.39062715  1  0.003895  0  -0.013394  -0.079873  0  3.979834  0
C  C102  1  0.77751599  0.33937683  0.44707950  1  0.064382  0  -0.001599  0.066023  0  3.878571  0
C  C103  1  0.78198298  0.42472474  0.44005924  1  -0.051668  0  -0.150745  -0.202185  0  3.884594  0
C  C104  1  0.72179102  0.36429664  0.56090960  1  0.02513  0  -0.150256  -0.198569  0  3.882174  0
C  C105  1  0.13859669  0.63806402  0.72376165  1  1.532166  0  0.226677  0.607114  0  4.178267  0
C  C106  1  0.86208640  0.36005906  0.27703813  1  1.532349  0  0.226598  0.608146  0  4.176832  0
C  C107  1  0.86328898  0.63850397  0.00016273  1  1.522706  0  0.226499  0.607563  0  4.179975  0
C  C108  1  0.14101598  0.36298307  0.99988130  1  1.524187  0  0.226359  0.606407  0  4.182812  0
C  C109  1  0.86393503  0.36214499  0.99931073  1  1.541463  0  0.228117  0.608254  0  4.18418  0
C  C110  1  0.13848615  0.63861856  0.00105565  1  1.555714  0  0.23304  0.621252  0  4.170754  0
N  N111  1  0.62930093  0.37182663  0.88809787  1  0.468291  0  0.055845  0.535909  0  4.171653  0
O  O112  1  0.50066174  0.99980958  0.00009243  1  -1.175398  0  -0.572448  -1.028463  0  2.541002  0
O  O113  1  0.32345390  0.05540495  0.05913461  1  -1.166228  0  -0.313408  -0.543675  0  2.33252  0
O  O114  1  0.61304364  0.87925853  0.94332225  1  -1.170742  0  -0.310895  -0.540161  0  2.331415  0
O  O115  1  0.61870296  0.17681951  0.76737496  1  -1.181356  0  -0.311383  -0.539913  0  2.335672  0
O  O116  1  0.44594725  0.88204984  0.23310560  1  -1.164098  0  -0.315418  -0.54581  0  2.340087  0
O  O117  1  0.61751049  0.17763325  0.93886421  1  -1.166389  0  -0.308866  -0.537732  0  2.332397  0
O  O118  1  0.32196170  0.88207023  0.06381743  1  -1.14895  0  -0.310244  -0.543293  0  2.326602  0
O  O119  1  0.61536946  0.05341584  0.06375335  1  -1.17456  0  -0.30992  -0.537292  0  2.336313  0
O  O120  1  0.44463995  0.88412376  0.93844350  1  -1.165952  0  -0.309844  -0.542094  0  2.327669  0
O  O121  1  0.61720330  0.05284368  0.76846210  1  -1.184905  0  -0.31493  -0.545057  0  2.338824  0
O  O122  1  0.32268770  0.88475841  0.23277777  1  -1.176695  0  -0.310808  -0.538571  0  2.331852  0
O  O123  1  0.44749162  0.17807311  0.93786498  1  -1.183026  0  -0.31255  -0.541314  0  2.349931  0
O  O124  1  0.61850726  0.88489727  0.06114423  1  -1.164665  0  -0.314982  -0.544901  0  2.339661  0
O  O125  1  0.00116667  0.50010149  0.00019203  1  -1.203738  0  -0.5723  -1.027427  0  2.542002  0
O  O126  1  0.17795873  0.61502020  0.76812357  1  -1.169852  0  -0.313352  -0.541838  0  2.339305  0
O  O127  1  0.88293557  0.44375093  0.23344358  1  -1.182416  0  -0.310484  -0.538843  0  2.334211  0
O  O128  1  0.88292390  0.61461470  0.94036836  1  -1.150262  0  -0.312288  -0.541161  0  2.332597  0
O  O129  1  0.05738214  0.32277306  0.05922578  1  -1.16217  0  -0.312139  -0.541039  0  2.336429  0
O  O130  1  0.88557837  0.44567382  0.93706890  1  -1.155292  0  -0.310696  -0.536566  0  2.3203  0
O  O131  1  0.17822781  0.61996703  0.93641593  1  -1.16802  0  -0.309299  -0.540664  0  2.326618  0
O  O132  1  0.88611129  0.32282904  0.06071208  1  -1.171161  0  -0.311583  -0.542129  0  2.339736  0
O  O133  1  0.05513789  0.61343273  0.06560863  1  -1.158312  0  -0.310814  -0.543528  0  2.32456  0
O  O134  1  0.88783761  0.61855683  0.05937341  1  -1.17772  0  -0.314965  -0.545895  0  2.339788  0
O  O135  1  0.17991585  0.44671452  0.94139065  1  -1.176556  0  -0.314758  -0.544648  0  2.338354  0
O  O136  1  0.05487446  0.61710677  0.76737465  1  -1.143182  0  -0.313158  -0.542924  0  2.331879  0
O  O137  1  0.88569419  0.32081793  0.23252557  1  -1.176816  0  -0.315566  -0.546626  0  2.338856  0
O  O138  1  0.60871301  0.39079930  0.82808984  1  -0.460986  0  -0.140399  -0.342441  0  1.86544  0
O  O139  1  0.58268419  0.36058738  0.97180803  1  -0.46491  0  -0.143135  -0.343598  0  1.863489  0
