# generated using pymatgen
data_CdH20C18N4O5
_symmetry_space_group_name_H-M   'P 1'
_cell_length_a   9.34410519
_cell_length_b   11.43688488
_cell_length_c   11.43689939
_cell_angle_alpha   85.53068304
_cell_angle_beta   68.59682727
_cell_angle_gamma   68.59694903
_symmetry_Int_Tables_number   1
_chemical_formula_structural   CdH20C18N4O5
_chemical_formula_sum   'Cd2 H40 C36 N8 O10'
_cell_volume   1057.31124407
_cell_formula_units_Z   2
loop_
 _symmetry_equiv_pos_site_id
 _symmetry_equiv_pos_as_xyz
  1  'x, y, z'
loop_
 _atom_site_type_symbol
 _atom_site_label
 _atom_site_symmetry_multiplicity
 _atom_site_fract_x
 _atom_site_fract_y
 _atom_site_fract_z
 _atom_site_occupancy
 _atom_site_hle17_bader_spin_density
 _atom_site_hle17_ddec_charge
 _atom_site_hle17_ddec_spin_density
 _atom_site_hle17_ddec_sum_bond_order
 _atom_site_hle17_magmom
 _atom_site_hse06_10hf_bader_spin_density
 _atom_site_hse06_10hf_ddec_charge
 _atom_site_hse06_10hf_ddec_spin_density
 _atom_site_hse06_10hf_ddec_sum_bond_order
 _atom_site_hse06_10hf_magmom
 _atom_site_hse06_bader_spin_density
 _atom_site_hse06_ddec_charge
 _atom_site_hse06_ddec_spin_density
 _atom_site_hse06_ddec_sum_bond_order
 _atom_site_hse06_magmom
 _atom_site_pbe_bader_spin_density
 _atom_site_pbe_cm5_charge
 _atom_site_pbe_ddec_charge
 _atom_site_pbe_ddec_spin_density
 _atom_site_pbe_ddec_sum_bond_order
 _atom_site_pbe_magmom
Cd  Cd0  1  0.76120207  0.66582482  0.41989178  1  0  1.112751  0  1.675399  0  0  0.914463  0  2.125681  0  0  0.973543  0  2.072935  0  0  0.755999  0.871721  0  2.162689  0
Cd  Cd1  1  0.26120200  0.41989009  0.66582499  1  0  1.112732  0  1.675439  0  0  0.914441  0  2.125728  0  0  0.97352  0  2.072981  0  0  0.755997  0.8717  0  2.162738  0
H  H2  1  0.40753297  0.68404894  0.62552948  1  0  0.099233  0  0.947943  0  0  0.106996  0  1.010989  0  0  0.109752  0  1.008469  0  0  0.119863  0.104864  0  1.013104  0
H  H3  1  0.90753572  0.62552980  0.68404961  1  0  0.099252  0  0.947972  0  0  0.10703  0  1.010989  0  0  0.109786  0  1.008468  0  0  0.119871  0.104898  0  1.013105  0
H  H4  1  0.19033394  0.80963020  0.82091652  1  0  0.109628  0  0.965883  0  0  0.116945  0  1.029973  0  0  0.119753  0  1.030236  0  0  0.10787  0.114816  0  1.029901  0
H  H5  1  0.69033655  0.82091782  0.80962942  1  0  0.109593  0  0.965916  0  0  0.116906  0  1.030019  0  0  0.119713  0  1.030282  0  0  0.107857  0.114778  0  1.029947  0
H  H6  1  0.44651695  0.07000414  0.75037357  1  0  0.120172  0  0.948768  0  0  0.127949  0  1.01482  0  0  0.131319  0  1.013244  0  0  0.113068  0.125261  0  1.016974  0
H  H7  1  0.94652014  0.75037328  0.07000226  1  0  0.120181  0  0.948747  0  0  0.127955  0  1.014804  0  0  0.131325  0  1.013229  0  0  0.113077  0.125267  0  1.016959  0
H  H8  1  0.65891895  0.93002415  0.56046064  1  0  0.079958  0  0.947625  0  0  0.087486  0  1.013361  0  0  0.089505  0  1.012564  0  0  0.115897  0.086128  0  1.013762  0
H  H9  1  0.15891776  0.56046100  0.93002460  1  0  0.079977  0  0.947634  0  0  0.087508  0  1.01336  0  0  0.089527  0  1.012564  0  0  0.115904  0.08615  0  1.013762  0
H  H10  1  0.46432055  0.78970298  0.14121405  1  0  0.103077  0  0.932628  0  0  0.118956  0  0.989376  0  0  0.120877  0  0.989369  0  0  0.09691  0.117569  0  0.989328  0
H  H11  1  0.96432186  0.14121228  0.78970185  1  0  0.103038  0  0.932592  0  0  0.118937  0  0.989349  0  0  0.120859  0  0.989342  0  0  0.096907  0.11755  0  0.989301  0
H  H12  1  0.56786611  0.62703794  0.10376037  1  0  0.102076  0  0.914474  0  0  0.120622  0  0.966673  0  0  0.122651  0  0.966415  0  0  0.102064  0.11874  0  0.967309  0
H  H13  1  0.06786737  0.10376143  0.62703259  1  0  0.102062  0  0.914455  0  0  0.120631  0  0.966654  0  0  0.122671  0  0.966382  0  0  0.10206  0.118748  0  0.967291  0
H  H14  1  0.32692229  0.59020897  0.27591818  1  0  0.040085  0  0.925731  0  0  0.056618  0  0.982144  0  0  0.057266  0  0.982574  0  0  0.094277  0.056044  0  0.981884  0
H  H15  1  0.82692429  0.27591696  0.59020549  1  0  0.040094  0  0.92579  0  0  0.056611  0  0.982238  0  0  0.057257  0  0.982673  0  0  0.094268  0.056038  0  0.981974  0
H  H16  1  0.15214173  0.87460747  0.26826722  1  0  0.103236  0  0.924272  0  0  0.118314  0  0.980202  0  0  0.120655  0  0.979514  0  0  0.095645  0.116871  0  0.980387  0
H  H17  1  0.65214620  0.26826431  0.87460499  1  0  0.103203  0  0.924348  0  0  0.118278  0  0.980284  0  0  0.120622  0  0.979597  0  0  0.095632  0.116836  0  0.98047  0
H  H18  1  0.21508642  0.80024361  0.39384831  1  0  0.10315  0  0.929394  0  0  0.119531  0  0.984059  0  0  0.122036  0  0.982767  0  0  0.098986  0.117972  0  0.984751  0
H  H19  1  0.71508551  0.39384734  0.80024246  1  0  0.103159  0  0.929447  0  0  0.119556  0  0.984093  0  0  0.122067  0  0.982798  0  0  0.098977  0.117997  0  0.984785  0
H  H20  1  0.17275073  0.12707319  0.91810444  1  0  0.083156  0  0.95202  0  0  0.088118  0  1.026754  0  0  0.092236  0  1.021368  0  0  0.117395  0.085215  0  1.030594  0
H  H21  1  0.67275331  0.91810292  0.12707253  1  0  0.08316  0  0.952014  0  0  0.08812  0  1.026738  0  0  0.092236  0  1.021355  0  0  0.117406  0.085218  0  1.030575  0
H  H22  1  0.86379490  0.94826725  0.17321267  1  0  0.08632  0  0.949937  0  0  0.092302  0  1.022897  0  0  0.096237  0  1.017699  0  0  0.11877  0.089401  0  1.026759  0
H  H23  1  0.36379367  0.17321223  0.94826698  1  0  0.086312  0  0.949954  0  0  0.092293  0  1.022913  0  0  0.096231  0  1.017716  0  0  0.118771  0.089396  0  1.026778  0
H  H24  1  0.59243689  0.41208855  0.44132393  1  0  0.095522  0  0.958807  0  0  0.102931  0  1.023353  0  0  0.105857  0  1.020474  0  0  0.118676  0.100784  0  1.025504  0
H  H25  1  0.09243457  0.44132498  0.41208817  1  0  0.095523  0  0.958802  0  0  0.102935  0  1.023345  0  0  0.105862  0  1.020465  0  0  0.118692  0.100788  0  1.025494  0
H  H26  1  0.82477910  0.27838733  0.25661770  1  0  0.109757  0  0.964329  0  0  0.115121  0  1.03093  0  0  0.118241  0  1.030627  0  0  0.106598  0.112917  0  1.031007  0
H  H27  1  0.32477930  0.25661626  0.27838661  1  0  0.109762  0  0.964366  0  0  0.115127  0  1.030961  0  0  0.118248  0  1.030656  0  0  0.106598  0.112924  0  1.031037  0
H  H28  1  0.59464581  0.00029661  0.34351475  1  0  0.123338  0  0.934112  0  0  0.133375  0  0.993543  0  0  0.136726  0  0.992266  0  0  0.11508  0.130748  0  0.995333  0
H  H29  1  0.09464368  0.34351412  0.00029856  1  0  0.123334  0  0.934124  0  0  0.13337  0  0.993563  0  0  0.136721  0  0.992285  0  0  0.115092  0.130744  0  0.995349  0
H  H30  1  0.36974674  0.14680110  0.52414529  1  0  0.07718  0  0.951676  0  0  0.086879  0  1.012566  0  0  0.088509  0  1.012204  0  0  0.114983  0.085681  0  1.012961  0
H  H31  1  0.86974681  0.52414512  0.14680318  1  0  0.077172  0  0.951686  0  0  0.086866  0  1.012581  0  0  0.088494  0  1.012219  0  0  0.11498  0.085666  0  1.012976  0
H  H32  1  0.24786393  0.74703885  0.06087483  1  0  0.098307  0  0.959437  0  0  0.114623  0  1.030439  0  0  0.116461  0  1.030243  0  0  0.081853  0.113499  0  1.030254  0
H  H33  1  0.74786324  0.06087316  0.74703671  1  0  0.098275  0  0.959492  0  0  0.114597  0  1.030477  0  0  0.116434  0  1.030284  0  0  0.081835  0.113473  0  1.030291  0
H  H34  1  0.15668039  0.63858493  0.14305919  1  0  0.093355  0  0.975999  0  0  0.112656  0  1.042127  0  0  0.113244  0  1.044317  0  0  0.081996  0.112228  0  1.040897  0
H  H35  1  0.65668009  0.14305729  0.63858481  1  0  0.093354  0  0.976009  0  0  0.11265  0  1.04214  0  0  0.11324  0  1.04433  0  0  0.081985  0.112223  0  1.040907  0
H  H36  1  0.36934137  0.58331303  0.04672488  1  0  0.09574  0  0.942129  0  0  0.118233  0  0.999342  0  0  0.119762  0  0.999282  0  0  0.084313  0.117207  0  0.999271  0
H  H37  1  0.86934502  0.04672369  0.58330957  1  0  0.095748  0  0.942044  0  0  0.118232  0  0.999273  0  0  0.119762  0  0.999212  0  0  0.084303  0.117204  0  0.999202  0
H  H38  1  0.85999549  0.46704972  0.59010001  1  0  0.42221  0  0.887383  0  0  0.389107  0  0.956209  0  0  0.40049  0  0.93955  0  0  0.282263  0.381071  0  0.967949  0
H  H39  1  0.35999573  0.59010081  0.46705015  1  0  0.422228  0  0.88736  0  0  0.389124  0  0.956184  0  0  0.400509  0  0.939522  0  0  0.282269  0.381088  0  0.967925  0
H  H40  1  0.66631301  0.50187901  0.61834635  1  0  0.415437  0  0.900828  0  0  0.380878  0  0.971259  0  0  0.392979  0  0.953803  0  0  0.276189  0.372261  0  0.983637  0
H  H41  1  0.16631320  0.61834650  0.50187955  1  0  0.415459  0  0.900799  0  0  0.380897  0  0.971234  0  0  0.392997  0  0.953777  0  0  0.276194  0.372281  0  0.983611  0
C  C42  1  0.41323930  0.76918573  0.65696307  1  0  0.136594  0  3.682415  0  0  0.107642  0  3.927552  0  0  0.114596  0  3.945608  0  0  0.049058  0.102815  0  3.914337  0
C  C43  1  0.91324237  0.65696212  0.76918611  1  0  0.136475  0  3.682529  0  0  0.107527  0  3.927647  0  0  0.11448  0  3.945706  0  0  0.049018  0.102699  0  3.914431  0
C  C44  1  0.29263606  0.83898370  0.76571662  1  0  -0.140916  0  3.675091  0  0  -0.157108  0  3.912475  0  0  -0.16389  0  3.933312  0  0  -0.073546  -0.150771  0  3.896898  0
C  C45  1  0.79263744  0.76571548  0.83898437  1  0  -0.140821  0  3.675122  0  0  -0.157012  0  3.912492  0  0  -0.163794  0  3.93333  0  0  -0.073525  -0.150677  0  3.896913  0
C  C46  1  0.30229560  0.94947762  0.80212597  1  0  0.096777  0  3.782689  0  0  0.110439  0  4.016478  0  0  0.113037  0  4.038712  0  0  0.012346  0.108701  0  4.001844  0
C  C47  1  0.80229684  0.80212666  0.94947692  1  0  0.096771  0  3.782784  0  0  0.110437  0  4.016559  0  0  0.113032  0  4.038792  0  0  0.012352  0.108699  0  4.001926  0
C  C48  1  0.43518876  0.98427119  0.72664736  1  0  -0.143664  0  3.692258  0  0  -0.166908  0  3.9482  0  0  -0.173594  0  3.968444  0  0  -0.073734  -0.164832  0  3.937224  0
C  C49  1  0.93518664  0.72664799  0.98427061  1  0  -0.143699  0  3.692292  0  0  -0.166941  0  3.948232  0  0  -0.173626  0  3.968475  0  0  -0.073761  -0.164865  0  3.937257  0
C  C50  1  0.55249534  0.90748899  0.62082150  1  0  0.112531  0  3.731406  0  0  0.084575  0  3.982079  0  0  0.090792  0  4.001898  0  0  0.044619  0.080706  0  3.968823  0
C  C51  1  0.05249617  0.62082232  0.90748920  1  0  0.112539  0  3.731333  0  0  0.084577  0  3.982012  0  0  0.090796  0  4.001833  0  0  0.044646  0.080708  0  3.968759  0
C  C52  1  0.55798536  0.68471246  0.27787129  1  0  0.68425  0  3.873684  0  0  0.636403  0  4.175808  0  0  0.670017  0  4.170068  0  0  0.195751  0.61348  0  4.178597  0
C  C53  1  0.05798598  0.27787030  0.68471025  1  0  0.68418  0  3.873738  0  0  0.636355  0  4.175859  0  0  0.669968  0  4.170123  0  0  0.195746  0.613432  0  4.178648  0
C  C54  1  0.47684331  0.69750347  0.18130561  1  0  -0.293139  0  3.661358  0  0  -0.330324  0  3.905803  0  0  -0.336897  0  3.914803  0  0  -0.163677  -0.32524  0  3.898902  0
C  C55  1  0.97684537  0.18130371  0.69750014  1  0  -0.293027  0  3.661169  0  0  -0.330276  0  3.905734  0  0  -0.336857  0  3.914735  0  0  -0.163698  -0.325191  0  3.898835  0
C  C56  1  0.31280091  0.67731612  0.22537030  1  0  0.11544  0  3.630116  0  0  0.11866  0  3.866361  0  0  0.119585  0  3.884254  0  0  -0.088532  0.118316  0  3.853524  0
C  C57  1  0.81280257  0.22536953  0.67731303  1  0  0.115471  0  3.630194  0  0  0.118645  0  3.866587  0  0  0.119566  0  3.884494  0  0  -0.088462  0.118302  0  3.853749  0
C  C58  1  0.17501681  0.78741475  0.31799872  1  0  -0.299082  0  3.639284  0  0  -0.335933  0  3.880546  0  0  -0.342472  0  3.888194  0  0  -0.165697  -0.331398  0  3.874717  0
C  C59  1  0.67501925  0.31799664  0.78741250  1  0  -0.299127  0  3.639454  0  0  -0.335974  0  3.880768  0  0  -0.342525  0  3.888423  0  0  -0.165726  -0.331442  0  3.874941  0
C  C60  1  0.01723362  0.75987901  0.37508675  1  0  0.685145  0  3.868322  0  0  0.638829  0  4.164751  0  0  0.67245  0  4.159018  0  0  0.194823  0.615831  0  4.167806  0
C  C61  1  0.51723315  0.37508662  0.75987765  1  0  0.685188  0  3.868312  0  0  0.63885  0  4.164773  0  0  0.672474  0  4.159038  0  0  0.194818  0.615852  0  4.167827  0
C  C62  1  0.17810970  0.03030192  0.91262962  1  0  0.099756  0  3.648858  0  0  0.063667  0  3.916684  0  0  0.070458  0  3.926827  0  0  0.080813  0.058781  0  3.909939  0
C  C63  1  0.67811145  0.91262887  0.03030215  1  0  0.099713  0  3.648861  0  0  0.063624  0  3.916691  0  0  0.070422  0  3.926826  0  0  0.080783  0.058739  0  3.909945  0
C  C64  1  0.85842193  0.04498262  0.17859061  1  0  0.103652  0  3.639512  0  0  0.066923  0  3.905704  0  0  0.073881  0  3.91578  0  0  0.080464  0.061881  0  3.899266  0
C  C65  1  0.35842187  0.17858996  0.04498261  1  0  0.103621  0  3.639534  0  0  0.066915  0  3.905736  0  0  0.073867  0  3.91582  0  0  0.080468  0.061867  0  3.899304  0
C  C66  1  0.59683150  0.32069139  0.41627054  1  0  0.130646  0  3.697097  0  0  0.099826  0  3.947653  0  0  0.106583  0  3.96604  0  0  0.047217  0.095173  0  3.934258  0
C  C67  1  0.09682722  0.41626936  0.32069351  1  0  0.130666  0  3.697146  0  0  0.099838  0  3.947695  0  0  0.106594  0  3.966083  0  0  0.047157  0.095185  0  3.934299  0
C  C68  1  0.72562665  0.24642409  0.31363330  1  0  -0.138511  0  3.673251  0  0  -0.153029  0  3.908623  0  0  -0.159945  0  3.929389  0  0  -0.073951  -0.146847  0  3.892945  0
C  C69  1  0.22562673  0.31363224  0.24642491  1  0  -0.138583  0  3.673259  0  0  -0.15308  0  3.908657  0  0  -0.159995  0  3.929423  0  0  -0.073944  -0.146897  0  3.892978  0
C  C70  1  0.72770541  0.12860224  0.28473643  1  0  0.101428  0  3.777666  0  0  0.116751  0  4.007586  0  0  0.119729  0  4.029494  0  0  0.013146  0.114881  0  3.992938  0
C  C71  1  0.22770515  0.28473575  0.12860308  1  0  0.101526  0  3.777555  0  0  0.11678  0  4.007579  0  0  0.119758  0  4.029486  0  0  0.013149  0.11491  0  3.992929  0
C  C72  1  0.59759631  0.09138658  0.36164222  1  0  -0.144378  0  3.684346  0  0  -0.167048  0  3.938412  0  0  -0.173973  0  3.958322  0  0  -0.072233  -0.164469  0  3.927019  0
C  C73  1  0.09759748  0.36163833  0.09138720  1  0  -0.144385  0  3.684275  0  0  -0.167048  0  3.938385  0  0  -0.173968  0  3.958289  0  0  -0.072253  -0.16447  0  3.926992  0
C  C74  1  0.47242249  0.17241891  0.46175927  1  0  0.114167  0  3.736837  0  0  0.085568  0  3.99038  0  0  0.092092  0  4.010099  0  0  0.043652  0.081293  0  3.97725  0
C  C75  1  0.97242250  0.46175702  0.17241843  1  0  0.114144  0  3.736806  0  0  0.085558  0  3.990333  0  0  0.092082  0  4.010051  0  0  0.043634  0.081282  0  3.977205  0
C  C76  1  0.26923760  0.66076955  0.11248322  1  0  -0.320844  0  3.679779  0  0  -0.397327  0  3.921435  0  0  -0.400649  0  3.932408  0  0  -0.249049  -0.394508  0  3.913099  0
C  C77  1  0.76923904  0.11248148  0.66076638  1  0  -0.320805  0  3.67973  0  0  -0.397253  0  3.921401  0  0  -0.400567  0  3.932357  0  0  -0.248999  -0.394435  0  3.913063  0
N  N78  1  0.54140357  0.80262625  0.58557547  1  0  -0.322112  0  3.239652  0  0  -0.244198  0  3.499411  0  0  -0.264045  0  3.518304  0  0  -0.3245  -0.229387  0  3.48541  0
N  N79  1  0.04140751  0.58557547  0.80262465  1  0  -0.322012  0  3.239551  0  0  -0.244106  0  3.499301  0  0  -0.263953  0  3.518201  0  0  -0.324473  -0.229295  0  3.485301  0
N  N80  1  0.07513911  0.99031410  0.99941438  1  0  -0.207648  0  3.023205  0  0  -0.177353  0  3.312878  0  0  -0.186209  0  3.329346  0  0  -0.210611  -0.171548  0  3.301985  0
N  N81  1  0.57513747  0.99941385  0.99031649  1  0  -0.207646  0  3.023154  0  0  -0.177352  0  3.312831  0  0  -0.186208  0  3.329295  0  0  -0.210597  -0.171548  0  3.301939  0
N  N82  1  0.96513379  0.08369676  0.09422929  1  0  -0.209462  0  3.012388  0  0  -0.181503  0  3.300166  0  0  -0.189968  0  3.315888  0  0  -0.214726  -0.176054  0  3.289824  0
N  N83  1  0.46513318  0.09422944  0.08369741  1  0  -0.209431  0  3.012426  0  0  -0.181468  0  3.300196  0  0  -0.189934  0  3.315921  0  0  -0.214729  -0.17602  0  3.289857  0
N  N84  1  0.47154741  0.28487785  0.48946301  1  0  -0.332159  0  3.238841  0  0  -0.255817  0  3.501619  0  0  -0.27566  0  3.521053  0  0  -0.324395  -0.241149  0  3.487615  0
N  N85  1  0.97154760  0.48946358  0.28487635  1  0  -0.332163  0  3.238967  0  0  -0.255806  0  3.501716  0  0  -0.275651  0  3.521151  0  0  -0.324342  -0.241138  0  3.487711  0
O  O86  1  0.66082079  0.73984181  0.25720731  1  0  -0.653812  0  1.97806  0  0  -0.592788  0  2.231122  0  0  -0.622617  0  2.222308  0  0  -0.335813  -0.571725  0  2.237025  0
O  O87  1  0.16082184  0.25720842  0.73984090  1  0  -0.653792  0  1.978069  0  0  -0.59276  0  2.231135  0  0  -0.622595  0  2.222323  0  0  -0.335805  -0.571697  0  2.237038  0
O  O88  1  0.75931584  0.53473557  0.58482721  1  0  -0.871464  0  1.888826  0  0  -0.812506  0  2.102339  0  0  -0.835683  0  2.066108  0  0  -0.607344  -0.796029  0  2.127668  0
O  O89  1  0.25931685  0.58482845  0.53473693  1  0  -0.871497  0  1.888794  0  0  -0.812534  0  2.102326  0  0  -0.835715  0  2.066087  0  0  -0.607348  -0.796059  0  2.127656  0
O  O90  1  0.53117005  0.61587323  0.37049982  1  0  -0.666984  0  1.980317  0  0  -0.602448  0  2.216358  0  0  -0.630308  0  2.205946  0  0  -0.326661  -0.583055  0  2.222734  0
O  O91  1  0.03116803  0.37049979  0.61587333  1  0  -0.666965  0  1.980367  0  0  -0.602437  0  2.216411  0  0  -0.630295  0  2.205997  0  0  -0.326649  -0.583044  0  2.222789  0
O  O92  1  0.89775138  0.81493237  0.33791779  1  0  -0.645208  0  1.945514  0  0  -0.583402  0  2.1886  0  0  -0.612079  0  2.179873  0  0  -0.32937  -0.562999  0  2.194495  0
O  O93  1  0.39775130  0.33791681  0.81492930  1  0  -0.645229  0  1.945539  0  0  -0.583402  0  2.188624  0  0  -0.612077  0  2.179895  0  0  -0.329363  -0.562999  0  2.194522  0
O  O94  1  0.01222026  0.67518618  0.45525255  1  0  -0.664701  0  1.993551  0  0  -0.593708  0  2.223212  0  0  -0.623342  0  2.214233  0  0  -0.326759  -0.572857  0  2.228837  0
O  O95  1  0.51222128  0.45525215  0.67518629  1  0  -0.664716  0  1.993586  0  0  -0.593705  0  2.223251  0  0  -0.623342  0  2.214273  0  0  -0.326759  -0.572856  0  2.228878  0
