# generated using pymatgen
data_CsH3C2(NO)4
_symmetry_space_group_name_H-M   'P 1'
_cell_length_a   6.54962292
_cell_length_b   8.41125978
_cell_length_c   13.25786324
_cell_angle_alpha   89.99990389
_cell_angle_beta   95.63572183
_cell_angle_gamma   89.99912473
_symmetry_Int_Tables_number   1
_chemical_formula_structural   CsH3C2(NO)4
_chemical_formula_sum   'Cs4 H12 C8 N16 O16'
_cell_volume   726.85296842
_cell_formula_units_Z   4
loop_
 _symmetry_equiv_pos_site_id
 _symmetry_equiv_pos_as_xyz
  1  'x, y, z'
loop_
 _atom_site_type_symbol
 _atom_site_label
 _atom_site_symmetry_multiplicity
 _atom_site_fract_x
 _atom_site_fract_y
 _atom_site_fract_z
 _atom_site_occupancy
 _atom_site_hle17_bader_spin_density
 _atom_site_hle17_ddec_charge
 _atom_site_hle17_ddec_spin_density
 _atom_site_hle17_ddec_sum_bond_order
 _atom_site_hle17_magmom
 _atom_site_hse06_10hf_bader_spin_density
 _atom_site_hse06_10hf_ddec_charge
 _atom_site_hse06_10hf_ddec_spin_density
 _atom_site_hse06_10hf_ddec_sum_bond_order
 _atom_site_hse06_10hf_magmom
 _atom_site_hse06_bader_spin_density
 _atom_site_hse06_ddec_charge
 _atom_site_hse06_ddec_spin_density
 _atom_site_hse06_ddec_sum_bond_order
 _atom_site_hse06_magmom
 _atom_site_pbe_bader_spin_density
 _atom_site_pbe_cm5_charge
 _atom_site_pbe_ddec_charge
 _atom_site_pbe_ddec_spin_density
 _atom_site_pbe_ddec_sum_bond_order
 _atom_site_pbe_magmom
Cs  Cs0  1  0.74882137  0.45730782  0.87599875  1  0  0.931134  0  0.590823  0  0  0.865609  0  0.845609  0  0  0.883047  0  0.817607  0  0  0.914901  0.852836  0  0.865508  0
Cs  Cs1  1  0.75119576  0.95730927  0.62399739  1  0  0.931123  0  0.590808  0  0  0.865603  0  0.845581  0  0  0.883042  0  0.817583  0  0  0.914876  0.852805  0  0.865478  0
Cs  Cs2  1  0.25118129  0.54269354  0.12399997  1  0  0.931131  0  0.590828  0  0  0.865609  0  0.845607  0  0  0.883045  0  0.817603  0  0  0.914896  0.852829  0  0.865507  0
Cs  Cs3  1  0.24880383  0.04269090  0.37600269  1  0  0.931117  0  0.590814  0  0  0.865605  0  0.845582  0  0  0.883042  0  0.817582  0  0  0.914882  0.852804  0  0.86548  0
H  H4  1  0.23116460  0.81851739  0.69659356  1  0  0.31657  0  0.919393  0  0  0.290945  0  0.989301  0  0  0.300927  0  0.981348  0  0  0.324185  0.283884  0  0.994943  0
H  H5  1  0.26884613  0.31851347  0.80341364  1  0  0.316283  0  0.919775  0  0  0.290643  0  0.989683  0  0  0.300624  0  0.98174  0  0  0.324049  0.283585  0  0.995312  0
H  H6  1  0.76883652  0.18148397  0.30340509  1  0  0.316579  0  0.919394  0  0  0.29097  0  0.989272  0  0  0.300951  0  0.98132  0  0  0.324188  0.283905  0  0.994929  0
H  H7  1  0.73115345  0.68148669  0.19658870  1  0  0.316401  0  0.919536  0  0  0.290663  0  0.989576  0  0  0.300645  0  0.981628  0  0  0.324079  0.283602  0  0.995208  0
H  H8  1  0.82722162  0.22532151  0.08352818  1  0  0.40052  0  0.914881  0  0  0.362707  0  0.992145  0  0  0.373572  0  0.97628  0  0  0.273922  0.355081  0  1.003255  0
H  H9  1  0.67277975  0.72532329  0.41646762  1  0  0.4006  0  0.91478  0  0  0.362793  0  0.992034  0  0  0.373657  0  0.976169  0  0  0.273943  0.355163  0  1.003149  0
H  H10  1  0.17277951  0.77467866  0.91647047  1  0  0.40058  0  0.914835  0  0  0.362745  0  0.992127  0  0  0.373609  0  0.976261  0  0  0.273946  0.355117  0  1.003238  0
H  H11  1  0.32721984  0.27467569  0.58353321  1  0  0.400545  0  0.914847  0  0  0.362733  0  0.992113  0  0  0.373596  0  0.976249  0  0  0.273907  0.355104  0  1.003227  0
H  H12  1  0.78628167  0.38370939  0.14356463  1  0  0.402374  0  0.909878  0  0  0.373865  0  0.97121  0  0  0.384864  0  0.954954  0  0  0.279343  0.366105  0  0.98265  0
H  H13  1  0.71371654  0.88371318  0.35642855  1  0  0.402386  0  0.90986  0  0  0.373935  0  0.971082  0  0  0.384928  0  0.954834  0  0  0.279407  0.366171  0  0.982526  0
H  H14  1  0.21372253  0.61629197  0.85643417  1  0  0.402432  0  0.909825  0  0  0.373976  0  0.971051  0  0  0.384971  0  0.954798  0  0  0.279427  0.366216  0  0.98249  0
H  H15  1  0.28628152  0.11628580  0.64357221  1  0  0.402357  0  0.909896  0  0  0.373903  0  0.971123  0  0  0.384898  0  0.954872  0  0  0.279382  0.36614  0  0.982566  0
C  C16  1  0.28020061  0.56256735  0.66992585  1  0  0.653809  0  3.88007  0  0  0.588695  0  4.18883  0  0  0.617061  0  4.19165  0  0  0.311247  0.569602  0  4.186251  0
C  C17  1  0.21981067  0.06256159  0.83007492  1  0  0.653733  0  3.880026  0  0  0.588608  0  4.188756  0  0  0.616971  0  4.191583  0  0  0.311197  0.569518  0  4.18616  0
C  C18  1  0.71980205  0.43743163  0.33007363  1  0  0.653782  0  3.880112  0  0  0.588644  0  4.188875  0  0  0.617009  0  4.191699  0  0  0.311245  0.569552  0  4.18629  0
C  C19  1  0.78018739  0.93743858  0.16992584  1  0  0.653732  0  3.880075  0  0  0.58859  0  4.188817  0  0  0.616953  0  4.191647  0  0  0.311192  0.569501  0  4.186216  0
C  C20  1  0.23060689  0.59961577  0.51125421  1  0  0.331057  0  3.812193  0  0  0.269273  0  4.117347  0  0  0.276453  0  4.135075  0  0  0.302611  0.264571  0  4.105296  0
C  C21  1  0.26939135  0.09961385  0.98875342  1  0  0.331113  0  3.81209  0  0  0.268936  0  4.117572  0  0  0.276113  0  4.135309  0  0  0.302481  0.264236  0  4.105535  0
C  C22  1  0.76939423  0.40038440  0.48874670  1  0  0.331103  0  3.812438  0  0  0.269343  0  4.117497  0  0  0.276522  0  4.135225  0  0  0.302634  0.26464  0  4.105449  0
C  C23  1  0.73060671  0.90038513  0.01124659  1  0  0.331274  0  3.812025  0  0  0.269216  0  4.117345  0  0  0.276394  0  4.135082  0  0  0.302588  0.264515  0  4.105304  0
N  N24  1  0.24281196  0.72244615  0.64736707  1  0  -0.291675  0  3.350341  0  0  -0.231447  0  3.601518  0  0  -0.251697  0  3.615776  0  0  -0.28538  -0.21781  0  3.591729  0
N  N25  1  0.25719455  0.22244822  0.85264382  1  0  -0.291516  0  3.350682  0  0  -0.2312  0  3.601759  0  0  -0.251456  0  3.616028  0  0  -0.285277  -0.217561  0  3.591986  0
N  N26  1  0.75718610  0.27755521  0.35263218  1  0  -0.291649  0  3.350405  0  0  -0.23144  0  3.601558  0  0  -0.251692  0  3.615825  0  0  -0.285393  -0.217806  0  3.591767  0
N  N27  1  0.74280503  0.77755314  0.14735777  1  0  -0.291553  0  3.350363  0  0  -0.231185  0  3.601511  0  0  -0.251438  0  3.61578  0  0  -0.285289  -0.217548  0  3.591725  0
N  N28  1  0.20909022  0.74637866  0.54653401  1  0  -0.271143  0  2.922863  0  0  -0.269974  0  3.214811  0  0  -0.274635  0  3.230586  0  0  -0.270126  -0.266674  0  3.204158  0
N  N29  1  0.29090969  0.24637655  0.95347200  1  0  -0.271048  0  2.923087  0  0  -0.269833  0  3.215125  0  0  -0.274494  0  3.230909  0  0  -0.270105  -0.266536  0  3.204485  0
N  N30  1  0.79090630  0.25362508  0.45346441  1  0  -0.271152  0  2.923041  0  0  -0.270024  0  3.214984  0  0  -0.274686  0  3.23076  0  0  -0.270131  -0.266723  0  3.204333  0
N  N31  1  0.70908990  0.75362481  0.04652959  1  0  -0.271106  0  2.923015  0  0  -0.269949  0  3.214993  0  0  -0.274613  0  3.230776  0  0  -0.270135  -0.266649  0  3.204346  0
N  N32  1  0.27352310  0.48351750  0.58032976  1  0  -0.553245  0  2.984509  0  0  -0.508651  0  3.257616  0  0  -0.528271  0  3.267588  0  0  -0.339084  -0.495399  0  3.250811  0
N  N33  1  0.22648279  0.98351387  0.91968227  1  0  -0.553306  0  2.984079  0  0  -0.508621  0  3.257289  0  0  -0.528247  0  3.267269  0  0  -0.339021  -0.495362  0  3.250481  0
N  N34  1  0.72647649  0.51647911  0.41967107  1  0  -0.553264  0  2.984617  0  0  -0.508679  0  3.257718  0  0  -0.5283  0  3.267693  0  0  -0.339077  -0.495426  0  3.250908  0
N  N35  1  0.77351220  0.01648273  0.08031758  1  0  -0.553374  0  2.984071  0  0  -0.508713  0  3.257257  0  0  -0.528338  0  3.267238  0  0  -0.339082  -0.495459  0  3.250451  0
N  N36  1  0.20567267  0.56968234  0.40437780  1  0  0.44051  0  3.961696  0  0  0.517076  0  4.197  0  0  0.539184  0  4.20037  0  0  0.040547  0.502163  0  4.194761  0
N  N37  1  0.29433797  0.06968806  0.09563589  1  0  0.439977  0  3.962367  0  0  0.517141  0  4.197038  0  0  0.53925  0  4.200413  0  0  0.040499  0.502222  0  4.194799  0
N  N38  1  0.79432846  0.43031664  0.59562085  1  0  0.440537  0  3.961899  0  0  0.517218  0  4.197051  0  0  0.539327  0  4.200413  0  0  0.040546  0.502304  0  4.194818  0
N  N39  1  0.70566161  0.93031211  0.90436495  1  0  0.439902  0  3.962456  0  0  0.517042  0  4.197136  0  0  0.539151  0  4.20051  0  0  0.040456  0.502125  0  4.194899  0
O  O40  1  0.31345224  0.50687624  0.75908310  1  0  -0.668211  0  2.024905  0  0  -0.613454  0  2.257613  0  0  -0.638844  0  2.248773  0  0  -0.372778  -0.595234  0  2.262911  0
O  O41  1  0.18656778  0.00688295  0.74093627  1  0  -0.668028  0  2.025322  0  0  -0.613281  0  2.258034  0  0  -0.638669  0  2.2492  0  0  -0.372704  -0.595058  0  2.263325  0
O  O42  1  0.68655196  0.49312393  0.24091645  1  0  -0.668235  0  2.024858  0  0  -0.613409  0  2.257573  0  0  -0.638804  0  2.248734  0  0  -0.372777  -0.595189  0  2.262864  0
O  O43  1  0.81343028  0.99312079  0.25906524  1  0  -0.668041  0  2.025314  0  0  -0.613309  0  2.258026  0  0  -0.638697  0  2.249193  0  0  -0.37272  -0.595085  0  2.263313  0
O  O44  1  0.15836544  0.68238519  0.34542440  1  0  -0.39386  0  1.804745  0  0  -0.39326  0  2.012771  0  0  -0.402197  0  2.005487  0  0  -0.225035  -0.387408  0  2.018012  0
O  O45  1  0.34163376  0.18238665  0.15458028  1  0  -0.39364  0  1.80529  0  0  -0.393262  0  2.013109  0  0  -0.402197  0  2.005823  0  0  -0.224995  -0.3874  0  2.018352  0
O  O46  1  0.84163416  0.31761617  0.65457493  1  0  -0.393913  0  1.80478  0  0  -0.393332  0  2.012793  0  0  -0.402268  0  2.005508  0  0  -0.225045  -0.387478  0  2.018037  0
O  O47  1  0.65836582  0.81761470  0.84542055  1  0  -0.393656  0  1.805367  0  0  -0.393244  0  2.0132  0  0  -0.402179  0  2.005912  0  0  -0.224989  -0.387386  0  2.018444  0
O  O48  1  0.23161614  0.43062219  0.37536185  1  0  -0.378485  0  1.777143  0  0  -0.381231  0  1.98045  0  0  -0.389961  0  1.974992  0  0  -0.186089  -0.37543  0  1.984365  0
O  O49  1  0.26840876  0.93062343  0.12464980  1  0  -0.37828  0  1.777224  0  0  -0.381215  0  1.980397  0  0  -0.389934  0  1.974905  0  0  -0.186049  -0.375413  0  1.984335  0
O  O50  1  0.76838652  0.56937203  0.62463763  1  0  -0.378548  0  1.777302  0  0  -0.381315  0  1.980524  0  0  -0.390062  0  1.9751  0  0  -0.186084  -0.375513  0  1.984439  0
O  O51  1  0.73159390  0.06937555  0.87535118  1  0  -0.378264  0  1.777222  0  0  -0.381206  0  1.980417  0  0  -0.389924  0  1.974926  0  0  -0.186039  -0.375404  0  1.984355  0
O  O52  1  0.86227717  0.34043723  0.08876567  1  0  -0.919315  0  1.820197  0  0  -0.870144  0  2.000058  0  0  -0.889486  0  1.969213  0  0  -0.768241  -0.856264  0  2.021544  0
O  O53  1  0.63773109  0.84043944  0.41123409  1  0  -0.919395  0  1.820131  0  0  -0.870261  0  1.999954  0  0  -0.889596  0  1.96912  0  0  -0.768315  -0.856388  0  2.021451  0
O  O54  1  0.13772549  0.65956413  0.91123230  1  0  -0.919452  0  1.820116  0  0  -0.870285  0  1.999993  0  0  -0.889622  0  1.969155  0  0  -0.768368  -0.856408  0  2.021485  0
O  O55  1  0.36226850  0.15955954  0.58876675  1  0  -0.919305  0  1.820178  0  0  -0.870163  0  1.999997  0  0  -0.889498  0  1.969163  0  0  -0.768249  -0.856289  0  2.021491  0
