# generated using pymatgen
data_ZnH3C19(NO2)2
_symmetry_space_group_name_H-M   'P 1'
_cell_length_a   17.04371414
_cell_length_b   17.04275181
_cell_length_c   17.04391815
_cell_angle_alpha   64.82941455
_cell_angle_beta   64.83278177
_cell_angle_gamma   64.82101425
_symmetry_Int_Tables_number   1
_chemical_formula_structural   ZnH3C19(NO2)2
_chemical_formula_sum   'Zn6 H18 C114 N12 O24'
_cell_volume   3870.34245097
_cell_formula_units_Z   6
loop_
 _symmetry_equiv_pos_site_id
 _symmetry_equiv_pos_as_xyz
  1  'x, y, z'
loop_
 _atom_site_type_symbol
 _atom_site_label
 _atom_site_symmetry_multiplicity
 _atom_site_fract_x
 _atom_site_fract_y
 _atom_site_fract_z
 _atom_site_occupancy
 _atom_site_pbe_bader_charge
 _atom_site_pbe_bader_spin_density
 _atom_site_pbe_cm5_charge
 _atom_site_pbe_ddec_charge
 _atom_site_pbe_ddec_spin_density
 _atom_site_pbe_ddec_sum_bond_order
 _atom_site_pbe_magmom
Zn  Zn0  1  0.99578663  0.99578542  0.58127964  1  1.325158  0  0.754728  1.002268  0  2.004954  0
Zn  Zn1  1  0.00421458  0.00417699  0.41874190  1  1.323505  0  0.754607  1.002102  0  2.005399  0
Zn  Zn2  1  0.99575594  0.58134805  0.99578167  1  1.324392  0  0.754698  1.002519  0  2.00545  0
Zn  Zn3  1  0.00426349  0.41865256  0.00420523  1  1.323403  0  0.754534  1.002359  0  2.005883  0
Zn  Zn4  1  0.58130223  0.99577578  0.99579279  1  1.324864  0  0.754628  1.00226  0  2.005441  0
Zn  Zn5  1  0.41869527  0.00423689  0.00421876  1  1.323511  0  0.754508  1.002224  0  2.005853  0
H  H6  1  0.28016854  0.95976118  0.28011818  1  0.155867  0  0.124576  0.149503  0  0.983529  0
H  H7  1  0.96787199  0.21684539  0.72319160  1  0.107382  0  0.115903  0.125085  0  0.990205  0
H  H8  1  0.78331141  0.27681622  0.03176852  1  0.10586  0  0.116035  0.12545  0  0.989672  0
H  H9  1  0.21668614  0.72319521  0.96823766  1  0.105966  0  0.116008  0.125426  0  0.989657  0
H  H10  1  0.21673766  0.96820141  0.72313474  1  0.106283  0  0.11606  0.125372  0  0.99002  0
H  H11  1  0.78324985  0.03179619  0.27687433  1  0.106802  0  0.11609  0.125413  0  0.989943  0
H  H12  1  0.72317082  0.21667459  0.96820695  1  0.106535  0  0.115897  0.125219  0  0.989743  0
H  H13  1  0.27683834  0.78332762  0.03179471  1  0.107065  0  0.115938  0.125225  0  0.989808  0
H  H14  1  0.96854220  0.72312161  0.21662111  1  0.107642  0  0.116119  0.125964  0  0.98978  0
H  H15  1  0.03146034  0.27686713  0.78337600  1  0.107576  0  0.116151  0.126045  0  0.989639  0
H  H16  1  0.71981965  0.04023036  0.71989548  1  0.155843  0  0.124498  0.149395  0  0.983441  0
H  H17  1  0.95972814  0.28012301  0.28019507  1  0.155719  0  0.12455  0.149447  0  0.98333  0
H  H18  1  0.04028525  0.71985794  0.71980605  1  0.15567  0  0.124484  0.149569  0  0.983042  0
H  H19  1  0.28014114  0.28018378  0.95973269  1  0.155761  0  0.124593  0.149584  0  0.983026  0
H  H20  1  0.71987395  0.71982559  0.04027936  1  0.155103  0  0.124519  0.149568  0  0.983382  0
H  H21  1  0.27684906  0.03179289  0.78326057  1  0.106805  0  0.116091  0.1255  0  0.989868  0
H  H22  1  0.72313908  0.96821491  0.21674282  1  0.106421  0  0.116059  0.125419  0  0.989775  0
H  H23  1  0.03211901  0.78314283  0.27681348  1  0.107634  0  0.115975  0.125096  0  0.990301  0
C  C24  1  0.32474426  0.94921158  0.46225005  1  0.032656  0  0.018947  0.043626  0  3.916626  0
C  C25  1  0.32477100  0.46229064  0.94917126  1  0.032682  0  0.018943  0.043626  0  3.916637  0
C  C26  1  0.54699448  0.41334377  0.98691328  1  0.070864  0  0.005949  0.005608  0  3.964063  0
C  C27  1  0.01296329  0.45304784  0.58668725  1  0.07835  0  0.006434  0.006167  0  3.965462  0
C  C28  1  0.98703934  0.54693511  0.41330578  1  0.073586  0  0.006368  0.006162  0  3.965001  0
C  C29  1  0.37942182  0.09700200  0.78154046  1  0.840972  0  0.16891  0.241789  0  4.073834  0
C  C30  1  0.62057586  0.90299586  0.21846369  1  0.840869  0  0.168915  0.241807  0  4.074161  0
C  C31  1  0.09729814  0.78130035  0.37943768  1  0.920242  0  0.167974  0.239625  0  4.074166  0
C  C32  1  0.90269487  0.21869181  0.62056491  1  0.919333  0  0.16806  0.239774  0  4.074597  0
C  C33  1  0.78167326  0.37939402  0.09684675  1  0.845242  0  0.168759  0.241638  0  4.074553  0
C  C34  1  0.21832839  0.62061689  0.90315441  1  0.845709  0  0.168752  0.241686  0  4.074396  0
C  C35  1  0.21836779  0.90311272  0.62057727  1  0.846179  0  0.168525  0.241016  0  4.074358  0
C  C36  1  0.05090478  0.67512279  0.53776485  1  0.030743  0  0.018946  0.044194  0  3.915839  0
C  C37  1  0.78163403  0.09687225  0.37942993  1  0.84615  0  0.168594  0.241183  0  4.074105  0
C  C38  1  0.62059016  0.21819117  0.90330205  1  0.834536  0  0.168723  0.241373  0  4.073631  0
C  C39  1  0.37941834  0.78183933  0.09666875  1  0.835785  0  0.16879  0.24158  0  4.073386  0
C  C40  1  0.90354419  0.62066371  0.21807212  1  0.83554  0  0.169285  0.241594  0  4.073309  0
C  C41  1  0.09645635  0.37931522  0.78193285  1  0.835715  0  0.168957  0.241277  0  4.073311  0
C  C42  1  0.94908561  0.32485919  0.46223721  1  0.031217  0  0.018789  0.043996  0  3.915804  0
C  C43  1  0.45933918  0.97442448  0.45935299  1  -0.043474  0  0.005555  0.003276  0  3.983647  0
C  C44  1  0.54064426  0.02558216  0.54064756  1  -0.043416  0  0.005559  0.00323  0  3.983645  0
C  C45  1  0.97438872  0.45938833  0.45932471  1  -0.044227  0  0.005509  0.003531  0  3.984174  0
C  C46  1  0.02560852  0.54059561  0.54066605  1  -0.044095  0  0.005503  0.003549  0  3.984396  0
C  C47  1  0.45936088  0.45937657  0.97440199  1  -0.044036  0  0.005371  0.003175  0  3.983844  0
C  C48  1  0.54064612  0.54064765  0.02559317  1  -0.043504  0  0.005465  0.003233  0  3.982742  0
C  C49  1  0.97032197  0.17490942  0.44048870  1  1.549953  0  0.220622  0.589132  0  4.159075  0
C  C50  1  0.67524798  0.05078330  0.53776112  1  0.03211  0  0.018956  0.043596  0  3.916331  0
C  C51  1  0.02968196  0.82505936  0.55952554  1  1.550409  0  0.220718  0.58932  0  4.15949  0
C  C52  1  0.17491211  0.44044073  0.97036006  1  1.551652  0  0.220475  0.589202  0  4.159575  0
C  C53  1  0.82510780  0.55958101  0.02962958  1  1.552524  0  0.220763  0.589233  0  4.159429  0
C  C54  1  0.44043452  0.97038709  0.17490248  1  1.552215  0  0.220745  0.589094  0  4.159948  0
C  C55  1  0.55955628  0.02962768  0.82509983  1  1.550931  0  0.220627  0.589113  0  4.15979  0
C  C56  1  0.55964386  0.82510562  0.02960972  1  1.551218  0  0.221301  0.590024  0  4.159201  0
C  C57  1  0.44038210  0.17490708  0.97039290  1  1.551671  0  0.221102  0.589997  0  4.159822  0
C  C58  1  0.02956232  0.55966014  0.82513158  1  1.551671  0  0.22119  0.589847  0  4.15989  0
C  C59  1  0.97045106  0.44033190  0.17485906  1  1.550839  0  0.221073  0.58975  0  4.160038  0
C  C60  1  0.82508400  0.02958267  0.55964485  1  1.552411  0  0.221058  0.589311  0  4.160437  0
C  C61  1  0.94924596  0.46229188  0.32467375  1  0.034157  0  0.019085  0.044222  0  3.91636  0
C  C62  1  0.17490681  0.97040797  0.44037983  1  1.551584  0  0.221102  0.589611  0  4.159766  0
C  C63  1  0.41575381  0.95667559  0.41578735  1  -0.036154  0  0.0078  -0.00582  0  3.902901  0
C  C64  1  0.58422552  0.04333614  0.58421455  1  -0.035181  0  0.007741  -0.005714  0  3.902856  0
C  C65  1  0.95661248  0.41585266  0.41572598  1  -0.034513  0  0.00804  -0.00608  0  3.903228  0
C  C66  1  0.04337933  0.58412962  0.58426832  1  -0.034409  0  0.007968  -0.006005  0  3.90281  0
C  C67  1  0.41579077  0.41579075  0.95664849  1  -0.034379  0  0.008176  -0.005416  0  3.902021  0
C  C68  1  0.58421618  0.58423212  0.04335429  1  -0.035537  0  0.007922  -0.005905  0  3.902202  0
C  C69  1  0.27601687  0.95161410  0.41029713  1  -0.013629  0  -0.006624  -0.067901  0  3.898552  0
C  C70  1  0.72398219  0.04837359  0.58971302  1  -0.013432  0  -0.006652  -0.06776  0  3.898422  0
C  C71  1  0.95166188  0.41029952  0.27596816  1  -0.014762  0  -0.00657  -0.068327  0  3.898689  0
C  C72  1  0.05075127  0.53768617  0.67532416  1  0.033655  0  0.019131  0.04402  0  3.916557  0
C  C73  1  0.04833941  0.58967145  0.72403511  1  -0.014962  0  -0.006581  -0.068163  0  3.898302  0
C  C74  1  0.41033615  0.27601012  0.95157921  1  -0.014625  0  -0.006685  -0.068119  0  3.898386  0
C  C75  1  0.58968720  0.72400153  0.04841260  1  -0.013793  0  -0.006643  -0.068054  0  3.898654  0
C  C76  1  0.58965518  0.04840458  0.72399291  1  -0.013887  0  -0.006677  -0.067933  0  3.897771  0
C  C77  1  0.41031462  0.95161253  0.27601248  1  -0.013787  0  -0.006808  -0.068092  0  3.898242  0
C  C78  1  0.72398392  0.58965286  0.04843448  1  -0.014046  0  -0.006741  -0.068083  0  3.897637  0
C  C79  1  0.27602592  0.41036156  0.95155359  1  -0.014798  0  -0.006513  -0.067788  0  3.897495  0
C  C80  1  0.04845663  0.72394943  0.58964267  1  -0.013258  0  -0.006689  -0.068178  0  3.897784  0
C  C81  1  0.95154061  0.27603191  0.41034917  1  -0.013383  0  -0.006489  -0.068152  0  3.89753  0
C  C82  1  0.44252978  0.05730127  0.71101490  1  0.128569  0  0.020997  -0.006803  0  3.963265  0
C  C83  1  0.46226994  0.32474398  0.94919552  1  0.032212  0  0.018924  0.043836  0  3.916259  0
C  C84  1  0.55747003  0.94269803  0.28897602  1  0.128642  0  0.02088  -0.006835  0  3.963171  0
C  C85  1  0.05748511  0.71085382  0.44253604  1  0.053629  0  0.02131  -0.006283  0  3.962617  0
C  C86  1  0.94250726  0.28913271  0.55746740  1  0.055689  0  0.021219  -0.006446  0  3.963253  0
C  C87  1  0.71106364  0.44251015  0.05727327  1  0.13292  0  0.020895  -0.006963  0  3.963052  0
C  C88  1  0.28894614  0.55750356  0.94272334  1  0.132151  0  0.020876  -0.006951  0  3.963399  0
C  C89  1  0.28893577  0.94273551  0.55746211  1  0.129027  0  0.020936  -0.006667  0  3.962747  0
C  C90  1  0.71105521  0.05725269  0.44254533  1  0.128294  0  0.020962  -0.00672  0  3.962592  0
C  C91  1  0.55747600  0.28889028  0.94276914  1  0.132723  0  0.020895  -0.007151  0  3.963245  0
C  C92  1  0.44253922  0.71113292  0.05721363  1  0.13182  0  0.020901  -0.007196  0  3.96282  0
C  C93  1  0.94292750  0.55748158  0.28881931  1  0.128675  0  0.020631  -0.007148  0  3.962563  0
C  C94  1  0.53774657  0.67527484  0.05079910  1  0.033468  0  0.018885  0.044059  0  3.916494  0
C  C95  1  0.05707307  0.44249738  0.71118211  1  0.128583  0  0.020538  -0.007196  0  3.962823  0
C  C96  1  0.31982514  0.95307288  0.31981069  1  0.07383  0  -0.059597  -0.071601  0  3.914012  0
C  C97  1  0.68015347  0.04693182  0.68020442  1  0.073573  0  -0.059549  -0.071611  0  3.913215  0
C  C98  1  0.95305120  0.31981958  0.31984635  1  0.073972  0  -0.059641  -0.071359  0  3.913767  0
C  C99  1  0.04695616  0.68015934  0.68015050  1  0.07466  0  -0.059645  -0.071839  0  3.912991  0
C  C100  1  0.31984690  0.31985598  0.95301545  1  0.075185  0  -0.059723  -0.071862  0  3.913269  0
C  C101  1  0.68017842  0.68015892  0.04698006  1  0.074477  0  -0.059695  -0.071849  0  3.913646  0
C  C102  1  0.67235132  0.03044397  0.40323792  1  0.003573  0  0.010974  0.05422  0  3.99564  0
C  C103  1  0.32763624  0.96954717  0.59677030  1  0.002884  0  0.011093  0.054197  0  3.995599  0
C  C104  1  0.03025199  0.40323892  0.67244299  1  -0.001483  0  0.011173  0.05427  0  3.997232  0
C  C105  1  0.53774692  0.05080655  0.67522057  1  0.032576  0  0.019023  0.043635  0  3.91663  0
C  C106  1  0.96975199  0.59674492  0.32755029  1  0.002564  0  0.011051  0.054004  0  3.996883  0
C  C107  1  0.40321063  0.67241637  0.03044500  1  -0.000555  0  0.011202  0.05407  0  3.995822  0
C  C108  1  0.59679642  0.32760529  0.96954709  1  -0.000525  0  0.011204  0.054311  0  3.996112  0
C  C109  1  0.59677917  0.96952524  0.32765641  1  0.003096  0  0.011171  0.054204  0  3.996092  0
C  C110  1  0.40320426  0.03048531  0.67234134  1  0.002367  0  0.011049  0.054243  0  3.99607  0
C  C111  1  0.32762449  0.59681755  0.96954094  1  -0.004907  0  0.011208  0.054572  0  3.996395  0
C  C112  1  0.67238055  0.40319627  0.03045525  1  0.000266  0  0.011201  0.054561  0  3.996251  0
C  C113  1  0.96931556  0.32778436  0.59681187  1  -0.001448  0  0.010962  0.054229  0  3.99748  0
C  C114  1  0.03068501  0.67220047  0.40318300  1  0.000518  0  0.011018  0.05417  0  3.997009  0
C  C115  1  0.71860225  0.01708551  0.31517502  1  -0.088152  0  -0.074732  -0.107688  0  3.960263  0
C  C116  1  0.46224264  0.94920156  0.32477447  1  0.032171  0  0.01903  0.043861  0  3.916032  0
C  C117  1  0.28137910  0.98292363  0.68483063  1  -0.087794  0  -0.074728  -0.107653  0  3.960293  0
C  C118  1  0.01674461  0.31523270  0.71873418  1  -0.079529  0  -0.075111  -0.108902  0  3.962128  0
C  C119  1  0.98325392  0.68475338  0.28126102  1  -0.079271  0  -0.075014  -0.108581  0  3.961776  0
C  C120  1  0.31514034  0.71867483  0.01706631  1  0.03726  0  -0.074778  -0.107347  0  3.960382  0
C  C121  1  0.68485998  0.28133651  0.98293171  1  0.038298  0  -0.074731  -0.107525  0  3.960578  0
C  C122  1  0.68482271  0.98291065  0.28139304  1  0.039162  0  -0.074627  -0.10749  0  3.960221  0
C  C123  1  0.31515728  0.01709955  0.71861215  1  0.038975  0  -0.074669  -0.107618  0  3.960304  0
C  C124  1  0.28134600  0.68487315  0.98293442  1  -0.087444  0  -0.074748  -0.107871  0  3.960865  0
C  C125  1  0.71865433  0.31514079  0.01706075  1  -0.087499  0  -0.074718  -0.107762  0  3.961035  0
C  C126  1  0.98259311  0.28149003  0.68490368  1  0.02833  0  -0.074407  -0.107062  0  3.962078  0
C  C127  1  0.67523875  0.53772891  0.05082294  1  0.032031  0  0.0191  0.04395  0  3.916538  0
C  C128  1  0.01740406  0.71849710  0.31509105  1  0.028053  0  -0.074519  -0.107148  0  3.962014  0
C  C129  1  0.54696136  0.98693902  0.41335836  1  0.072547  0  0.00612  0.00581  0  3.963958  0
C  C130  1  0.45302207  0.01307022  0.58664170  1  0.016361  0  0.006091  0.005815  0  3.963858  0
C  C131  1  0.98683719  0.41342266  0.54697828  1  0.016491  0  0.00587  0.00535  0  3.965565  0
C  C132  1  0.01316069  0.58656170  0.45301557  1  0.016119  0  0.005821  0.00537  0  3.965385  0
C  C133  1  0.41334393  0.54701073  0.98692851  1  0.022149  0  0.006123  0.005666  0  3.964248  0
C  C134  1  0.58666385  0.45301079  0.01305571  1  0.017005  0  0.006217  0.005772  0  3.96364  0
C  C135  1  0.58664313  0.01304883  0.45304018  1  0.015032  0  0.006255  0.005811  0  3.964117  0
C  C136  1  0.41334439  0.98695009  0.54696540  1  0.072137  0  0.00612  0.005723  0  3.96404  0
C  C137  1  0.45301603  0.58668023  0.01306524  1  0.071077  0  0.006172  0.00584  0  3.963693  0
N  N138  1  0.31720988  0.13450622  0.83133618  1  -1.118989  0  -0.307227  -0.350604  0  2.721145  0
N  N139  1  0.31715600  0.83185280  0.13387363  1  -1.110913  0  -0.306953  -0.350231  0  2.721504  0
N  N140  1  0.86641375  0.68295680  0.16801668  1  -1.109662  0  -0.307414  -0.350382  0  2.721637  0
N  N141  1  0.13358806  0.31702555  0.83199455  1  -1.109711  0  -0.307081  -0.350048  0  2.721667  0
N  N142  1  0.68279120  0.86549977  0.16865729  1  -1.118961  0  -0.307217  -0.350652  0  2.721198  0
N  N143  1  0.13492372  0.83107684  0.31736159  1  -1.12321  0  -0.306235  -0.348712  0  2.721292  0
N  N144  1  0.86506303  0.16892937  0.68264773  1  -1.122987  0  -0.306271  -0.348791  0  2.721437  0
N  N145  1  0.83157685  0.31713607  0.13418418  1  -1.123312  0  -0.307047  -0.350494  0  2.722273  0
N  N146  1  0.16842615  0.68287704  0.86581492  1  -1.123459  0  -0.306984  -0.350478  0  2.722166  0
N  N147  1  0.16846753  0.86573441  0.68276785  1  -1.121441  0  -0.306793  -0.350051  0  2.721831  0
N  N148  1  0.83152876  0.13426251  0.31724196  1  -1.120968  0  -0.306844  -0.350143  0  2.721762  0
N  N149  1  0.68284445  0.16818280  0.86608489  1  -1.10987  0  -0.306977  -0.350197  0  2.721694  0
O  O150  1  0.98516975  0.13047157  0.51697748  1  -1.152864  0  -0.290416  -0.536902  0  2.433551  0
O  O151  1  0.98529842  0.51681056  0.13037710  1  -1.154056  0  -0.290416  -0.537377  0  2.435993  0
O  O152  1  0.86955332  0.01468831  0.48316475  1  -1.154116  0  -0.290495  -0.537204  0  2.433785  0
O  O153  1  0.13043341  0.98534203  0.51682221  1  -1.154929  0  -0.290539  -0.537263  0  2.434412  0
O  O154  1  0.86026705  0.02533916  0.61481886  1  -1.136138  0  -0.300582  -0.528873  0  2.303297  0
O  O155  1  0.13973502  0.97460627  0.38519825  1  -1.135188  0  -0.300713  -0.529147  0  2.30229  0
O  O156  1  0.02534570  0.61485306  0.86027272  1  -1.13491  0  -0.300511  -0.528866  0  2.303064  0
O  O157  1  0.97471065  0.38510046  0.13971138  1  -1.134792  0  -0.300607  -0.529013  0  2.302271  0
O  O158  1  0.61482066  0.86026299  0.02539003  1  -1.135384  0  -0.300547  -0.528907  0  2.303248  0
O  O159  1  0.38518503  0.13974929  0.97461182  1  -1.134859  0  -0.30061  -0.529125  0  2.302423  0
O  O160  1  0.38522090  0.97468768  0.13970445  1  -1.135339  0  -0.300388  -0.528768  0  2.302629  0
O  O161  1  0.01478199  0.86950879  0.48304311  1  -1.152227  0  -0.290587  -0.537185  0  2.432854  0
O  O162  1  0.61474419  0.02532891  0.86029902  1  -1.135284  0  -0.300336  -0.52875  0  2.303521  0
O  O163  1  0.13974920  0.38521678  0.97463007  1  -1.134444  0  -0.300521  -0.529053  0  2.302583  0
O  O164  1  0.86026892  0.61479472  0.02533993  1  -1.135785  0  -0.300492  -0.528823  0  2.303323  0
O  O165  1  0.97462881  0.13968763  0.38529549  1  -1.13352  0  -0.300431  -0.528731  0  2.302457  0
O  O166  1  0.02543027  0.86027490  0.61467609  1  -1.134294  0  -0.300266  -0.528701  0  2.303762  0
O  O167  1  0.13042947  0.51690422  0.98526428  1  -1.153548  0  -0.290178  -0.537024  0  2.434525  0
O  O168  1  0.86959453  0.48308046  0.01475727  1  -1.153052  0  -0.290278  -0.537085  0  2.433928  0
O  O169  1  0.51692371  0.98521376  0.13045944  1  -1.153424  0  -0.290327  -0.536975  0  2.434535  0
O  O170  1  0.48305020  0.01478587  0.86955739  1  -1.152179  0  -0.290409  -0.537122  0  2.4335  0
O  O171  1  0.48317431  0.86961449  0.01467234  1  -1.154194  0  -0.290553  -0.537596  0  2.434366  0
O  O172  1  0.51681972  0.13040694  0.98534052  1  -1.154938  0  -0.290371  -0.537309  0  2.435435  0
O  O173  1  0.01467906  0.48317715  0.86962794  1  -1.154433  0  -0.290604  -0.537556  0  2.435059  0
