# generated using pymatgen
data_AlH15(C4O)6
_symmetry_space_group_name_H-M   'P 1'
_cell_length_a   3.98295530
_cell_length_b   28.53543375
_cell_length_c   28.53573180
_cell_angle_alpha   119.99962787
_cell_angle_beta   89.99943951
_cell_angle_gamma   89.99971555
_symmetry_Int_Tables_number   1
_chemical_formula_structural   AlH15(C4O)6
_chemical_formula_sum   'Al2 H30 C48 O12'
_cell_volume   2808.73771570
_cell_formula_units_Z   2
loop_
 _symmetry_equiv_pos_site_id
 _symmetry_equiv_pos_as_xyz
  1  'x, y, z'
loop_
 _atom_site_type_symbol
 _atom_site_label
 _atom_site_symmetry_multiplicity
 _atom_site_fract_x
 _atom_site_fract_y
 _atom_site_fract_z
 _atom_site_occupancy
 _atom_site_pbe_bader_charge
 _atom_site_pbe_bader_spin_density
 _atom_site_pbe_cm5_charge
 _atom_site_pbe_ddec_charge
 _atom_site_pbe_ddec_spin_density
 _atom_site_pbe_ddec_sum_bond_order
 _atom_site_pbe_magmom
Al  Al0  1  0.01452263  0.49999981  0.49999794  1  2.50599  0  0.425639  1.600082  0  2.565307  0
Al  Al1  1  0.01462448  0.16666844  0.83333707  1  2.505797  0  0.425517  1.598777  0  2.567135  0
H  H2  1  0.21930617  0.18571919  0.69856598  1  0.115447  0  0.108082  0.112051  0  0.989146  0
H  H3  1  0.21232453  0.24166860  0.65403419  1  0.057245  0  0.098695  0.097565  0  1.006053  0
H  H4  1  0.75627533  0.36728468  0.78920353  1  0.009326  0  0.098706  0.097573  0  0.998815  0
H  H5  1  0.78745774  0.30874277  0.83093524  1  0.106845  0  0.108764  0.112959  0  0.989038  0
H  H6  1  0.75626528  0.29937315  0.54412278  1  0.01026  0  0.098614  0.09743  0  0.99859  0
H  H7  1  0.21227016  0.42499408  0.67929719  1  0.05736  0  0.098701  0.097744  0  1.005755  0
H  H8  1  0.21921285  0.48094389  0.63476216  1  0.115352  0  0.108094  0.112013  0  0.988973  0
H  H9  1  0.78741849  0.35791655  0.50238526  1  0.106859  0  0.108712  0.112825  0  0.988823  0
H  H10  1  0.50537329  0.38594154  0.72163539  1  0.066433  0  0.098788  0.095039  0  1.002193  0
H  H11  1  0.50537911  0.28073129  0.61170358  1  0.066442  0  0.098862  0.095151  0  1.002381  0
H  H12  1  0.21919459  0.01284886  0.81427620  1  0.083521  0  0.108162  0.112178  0  0.989076  0
H  H13  1  0.21223106  0.91236647  0.75832678  1  0.055823  0  0.098698  0.097736  0  1.005931  0
H  H14  1  0.75632136  0.92192166  0.63272026  1  0.05854  0  0.098691  0.097587  0  0.998704  0
H  H15  1  0.78749798  0.02219505  0.69126087  1  0.086498  0  0.108783  0.113034  0  0.988898  0
H  H16  1  0.75635972  0.74474331  0.70061064  1  0.058535  0  0.09867  0.097482  0  0.998583  0
H  H17  1  0.21226306  0.75430662  0.57500802  1  0.056249  0  0.098657  0.097656  0  1.005869  0
H  H18  1  0.21917881  0.65382285  0.51905733  1  0.083572  0  0.108127  0.112128  0  0.988969  0
H  H19  1  0.78748371  0.64446697  0.64207163  1  0.08665  0  0.108727  0.112933  0  0.988706  0
H  H20  1  0.50536669  0.83569765  0.61406087  1  0.005583  0  0.098746  0.094993  0  1.002222  0
H  H21  1  0.50540065  0.83096905  0.71926862  1  0.005484  0  0.098873  0.095249  0  1.002333  0
H  H22  1  0.21925857  0.30143176  0.98715367  1  0.08273  0  0.10809  0.112033  0  0.989145  0
H  H23  1  0.21227530  0.34596255  0.08763417  1  0.067047  0  0.098723  0.097704  0  1.005888  0
H  H24  1  0.75636900  0.21080227  0.07808160  1  0.049811  0  0.098713  0.097533  0  0.998791  0
H  H25  1  0.78754280  0.16907190  0.97781091  1  0.101263  0  0.108781  0.112971  0  0.989047  0
H  H26  1  0.75624781  0.45587657  0.25524828  1  0.049486  0  0.09867  0.097513  0  0.998516  0
H  H27  1  0.21225248  0.32070711  0.24569728  1  0.067576  0  0.098671  0.097697  0  1.005859  0
H  H28  1  0.21918764  0.36524070  0.34617981  1  0.082789  0  0.108083  0.112031  0  0.989087  0
H  H29  1  0.78740625  0.49761451  0.35552454  1  0.103343  0  0.108738  0.112871  0  0.988827  0
H  H30  1  0.50541285  0.27836515  0.16430581  1  0.041262  0  0.098769  0.095  0  1.002165  0
H  H31  1  0.50534043  0.38829843  0.16902632  1  0.041883  0  0.098859  0.095181  0  1.002556  0
C  C32  1  0.51331676  0.46060965  0.41676590  1  1.547476  0  0.272869  0.649001  0  4.068089  0
C  C33  1  0.51330740  0.45616039  0.53939123  1  1.558331  0  0.272887  0.649112  0  4.068059  0
C  C34  1  0.51331001  0.58322634  0.54383251  1  1.559924  0  0.272987  0.649294  0  4.067791  0
C  C35  1  0.51340050  0.21050036  0.79394295  1  1.555608  0  0.272846  0.64876  0  4.068044  0
C  C36  1  0.51340542  0.08344116  0.78950193  1  1.561134  0  0.272822  0.648756  0  4.06806  0
C  C37  1  0.51340871  0.20606271  0.91656369  1  1.548453  0  0.272911  0.648985  0  4.067535  0
C  C38  1  0.50711157  0.24368432  0.76716773  1  -0.05127  0  -0.011088  -0.04247  0  3.963842  0
C  C39  1  0.34484224  0.22488568  0.71724058  1  -0.073403  0  -0.079764  -0.084518  0  3.983599  0
C  C40  1  0.34212098  0.25624061  0.69253195  1  -0.01972  0  -0.089388  -0.133787  0  3.971679  0
C  C41  1  0.48885942  0.30817433  0.71806737  1  -0.035368  0  -0.008627  0.113424  0  4.043213  0
C  C42  1  0.64098549  0.32721071  0.76899383  1  -0.015192  0  -0.090774  -0.137953  0  3.985215  0
C  C43  1  0.65844964  0.29490169  0.79256021  1  0.032598  0  -0.079523  -0.082713  0  3.985657  0
C  C44  1  0.48772738  0.34233572  0.69352401  1  -0.120213  0  -0.089132  -0.129454  0  3.999905  0
C  C45  1  0.48774972  0.32432651  0.63979830  1  -0.021378  0  -0.089097  -0.129277  0  4.000677  0
C  C46  1  0.64093490  0.33945582  0.56434527  1  -0.015472  0  -0.090679  -0.137945  0  3.98504  0
C  C47  1  0.48885972  0.35848250  0.61526734  1  -0.035531  0  -0.008468  0.113623  0  4.044084  0
C  C48  1  0.34209500  0.41041652  0.64079464  1  -0.020082  0  -0.08956  -0.134368  0  3.971297  0
C  C49  1  0.34480438  0.44177332  0.61608342  1  -0.073607  0  -0.079766  -0.084293  0  3.982888  0
C  C50  1  0.50704283  0.42297974  0.56615195  1  -0.05065  0  -0.011149  -0.042621  0  3.963833  0
C  C51  1  0.65838956  0.37176571  0.54077164  1  0.032409  0  -0.079314  -0.082299  0  3.984927  0
C  C52  1  0.50710833  0.02348556  0.75631653  1  -0.012262  0  -0.011083  -0.042461  0  3.963854  0
C  C53  1  0.34478890  0.99235691  0.77511360  1  0.042421  0  -0.079804  -0.084412  0  3.983306  0
C  C54  1  0.34206190  0.93629256  0.74375892  1  -0.051921  0  -0.0894  -0.134257  0  3.971606  0
C  C55  1  0.48884218  0.90989645  0.69182657  1  -0.075687  0  -0.008596  0.113561  0  4.043233  0
C  C56  1  0.64099816  0.94178443  0.67279286  1  -0.006956  0  -0.090785  -0.137934  0  3.985286  0
C  C57  1  0.65847298  0.99765851  0.70510244  1  -0.048415  0  -0.079513  -0.082847  0  3.985698  0
C  C58  1  0.48771715  0.85119158  0.65766589  1  -0.07397  0  -0.089026  -0.129253  0  3.999906  0
C  C59  1  0.48776232  0.81547213  0.67567156  1  0.044384  0  -0.08916  -0.129577  0  4.000713  0
C  C60  1  0.64098236  0.72488624  0.66053771  1  -0.0069  0  -0.090678  -0.137726  0  3.984843  0
C  C61  1  0.48887432  0.75678156  0.64151060  1  -0.076021  0  -0.008576  0.113563  0  4.043831  0
C  C62  1  0.34209620  0.73037932  0.58957866  1  -0.051791  0  -0.089535  -0.134306  0  3.971547  0
C  C63  1  0.34478728  0.67431406  0.55822347  1  0.042386  0  -0.079727  -0.084371  0  3.983202  0
C  C64  1  0.50705109  0.64317567  0.57701369  1  -0.012598  0  -0.011121  -0.042584  0  3.963855  0
C  C65  1  0.65843136  0.66900465  0.62822507  1  -0.04833  0  -0.079364  -0.082619  0  3.985136  0
C  C66  1  0.50713184  0.23283415  0.97651683  1  -0.043317  0  -0.011061  -0.042405  0  3.963699  0
C  C67  1  0.34483414  0.28275967  0.00764672  1  -0.023512  0  -0.079686  -0.084311  0  3.983411  0
C  C68  1  0.34211762  0.30746764  0.06370941  1  -0.001614  0  -0.089509  -0.134141  0  3.971601  0
C  C69  1  0.48888251  0.28193305  0.09010803  1  -0.105517  0  -0.008533  0.113475  0  4.043274  0
C  C70  1  0.64103289  0.23100947  0.05821638  1  -0.030273  0  -0.090821  -0.137886  0  3.985492  0
C  C71  1  0.65851229  0.20744415  0.00234338  1  0.044491  0  -0.079481  -0.082744  0  3.985678  0
C  C72  1  0.48775015  0.30647658  0.14881132  1  -0.097923  0  -0.089102  -0.129334  0  3.999907  0
C  C73  1  0.48773284  0.36020386  0.18452715  1  -0.00762  0  -0.089095  -0.129415  0  4.000762  0
C  C74  1  0.64094613  0.43565434  0.27511148  1  -0.029758  0  -0.090783  -0.13815  0  3.985324  0
C  C75  1  0.48885760  0.38473432  0.24321616  1  -0.106003  0  -0.008434  0.113841  0  4.044001  0
C  C76  1  0.34207664  0.35920657  0.26962047  1  -0.001837  0  -0.089527  -0.134358  0  3.971197  0
C  C77  1  0.34479327  0.38391722  0.32569028  1  -0.022976  0  -0.079738  -0.084318  0  3.982745  0
C  C78  1  0.50704014  0.43384947  0.35682605  1  -0.044323  0  -0.011233  -0.042682  0  3.963893  0
C  C79  1  0.65838804  0.45922861  0.33099017  1  0.043077  0  -0.079291  -0.082292  0  3.985087  0
O  O80  1  0.75028491  0.55863205  0.55294223  1  -1.25714  0  -0.238394  -0.599861  0  2.371173  0
O  O81  1  0.75030513  0.49431250  0.44136218  1  -1.256201  0  -0.238386  -0.599766  0  2.371041  0
O  O82  1  0.75027101  0.44705253  0.50568660  1  -1.257464  0  -0.23846  -0.599856  0  2.371079  0
O  O83  1  0.28080092  0.56005867  0.50876504  1  -1.260721  0  -0.241327  -0.600624  0  2.357475  0
O  O84  1  0.28080813  0.49123108  0.55128972  1  -1.258213  0  -0.241227  -0.600486  0  2.357362  0
O  O85  1  0.28083298  0.44871165  0.43994249  1  -1.256947  0  -0.241225  -0.600429  0  2.357371  0
O  O86  1  0.75042515  0.17235609  0.89196881  1  -1.256816  0  -0.238318  -0.599589  0  2.371305  0
O  O87  1  0.75041408  0.21961389  0.82764586  1  -1.256425  0  -0.238353  -0.599503  0  2.371523  0
O  O88  1  0.75042529  0.10803231  0.78039019  1  -1.257455  0  -0.238329  -0.599442  0  2.371502  0
O  O89  1  0.28088099  0.21796343  0.89338952  1  -1.256994  0  -0.241314  -0.600283  0  2.35704  0
O  O90  1  0.28088042  0.10661476  0.82457422  1  -1.261589  0  -0.241229  -0.600165  0  2.35735  0
O  O91  1  0.28088827  0.17542844  0.78204453  1  -1.256316  0  -0.241179  -0.60003  0  2.35728  0
