# generated using pymatgen
data_CdH10C13N2O7
_symmetry_space_group_name_H-M   'P 1'
_cell_length_a   8.02663201
_cell_length_b   12.78729140
_cell_length_c   18.84890000
_cell_angle_alpha   90.00000000
_cell_angle_beta   94.33903089
_cell_angle_gamma   90.00000000
_symmetry_Int_Tables_number   1
_chemical_formula_structural   CdH10C13N2O7
_chemical_formula_sum   'Cd4 H40 C52 N8 O28'
_cell_volume   1929.08504360
_cell_formula_units_Z   4
loop_
 _symmetry_equiv_pos_site_id
 _symmetry_equiv_pos_as_xyz
  1  'x, y, z'
loop_
 _atom_site_type_symbol
 _atom_site_label
 _atom_site_symmetry_multiplicity
 _atom_site_fract_x
 _atom_site_fract_y
 _atom_site_fract_z
 _atom_site_occupancy
 _atom_site_hle17_bader_spin_density
 _atom_site_hle17_ddec_charge
 _atom_site_hle17_ddec_spin_density
 _atom_site_hle17_ddec_sum_bond_order
 _atom_site_hle17_magmom
 _atom_site_hse06_10hf_bader_spin_density
 _atom_site_hse06_10hf_ddec_charge
 _atom_site_hse06_10hf_ddec_spin_density
 _atom_site_hse06_10hf_ddec_sum_bond_order
 _atom_site_hse06_10hf_magmom
 _atom_site_hse06_bader_spin_density
 _atom_site_hse06_ddec_charge
 _atom_site_hse06_ddec_spin_density
 _atom_site_hse06_ddec_sum_bond_order
 _atom_site_hse06_magmom
 _atom_site_pbe_bader_charge
 _atom_site_pbe_bader_spin_density
 _atom_site_pbe_cm5_charge
 _atom_site_pbe_ddec_charge
 _atom_site_pbe_ddec_spin_density
 _atom_site_pbe_ddec_sum_bond_order
 _atom_site_pbe_magmom
Cd  Cd0  1  0.88678303  0.82980982  0.88098429  1  0  1.116067  0  1.636523  0  0  0.924071  0  2.070254  0  0  0.98345  0  2.018557  0  1.262006  0  0.763142  0.881817  0  2.105544  0
Cd  Cd1  1  0.61321204  0.32980792  0.61901494  1  0  1.116087  0  1.63651  0  0  0.924093  0  2.070248  0  0  0.983482  0  2.018539  0  1.262024  0  0.76315  0.881839  0  2.105539  0
Cd  Cd2  1  0.11321368  0.17018929  0.11901502  1  0  1.116017  0  1.636633  0  0  0.924026  0  2.070384  0  0  0.983403  0  2.018688  0  1.261961  0  0.763123  0.881774  0  2.105673  0
Cd  Cd3  1  0.38678718  0.67019197  0.38098498  1  0  1.116077  0  1.636543  0  0  0.924059  0  2.070313  0  0  0.983452  0  2.018592  0  1.26201  0  0.763136  0.881804  0  2.105604  0
H  H4  1  0.92716348  0.88265448  0.03624174  1  0  0.423772  0  0.882649  0  0  0.389496  0  0.952871  0  0  0.401048  0  0.935974  0  0.636844  0  0.283757  0.381264  0  0.964905  0
H  H5  1  0.57283159  0.38265570  0.46375749  1  0  0.423773  0  0.882636  0  0  0.389485  0  0.952878  0  0  0.401039  0  0.935977  0  0.636759  0  0.28375  0.381253  0  0.964913  0
H  H6  1  0.07283324  0.11734698  0.96375916  1  0  0.423804  0  0.882604  0  0  0.389523  0  0.952842  0  0  0.40108  0  0.935937  0  0.636874  0  0.283768  0.381291  0  0.964878  0
H  H7  1  0.42716762  0.61733715  0.53624137  1  0  0.423823  0  0.882557  0  0  0.389455  0  0.952922  0  0  0.401012  0  0.936019  0  0.636661  0  0.283762  0.381221  0  0.96496  0
H  H8  1  0.04644020  0.78770161  0.02242370  1  0  0.423347  0  0.830322  0  0  0.402147  0  0.892145  0  0  0.411372  0  0.880154  0  0.603095  0  0.31225  0.39554  0  0.899935  0
H  H9  1  0.45355566  0.28770284  0.47757401  1  0  0.423301  0  0.830312  0  0  0.402105  0  0.89213  0  0  0.411329  0  0.880196  0  0.603081  0  0.312223  0.3955  0  0.899917  0
H  H10  1  0.95355402  0.21229672  0.97757606  1  0  0.423317  0  0.830309  0  0  0.402124  0  0.892116  0  0  0.411348  0  0.880169  0  0.603116  0  0.312218  0.395517  0  0.899907  0
H  H11  1  0.54644356  0.71229158  0.52242538  1  0  0.423288  0  0.830377  0  0  0.402082  0  0.892185  0  0  0.411306  0  0.880235  0  0.603189  0  0.312235  0.395476  0  0.899972  0
H  H12  1  0.83211531  0.06511152  0.92069437  1  0  0.102448  0  0.981608  0  0  0.109226  0  1.049464  0  0  0.113096  0  1.045308  0  0.144898  0  0.121277  0.106385  0  1.052517  0
H  H13  1  0.66788101  0.56511108  0.57930702  1  0  0.102413  0  0.981575  0  0  0.109224  0  1.049425  0  0  0.113096  0  1.045266  0  0.144879  0  0.121251  0.106381  0  1.052483  0
H  H14  1  0.16787890  0.93489072  0.07930486  1  0  0.102402  0  0.981557  0  0  0.109232  0  1.049401  0  0  0.113103  0  1.045244  0  0.144861  0  0.121249  0.106388  0  1.052462  0
H  H15  1  0.33212320  0.43488960  0.42069518  1  0  0.102435  0  0.981554  0  0  0.109184  0  1.049471  0  0  0.113053  0  1.045316  0  0.144813  0  0.121252  0.106344  0  1.052526  0
H  H16  1  0.30825777  0.14122537  0.92711344  1  0  0.13324  0  0.958208  0  0  0.142487  0  1.020502  0  0  0.146593  0  1.016415  0  0.140851  0  0.119244  0.139435  0  1.023596  0
H  H17  1  0.19174059  0.64121945  0.57289073  1  0  0.133238  0  0.958276  0  0  0.142497  0  1.020577  0  0  0.146599  0  1.016491  0  0.140939  0  0.119277  0.139446  0  1.023671  0
H  H18  1  0.69174269  0.85878077  0.07289024  1  0  0.133174  0  0.958219  0  0  0.142433  0  1.020526  0  0  0.146539  0  1.016438  0  0.14098  0  0.119232  0.139382  0  1.023619  0
H  H19  1  0.80826113  0.35878200  0.42710874  1  0  0.133175  0  0.958236  0  0  0.142436  0  1.020536  0  0  0.14654  0  1.01645  0  0.140991  0  0.119243  0.139385  0  1.02363  0
H  H20  1  0.48084829  0.83051130  0.88174583  1  0  0.105546  0  0.934487  0  0  0.11059  0  1.001635  0  0  0.114854  0  0.997029  0  0.154749  0  0.120751  0.107479  0  1.004963  0
H  H21  1  0.01914507  0.33050627  0.61825339  1  0  0.105526  0  0.934442  0  0  0.110557  0  1.001603  0  0  0.114826  0  0.996999  0  0.15524  0  0.120712  0.107443  0  1.004938  0
H  H22  1  0.51914343  0.16949250  0.11825703  1  0  0.105539  0  0.934352  0  0  0.110537  0  1.001568  0  0  0.114801  0  0.996962  0  0.154715  0  0.120706  0.107424  0  1.004903  0
H  H23  1  0.98086039  0.66949284  0.38174408  1  0  0.105533  0  0.934368  0  0  0.110537  0  1.001579  0  0  0.114804  0  0.996976  0  0.154727  0  0.120709  0.107426  0  1.004908  0
H  H24  1  0.41826291  0.26233077  0.99701268  1  0  0.082676  0  0.931653  0  0  0.090396  0  0.99971  0  0  0.090758  0  0.997985  0  0.122438  0  0.124471  0.09001  0  1.00104  0
H  H25  1  0.08173420  0.76232798  0.50298826  1  0  0.082627  0  0.931644  0  0  0.090389  0  0.999682  0  0  0.090749  0  0.997958  0  0.122469  0  0.12444  0.090001  0  1.001016  0
H  H26  1  0.58173131  0.73767225  0.00298867  1  0  0.08274  0  0.931463  0  0  0.090404  0  0.999623  0  0  0.090767  0  0.997888  0  0.122523  0  0.124414  0.09002  0  1.00096  0
H  H27  1  0.91826127  0.23767426  0.49700782  1  0  0.082688  0  0.931587  0  0  0.090372  0  0.999718  0  0  0.090729  0  0.997997  0  0.122442  0  0.124452  0.089985  0  1.001048  0
H  H28  1  0.58395280  0.35576651  0.98804505  1  0  0.05801  0  0.901351  0  0  0.070109  0  0.961335  0  0  0.07053  0  0.958847  0  0.097472  0  0.12151  0.069605  0  0.963346  0
H  H29  1  0.91604602  0.85576372  0.51195696  1  0  0.057973  0  0.90133  0  0  0.070114  0  0.9613  0  0  0.070516  0  0.958827  0  0.09754  0  0.121521  0.069609  0  0.963312  0
H  H30  1  0.41603392  0.64423651  0.01195341  1  0  0.057901  0  0.901362  0  0  0.070116  0  0.961252  0  0  0.070476  0  0.958823  0  0.097507  0  0.121497  0.069616  0  0.963265  0
H  H31  1  0.08395070  0.14423461  0.48804501  1  0  0.057945  0  0.90131  0  0  0.070079  0  0.961293  0  0  0.070497  0  0.958808  0  0.097533  0  0.121512  0.069574  0  0.963306  0
H  H32  1  0.56890088  0.51299918  0.92644990  1  0  0.120753  0  0.931933  0  0  0.131443  0  0.992745  0  0  0.135061  0  0.989564  0  0.108991  0  0.116092  0.128807  0  0.995054  0
H  H33  1  0.93110919  0.01299650  0.57354928  1  0  0.120728  0  0.931849  0  0  0.13146  0  0.992631  0  0  0.135082  0  0.989442  0  0.108971  0  0.116106  0.128823  0  0.99494  0
H  H34  1  0.43110209  0.48699602  0.07355120  1  0  0.120715  0  0.931983  0  0  0.131428  0  0.992762  0  0  0.135045  0  0.989581  0  0.108933  0  0.116104  0.128792  0  0.995069  0
H  H35  1  0.06889877  0.98700261  0.42644986  1  0  0.120695  0  0.931934  0  0  0.131346  0  0.99279  0  0  0.134963  0  0.989614  0  0.109016  0  0.116077  0.12871  0  0.995098  0
H  H36  1  0.76149108  0.52946084  0.72035915  1  0  0.084808  0  0.955502  0  0  0.089122  0  1.026991  0  0  0.091922  0  1.024526  0  0.118112  0  0.113031  0.087052  0  1.02885  0
H  H37  1  0.73851649  0.02946597  0.77964208  1  0  0.084698  0  0.955624  0  0  0.089093  0  1.027036  0  0  0.09189  0  1.024558  0  0.118407  0  0.113009  0.087024  0  1.028895  0
H  H38  1  0.23850814  0.47053514  0.27964183  1  0  0.084769  0  0.955577  0  0  0.089169  0  1.026975  0  0  0.091962  0  1.024499  0  0.118285  0  0.113047  0.087104  0  1.028829  0
H  H39  1  0.26149522  0.97053548  0.22035772  1  0  0.084782  0  0.955566  0  0  0.089122  0  1.027015  0  0  0.091914  0  1.024536  0  0.118257  0  0.113027  0.087053  0  1.028874  0
H  H40  1  0.47022560  0.27286388  0.76674014  1  0  0.121296  0  0.914016  0  0  0.129066  0  0.974345  0  0  0.132745  0  0.970557  0  0.142665  0  0.127982  0.126316  0  0.97723  0
H  H41  1  0.02977026  0.77286109  0.73326130  1  0  0.121323  0  0.913953  0  0  0.12909  0  0.974291  0  0  0.13277  0  0.970502  0  0.142959  0  0.127984  0.126337  0  0.977176  0
H  H42  1  0.52976736  0.72713444  0.23325905  1  0  0.121334  0  0.914049  0  0  0.129096  0  0.974379  0  0  0.132775  0  0.970592  0  0.143075  0  0.128004  0.126343  0  0.977262  0
H  H43  1  0.97023646  0.22713958  0.26673993  1  0  0.121292  0  0.914063  0  0  0.129045  0  0.974402  0  0  0.132723  0  0.970615  0  0.142957  0  0.12797  0.12629  0  0.977286  0
C  C44  1  0.70057244  0.04401949  0.91654277  1  0  0.017229  0  3.685923  0  0  -0.027055  0  3.947977  0  0  -0.021551  0  3.962739  0  0.497271  0  0.035486  -0.030501  0  3.938071  0
C  C45  1  0.79942388  0.54401669  0.58345916  1  0  0.017461  0  3.685706  0  0  -0.026912  0  3.947785  0  0  -0.021409  0  3.962555  0  0.497187  0  0.035549  -0.030362  0  3.937885  0
C  C46  1  0.29942428  0.95598666  0.08346026  1  0  0.017509  0  3.685751  0  0  -0.026893  0  3.947916  0  0  -0.021396  0  3.962679  0  0.497189  0  0.035637  -0.030338  0  3.938015  0
C  C47  1  0.20057783  0.45598320  0.41654190  1  0  0.017433  0  3.685833  0  0  -0.026863  0  3.947969  0  0  -0.021365  0  3.962729  0  0.497177  0  0.035562  -0.03031  0  3.93807  0
C  C48  1  0.57666860  0.11749713  0.92811775  1  0  0.234528  0  3.812155  0  0  0.231097  0  4.078247  0  0  0.236567  0  4.096181  0  0.452015  0  0.089739  0.226741  0  4.066387  0
C  C49  1  0.92333147  0.61749355  0.57188376  1  0  0.234232  0  3.812141  0  0  0.230957  0  4.078103  0  0  0.236426  0  4.096046  0  0.452775  0  0.089705  0.226593  0  4.066245  0
C  C50  1  0.42332686  0.88251058  0.07188311  1  0  0.234352  0  3.81229  0  0  0.230972  0  4.078365  0  0  0.236452  0  4.096295  0  0.452452  0  0.089685  0.226607  0  4.066515  0
C  C51  1  0.07667025  0.38250634  0.42811518  1  0  0.23439  0  3.812377  0  0  0.230959  0  4.078472  0  0  0.236448  0  4.096392  0  0.452761  0  0.089735  0.226589  0  4.066625  0
C  C52  1  0.40967805  0.08647023  0.92068921  1  0  -0.14047  0  3.673159  0  0  -0.180095  0  3.921236  0  0  -0.178626  0  3.938539  0  -0.004468  0  -0.075475  -0.18059  0  3.909623  0
C  C53  1  0.09032156  0.58646587  0.57931446  1  0  -0.140347  0  3.673218  0  0  -0.180026  0  3.921308  0  0  -0.178545  0  3.938603  0  -0.004488  0  -0.075476  -0.180514  0  3.909679  0
C  C54  1  0.59031617  0.91353514  0.07931479  1  0  -0.140372  0  3.673333  0  0  -0.180025  0  3.921381  0  0  -0.178546  0  3.938661  0  -0.004137  0  -0.07547  -0.180507  0  3.90975  0
C  C55  1  0.90968265  0.41353480  0.42068456  1  0  -0.140429  0  3.673337  0  0  -0.180039  0  3.921419  0  0  -0.178555  0  3.938681  0  -0.004474  0  -0.075487  -0.180522  0  3.909791  0
C  C56  1  0.37390426  0.98164026  0.90484242  1  0  -0.075916  0  3.746176  0  0  -0.047033  0  3.980753  0  0  -0.057519  0  4.004021  0  -0.066819  0  -0.009621  -0.040585  0  3.965419  0
C  C57  1  0.12609409  0.48163679  0.59516016  1  0  -0.075919  0  3.746194  0  0  -0.047087  0  3.98086  0  0  -0.057573  0  4.004127  0  -0.066857  0  -0.009646  -0.040638  0  3.965528  0
C  C58  1  0.62609370  0.01836354  0.09515906  1  0  -0.076046  0  3.746157  0  0  -0.047131  0  3.980692  0  0  -0.057617  0  4.003961  0  -0.066989  0  -0.00966  -0.040682  0  3.965359  0
C  C59  1  0.87390637  0.51836310  0.40483927  1  0  -0.075956  0  3.746084  0  0  -0.047122  0  3.980709  0  0  -0.057609  0  4.003981  0  -0.066983  0  -0.009658  -0.040672  0  3.965376  0
C  C60  1  0.19653841  0.94261088  0.90116790  1  0  0.643435  0  3.935744  0  0  0.591424  0  4.229725  0  0  0.625905  0  4.224607  0  1.616946  0  0.199406  0.568185  0  4.232204  0
C  C61  1  0.30345370  0.44260663  0.59883023  1  0  0.643376  0  3.935717  0  0  0.591374  0  4.229708  0  0  0.625854  0  4.224592  0  1.616741  0  0.199366  0.568133  0  4.232186  0
C  C62  1  0.80345581  0.05739136  0.09882921  1  0  0.643496  0  3.935752  0  0  0.591494  0  4.229707  0  0  0.625974  0  4.224589  0  1.616652  0  0.199437  0.568254  0  4.232187  0
C  C63  1  0.69654802  0.55739326  0.40116925  1  0  0.643386  0  3.935751  0  0  0.591407  0  4.229709  0  0  0.625886  0  4.224596  0  1.616724  0  0.199374  0.568166  0  4.232187  0
C  C64  1  0.50478494  0.91253727  0.89440791  1  0  0.099163  0  3.667775  0  0  0.05088  0  3.927757  0  0  0.059583  0  3.94326  0  0.504475  0  0.042497  0.045288  0  3.917215  0
C  C65  1  0.99521264  0.41253459  0.60559299  1  0  0.099207  0  3.667716  0  0  0.051008  0  3.927633  0  0  0.059703  0  3.943142  0  0.503929  0  0.042573  0.045416  0  3.91709  0
C  C66  1  0.49521428  0.08746575  0.10559519  1  0  0.099347  0  3.667454  0  0  0.05114  0  3.927362  0  0  0.059845  0  3.942863  0  0.50453  0  0.042664  0.045547  0  3.91682  0
C  C67  1  0.00478908  0.58746530  0.39440648  1  0  0.099235  0  3.667541  0  0  0.05103  0  3.927491  0  0  0.059726  0  3.943001  0  0.50458  0  0.042572  0.045437  0  3.916949  0
C  C68  1  0.51032243  0.29227065  0.96202474  1  0  0.259184  0  3.615662  0  0  0.178258  0  3.907123  0  0  0.194532  0  3.904226  0  0.879029  0  0.031873  0.167097  0  3.909056  0
C  C69  1  0.98967764  0.79226630  0.53797731  1  0  0.259199  0  3.615569  0  0  0.178269  0  3.907133  0  0  0.194516  0  3.904226  0  0.879044  0  0.031898  0.167098  0  3.909066  0
C  C70  1  0.48967054  0.70773080  0.03797551  1  0  0.259101  0  3.615344  0  0  0.178074  0  3.906943  0  0  0.194386  0  3.904029  0  0.878972  0  0.03187  0.166894  0  3.908898  0
C  C71  1  0.01032282  0.20773359  0.46202266  1  0  0.259301  0  3.615453  0  0  0.178391  0  3.907057  0  0  0.19462  0  3.904154  0  0.879013  0  0.031921  0.167225  0  3.908991  0
C  C72  1  0.51088842  0.38399453  0.85342974  1  0  0.216715  0  3.808222  0  0  0.213636  0  4.076637  0  0  0.217359  0  4.094927  0  0.467962  0  0.083299  0.210507  0  4.064496  0
C  C73  1  0.98911665  0.88399409  0.64657141  1  0  0.216595  0  3.808482  0  0  0.213631  0  4.076849  0  0  0.217301  0  4.095149  0  0.467888  0  0.0833  0.210501  0  4.064709  0
C  C74  1  0.48910954  0.61600379  0.14657120  1  0  0.216774  0  3.808121  0  0  0.213601  0  4.076658  0  0  0.217312  0  4.094951  0  0.467816  0  0.083325  0.210475  0  4.064515  0
C  C75  1  0.01089256  0.11600815  0.35342778  1  0  0.216588  0  3.808118  0  0  0.213473  0  4.076641  0  0  0.217138  0  4.094944  0  0.467033  0  0.083239  0.210345  0  4.064498  0
C  C76  1  0.58258217  0.47950733  0.87403668  1  0  -0.129061  0  3.69593  0  0  -0.16784  0  3.9428  0  0  -0.165877  0  3.960207  0  -0.096426  0  -0.070621  -0.168728  0  3.931122  0
C  C77  1  0.91742165  0.97950767  0.62596390  1  0  -0.129045  0  3.695995  0  0  -0.167869  0  3.942827  0  0  -0.165913  0  3.960249  0  -0.096252  0  -0.070633  -0.168753  0  3.931142  0
C  C78  1  0.41741829  0.52048943  0.12596382  1  0  -0.129138  0  3.696014  0  0  -0.167909  0  3.942915  0  0  -0.165943  0  3.960319  0  -0.096026  0  -0.070693  -0.168795  0  3.931235  0
C  C79  1  0.08258756  0.02049378  0.37403529  1  0  -0.128969  0  3.695946  0  0  -0.167657  0  3.942828  0  0  -0.1657  0  3.960254  0  -0.09637  0  -0.07058  -0.168544  0  3.931148  0
C  C80  1  0.67508399  0.53310977  0.82591845  1  0  -0.066134  0  3.752174  0  0  -0.037487  0  3.982555  0  0  -0.048424  0  4.005755  0  0.099153  0  -0.006635  -0.03073  0  3.967237  0
C  C81  1  0.82492108  0.03311100  0.67408004  1  0  -0.066108  0  3.752118  0  0  -0.037452  0  3.982524  0  0  -0.048395  0  4.005723  0  0.099138  0  -0.006621  -0.030694  0  3.967207  0
C  C82  1  0.32491647  0.46688464  0.17407992  1  0  -0.066034  0  3.752153  0  0  -0.037385  0  3.98252  0  0  -0.048328  0  4.005716  0  0.09895  0  -0.006606  -0.030626  0  3.967201  0
C  C83  1  0.17509063  0.96689046  0.32592082  1  0  -0.06611  0  3.752326  0  0  -0.037469  0  3.982668  0  0  -0.048412  0  4.005863  0  0.098929  0  -0.006618  -0.030712  0  3.967351  0
C  C84  1  0.68857538  0.48959547  0.75857675  1  0  0.112748  0  3.683656  0  0  0.069604  0  3.935602  0  0  0.077367  0  3.953904  0  0.456966  0  0.049476  0.064566  0  3.923283  0
C  C85  1  0.81143219  0.98959816  0.74142447  1  0  0.112792  0  3.683679  0  0  0.069572  0  3.93563  0  0  0.077365  0  3.953904  0  0.456637  0  0.049462  0.064531  0  3.923314  0
C  C86  1  0.31142509  0.51039816  0.24142321  1  0  0.112719  0  3.683843  0  0  0.069518  0  3.935778  0  0  0.077311  0  3.954054  0  0.456696  0  0.049454  0.064463  0  3.923484  0
C  C87  1  0.18858077  0.01040408  0.25857589  1  0  0.112727  0  3.683869  0  0  0.069599  0  3.935778  0  0  0.077397  0  3.954046  0  0.456833  0  0.049475  0.064557  0  3.923464  0
C  C88  1  0.52659755  0.34678963  0.78463314  1  0  0.048558  0  3.648953  0  0  0.00356  0  3.907078  0  0  0.010684  0  3.9214  0  0.570736  0  0.047144  -0.000969  0  3.897382  0
C  C89  1  0.97340377  0.84678996  0.71536735  1  0  0.048592  0  3.649001  0  0  0.003586  0  3.907095  0  0  0.010702  0  3.921435  0  0.570401  0  0.047134  -0.000938  0  3.897397  0
C  C90  1  0.47339917  0.65320870  0.21536935  1  0  0.048495  0  3.648825  0  0  0.003541  0  3.906965  0  0  0.010658  0  3.921299  0  0.570257  0  0.047141  -0.000981  0  3.897262  0
C  C91  1  0.02660419  0.15321306  0.28462967  1  0  0.048584  0  3.648831  0  0  0.003664  0  3.906924  0  0  0.010778  0  3.921265  0  0.571343  0  0.047194  -0.000859  0  3.897223  0
C  C92  1  0.75677322  0.63580392  0.84539111  1  0  0.626241  0  3.972777  0  0  0.581873  0  4.256313  0  0  0.616507  0  4.251291  0  1.565218  0  0.188006  0.558484  0  4.258766  0
C  C93  1  0.74323060  0.13580515  0.65460575  1  0  0.626222  0  3.972833  0  0  0.581841  0  4.256384  0  0  0.616471  0  4.251366  0  1.564681  0  0.187941  0.558452  0  4.258838  0
C  C94  1  0.24322725  0.36419284  0.15460832  1  0  0.62612  0  3.973103  0  0  0.581761  0  4.256627  0  0  0.616393  0  4.251609  0  1.564645  0  0.187911  0.558374  0  4.259077  0
C  C95  1  0.25677736  0.86419787  0.34539233  1  0  0.626244  0  3.972959  0  0  0.581878  0  4.256487  0  0  0.616509  0  4.251472  0  1.565066  0  0.188012  0.558488  0  4.258939  0
N  N96  1  0.66490236  0.94420387  0.90007805  1  0  -0.312096  0  3.299941  0  0  -0.231662  0  3.572226  0  0  -0.25186  0  3.592942  0  -1.226029  0  -0.327434  -0.217837  0  3.557737  0
N  N97  1  0.83509521  0.44420040  0.59992126  1  0  -0.312248  0  3.300009  0  0  -0.23185  0  3.572388  0  0  -0.252053  0  3.59311  0  -1.226008  0  -0.327506  -0.218025  0  3.5579  0
N  N98  1  0.33509686  0.05580228  0.09992240  1  0  -0.312293  0  3.299922  0  0  -0.231868  0  3.57231  0  0  -0.252066  0  3.593022  0  -1.226093  0  -0.327568  -0.218042  0  3.55782  0
N  N99  1  0.16490650  0.55579949  0.40007768  1  0  -0.3122  0  3.30001  0  0  -0.231779  0  3.572348  0  0  -0.25198  0  3.593066  0  -1.226028  0  -0.327465  -0.217954  0  3.557861  0
N  N100  1  0.61341570  0.39975784  0.73808522  1  0  -0.312131  0  3.266851  0  0  -0.237593  0  3.537421  0  0  -0.25761  0  3.55772  0  -1.217135  0  -0.319463  -0.223923  0  3.52319  0
N  N101  1  0.88658562  0.89975974  0.76191421  1  0  -0.312155  0  3.266962  0  0  -0.237617  0  3.537584  0  0  -0.25764  0  3.557877  0  -1.217166  0  -0.319449  -0.223946  0  3.523354  0
N  N102  1  0.38657852  0.60023423  0.26191401  1  0  -0.312145  0  3.267024  0  0  -0.23762  0  3.537625  0  0  -0.257643  0  3.557923  0  -1.217156  0  -0.319521  -0.223945  0  3.523389  0
N  N103  1  0.11342858  0.10024171  0.23808566  1  0  -0.312173  0  3.267149  0  0  -0.237671  0  3.537727  0  0  -0.257693  0  3.558018  0  -1.217222  0  -0.319541  -0.224  0  3.523497  0
O  O104  1  0.63287688  0.21530908  0.94746287  1  0  -0.316576  0  2.303842  0  0  -0.254045  0  2.541105  0  0  -0.272443  0  2.541902  0  -1.065663  0  -0.184049  -0.240957  0  2.54023  0
O  O105  1  0.86712195  0.71530551  0.55253914  1  0  -0.31643  0  2.303809  0  0  -0.253974  0  2.541075  0  0  -0.272386  0  2.541888  0  -1.066387  0  -0.184048  -0.240864  0  2.540191  0
O  O106  1  0.36711984  0.78469472  0.05254069  1  0  -0.316444  0  2.303674  0  0  -0.253902  0  2.540943  0  0  -0.272297  0  2.541717  0  -1.066332  0  -0.184015  -0.2408  0  2.54007  0
O  O107  1  0.13287852  0.28469438  0.44745923  1  0  -0.316525  0  2.303809  0  0  -0.253958  0  2.541062  0  0  -0.27237  0  2.541869  0  -1.066391  0  -0.184043  -0.240855  0  2.540184  0
O  O108  1  0.41947861  0.32555135  0.89871401  1  0  -0.309126  0  2.271007  0  0  -0.248309  0  2.503213  0  0  -0.264204  0  2.502021  0  -1.079424  0  -0.192128  -0.236945  0  2.503761  0
O  O109  1  0.08051475  0.82554543  0.60128787  1  0  -0.308961  0  2.271064  0  0  -0.248326  0  2.503404  0  0  -0.264098  0  2.502142  0  -1.079361  0  -0.192102  -0.236962  0  2.503954  0
O  O110  1  0.58051311  0.67444463  0.10128673  1  0  -0.309011  0  2.270917  0  0  -0.248165  0  2.503195  0  0  -0.264034  0  2.501975  0  -1.079278  0  -0.192066  -0.236805  0  2.503757  0
O  O111  1  0.91948696  0.17445055  0.39871054  1  0  -0.309023  0  2.271008  0  0  -0.248345  0  2.503384  0  0  -0.264115  0  2.502125  0  -1.079292  0  -0.192117  -0.236983  0  2.503934  0
O  O112  1  0.87951258  0.66510489  0.81178262  1  0  -0.627232  0  1.914429  0  0  -0.574294  0  2.13269  0  0  -0.601535  0  2.122913  0  -1.158311  0  -0.33291  -0.555141  0  2.138665  0
O  O113  1  0.62048249  0.16510064  0.68821077  1  0  -0.627224  0  1.914434  0  0  -0.57428  0  2.132699  0  0  -0.601522  0  2.122922  0  -1.158022  0  -0.332861  -0.555127  0  2.138675  0
O  O114  1  0.12046789  0.33489891  0.18820502  1  0  -0.627123  0  1.914413  0  0  -0.574184  0  2.132671  0  0  -0.601426  0  2.122896  0  -1.157783  0  -0.332806  -0.55503  0  2.138642  0
O  O115  1  0.37951797  0.83489612  0.31178495  1  0  -0.627189  0  1.914479  0  0  -0.574248  0  2.132742  0  0  -0.601492  0  2.122967  0  -1.15807  0  -0.33288  -0.555095  0  2.138716  0
O  O116  1  0.69712775  0.68897233  0.89506078  1  0  -0.644689  0  1.94623  0  0  -0.585255  0  2.178442  0  0  -0.615282  0  2.16933  0  -1.168754  0  -0.33648  -0.564142  0  2.183796  0
O  O117  1  0.80288107  0.18897356  0.60493943  1  0  -0.644666  0  1.946293  0  0  -0.585228  0  2.178511  0  0  -0.615256  0  2.169401  0  -1.168535  0  -0.336464  -0.564115  0  2.183866  0
O  O118  1  0.30289520  0.31101739  0.10494946  1  0  -0.644642  0  1.946483  0  0  -0.585225  0  2.178697  0  0  -0.615251  0  2.169581  0  -1.168576  0  -0.336452  -0.564112  0  2.18405  0
O  O119  1  0.19712690  0.81102789  0.39505971  1  0  -0.644695  0  1.946265  0  0  -0.58527  0  2.17848  0  0  -0.615299  0  2.16937  0  -1.168705  0  -0.336473  -0.564157  0  2.183835  0
O  O120  1  0.17239561  0.84689554  0.88448250  1  0  -0.622722  0  1.958976  0  0  -0.560037  0  2.191791  0  0  -0.589177  0  2.181585  0  -1.140035  0  -0.328222  -0.539657  0  2.198033  0
O  O121  1  0.32759526  0.34689129  0.61551877  1  0  -0.622777  0  1.958841  0  0  -0.560091  0  2.191658  0  0  -0.589231  0  2.181452  0  -1.13976  0  -0.328218  -0.539711  0  2.197902  0
O  O122  1  0.82759986  0.15310748  0.11551836  1  0  -0.622817  0  1.958955  0  0  -0.560135  0  2.191757  0  0  -0.589275  0  2.18155  0  -1.139682  0  -0.328276  -0.539754  0  2.198001  0
O  O123  1  0.67240521  0.65310782  0.38448172  1  0  -0.622735  0  1.958886  0  0  -0.560058  0  2.191689  0  0  -0.589198  0  2.181485  0  -1.139731  0  -0.328202  -0.539678  0  2.197933  0
O  O124  1  0.08074840  0.00539051  0.91539383  1  0  -0.657251  0  1.997252  0  0  -0.596488  0  2.225404  0  0  -0.624432  0  2.216189  0  -1.201889  0  -0.324406  -0.576783  0  2.231054  0
O  O125  1  0.41924871  0.50538537  0.58460552  1  0  -0.657163  0  1.997324  0  0  -0.596381  0  2.22548  0  0  -0.624326  0  2.216265  0  -1.201835  0  -0.324344  -0.576673  0  2.231129  0
O  O126  1  0.91924582  0.99461095  0.08460593  1  0  -0.657174  0  1.997213  0  0  -0.596446  0  2.225373  0  0  -0.624389  0  2.216161  0  -1.201894  0  -0.324367  -0.576742  0  2.231024  0
O  O127  1  0.58075300  0.49461296  0.41539289  1  0  -0.657205  0  1.997255  0  0  -0.596441  0  2.225385  0  0  -0.624386  0  2.216171  0  -1.201845  0  -0.324383  -0.576735  0  2.231034  0
O  O128  1  0.93422903  0.81451573  0.01033257  1  0  -0.8164  0  1.823475  0  0  -0.761309  0  2.009832  0  0  -0.781423  0  1.977629  0  -1.216958  0  -0.583013  -0.74711  0  2.031598  0
O  O129  1  0.56576605  0.31451618  0.48966613  1  0  -0.816341  0  1.823427  0  0  -0.761246  0  2.00979  0  0  -0.78136  0  1.97764  0  -1.216965  0  -0.582972  -0.747046  0  2.031556  0
O  O130  1  0.06576644  0.18548416  0.98966829  1  0  -0.81636  0  1.823408  0  0  -0.761291  0  2.00977  0  0  -0.781406  0  1.977606  0  -1.217019  0  -0.582975  -0.74709  0  2.031537  0
O  O131  1  0.43423192  0.68547668  0.51033269  1  0  -0.816384  0  1.823377  0  0  -0.761199  0  2.009811  0  0  -0.781315  0  1.977646  0  -1.217012  0  -0.583008  -0.746998  0  2.031578  0
