# generated using pymatgen
data_Zn2H15C24O11
_symmetry_space_group_name_H-M   'P 1'
_cell_length_a   12.45519982
_cell_length_b   15.12858535
_cell_length_c   26.12030240
_cell_angle_alpha   90.29524221
_cell_angle_beta   78.12696150
_cell_angle_gamma   90.01943915
_symmetry_Int_Tables_number   1
_chemical_formula_structural   Zn2H15C24O11
_chemical_formula_sum   'Zn8 H60 C96 O44'
_cell_volume   4816.47344098
_cell_formula_units_Z   4
loop_
 _symmetry_equiv_pos_site_id
 _symmetry_equiv_pos_as_xyz
  1  'x, y, z'
loop_
 _atom_site_type_symbol
 _atom_site_label
 _atom_site_symmetry_multiplicity
 _atom_site_fract_x
 _atom_site_fract_y
 _atom_site_fract_z
 _atom_site_occupancy
 _atom_site_pbe_bader_charge
 _atom_site_pbe_bader_spin_density
 _atom_site_pbe_cm5_charge
 _atom_site_pbe_ddec_charge
 _atom_site_pbe_ddec_spin_density
 _atom_site_pbe_ddec_sum_bond_order
 _atom_site_pbe_magmom
Zn  Zn0  1  0.14888062  0.99077045  0.86913769  1  1.340911  0  0.697861  0.960917  0  2.278364  0
Zn  Zn1  1  0.03981159  0.85413328  0.79090431  1  1.345914  0  0.679329  0.971448  0  2.302626  0
Zn  Zn2  1  0.86448248  0.04189278  0.14702548  1  1.341893  0  0.698547  0.961915  0  2.310292  0
Zn  Zn3  1  0.36962958  0.48746974  0.64499080  1  1.334838  0  0.694415  0.946022  0  2.306841  0
Zn  Zn4  1  0.47801593  0.36068436  0.72113507  1  1.322186  0  0.690398  0.943936  0  2.368285  0
Zn  Zn5  1  0.95591566  0.18871072  0.23847912  1  1.378944  0  0.675387  1.002057  0  2.216669  0
Zn  Zn6  1  0.65686539  0.53833717  0.36638776  1  1.338833  0  0.698281  0.959134  0  2.328548  0
Zn  Zn7  1  0.54373658  0.67111026  0.29227090  1  1.326946  0  0.68256  0.94754  0  2.315767  0
H  H8  1  0.79018249  0.75343391  0.90139697  1  0.10373  0  0.108382  0.118384  0  0.996269  0
H  H9  1  0.91921129  0.94028080  0.99751073  1  0.139122  0  0.115367  0.130921  0  0.992217  0
H  H10  1  0.63515913  0.78583729  0.06415337  1  0.095092  0  0.108035  0.113348  0  0.999052  0
H  H11  1  0.58347320  0.76902573  0.90814684  1  0.063082  0  0.105966  0.114071  0  0.997826  0
H  H12  1  0.72060131  0.64113572  0.05023028  1  0.058192  0  0.102033  0.105872  0  1.02175  0
H  H13  1  0.68134288  0.50717740  0.10190294  1  0.066443  0  0.100204  0.104132  0  1.015805  0
H  H14  1  0.36646198  0.79018458  0.89981645  1  0.099008  0  0.113251  0.12386  0  0.987497  0
H  H15  1  0.50307178  0.54250149  0.83392570  1  0.105817  0  0.107353  0.115495  0  1.001837  0
H  H16  1  0.31049537  0.70157285  0.75073394  1  0.092503  0  0.10882  0.119146  0  1.007903  0
H  H17  1  0.33454905  0.52533095  0.91157471  1  0.063762  0  0.100557  0.103913  0  1.016143  0
H  H18  1  0.29169304  0.39255269  0.96503267  1  0.071286  0  0.10088  0.103565  0  1.018076  0
H  H19  1  0.43085023  0.26473556  0.10686474  1  0.059123  0  0.101233  0.106286  0  1.00708  0
H  H20  1  0.64823439  0.24138478  0.11382577  1  0.098832  0  0.114222  0.125845  0  0.98526  0
H  H21  1  0.51711632  0.49174534  0.17786692  1  0.091892  0  0.108498  0.115216  0  0.999454  0
H  H22  1  0.22547487  0.27989429  0.11593290  1  0.074332  0  0.097725  0.09897  0  1.020142  0
H  H23  1  0.37788727  0.24478398  0.95364194  1  0.116484  0  0.105241  0.101948  0  1.050839  0
H  H24  1  0.70574106  0.33142681  0.26240939  1  0.137256  0  0.111043  0.1261  0  1.005695  0
H  H25  1  0.09550863  0.08964337  0.02160307  1  0.150198  0  0.114932  0.13108  0  0.993371  0
H  H26  1  0.74353909  0.26146332  0.61100460  1  0.104166  0  0.105896  0.109782  0  1.02004  0
H  H27  1  0.61097834  0.43754180  0.51054457  1  0.117038  0  0.114223  0.129524  0  0.993576  0
H  H28  1  0.88194249  0.26798037  0.44575532  1  0.081164  0  0.105701  0.107456  0  1.011195  0
H  H29  1  0.94041617  0.26365681  0.60385220  1  0.075579  0  0.102294  0.106917  0  1.013151  0
H  H30  1  0.79303563  0.13102220  0.46534018  1  0.052656  0  0.10357  0.109267  0  1.013113  0
H  H31  1  0.83305460  0.99764661  0.41213898  1  0.080402  0  0.103241  0.10929  0  1.007367  0
H  H32  1  0.15518889  0.28381110  0.61257692  1  0.090559  0  0.111952  0.122216  0  0.987509  0
H  H33  1  0.01838711  0.03686804  0.67751441  1  0.092712  0  0.103844  0.10594  0  1.011488  0
H  H34  1  0.22082822  0.19095574  0.75882150  1  0.126538  0  0.116866  0.134345  0  0.988127  0
H  H35  1  0.18768516  0.01887435  0.59908446  1  0.058813  0  0.101378  0.105724  0  1.013703  0
H  H36  1  0.22841455  0.88534814  0.54526719  1  0.065448  0  0.101467  0.104663  0  1.016395  0
H  H37  1  0.09070444  0.75870320  0.40242607  1  0.060944  0  0.105835  0.116535  0  0.994832  0
H  H38  1  0.87345830  0.73635490  0.39403860  1  0.108426  0  0.112551  0.123207  0  0.988606  0
H  H39  1  0.00286016  0.98847761  0.33405763  1  0.09543  0  0.107151  0.112599  0  1.001725  0
H  H40  1  0.30208456  0.77272755  0.39898360  1  0.110206  0  0.10785  0.116819  0  0.998621  0
H  H41  1  0.12751177  0.73719609  0.55765915  1  0.080095  0  0.10464  0.102261  0  1.048889  0
H  H42  1  0.80474073  0.83585083  0.24997874  1  0.117082  0  0.107228  0.116842  0  1.017691  0
H  H43  1  0.42184795  0.58829559  0.49897451  1  0.117527  0  0.114322  0.129172  0  0.992842  0
H  H44  1  0.86854242  0.92120327  0.75320132  1  0.610708  0  0.324724  0.403338  0  0.884973  0
H  H45  1  0.05112962  0.76275531  0.70441657  1  0.671716  0  0.284067  0.393969  0  0.949324  0
H  H46  1  0.10076114  0.83387568  0.63264915  1  0.602764  0  0.306423  0.379688  0  0.924475  0
H  H47  1  0.84720330  0.81991407  0.75080227  1  0.60373  0  0.332729  0.411508  0  0.865983  0
H  H48  1  0.10424714  0.71057627  0.74593338  1  0.622122  0  0.3289  0.414564  0  0.860593  0
H  H49  1  0.12527902  0.72938994  0.63388376  1  0.646271  0  0.281027  0.380316  0  0.969917  0
H  H50  1  0.35938924  0.69137099  0.25573344  1  0.615174  0  0.305135  0.389243  0  0.915151  0
H  H51  1  0.52396229  0.81877334  0.24531976  1  0.616579  0  0.339098  0.417116  0  0.850261  0
H  H52  1  0.70362871  0.78367435  0.14787988  1  0.656659  0  0.284963  0.384985  0  0.963162  0
H  H53  1  0.35453909  0.59330708  0.27199230  1  0.618712  0  0.312099  0.396711  0  0.898874  0
H  H54  1  0.58751744  0.74491174  0.20420167  1  0.644247  0  0.284132  0.396079  0  0.945661  0
H  H55  1  0.73874134  0.71520607  0.18833523  1  0.589871  0  0.316608  0.396377  0  0.894405  0
H  H56  1  0.11953254  0.11492903  0.25862708  1  0.633126  0  0.318671  0.407801  0  0.892322  0
H  H57  1  0.00869752  0.32877349  0.18729332  1  0.617152  0  0.315607  0.404042  0  0.89769  0
H  H58  1  0.99092907  0.23917230  0.32744751  1  0.625321  0  0.326216  0.409598  0  0.868891  0
H  H59  1  0.17148958  0.19389716  0.22416542  1  0.620243  0  0.327281  0.411057  0  0.869474  0
H  H60  1  0.91469286  0.36844775  0.23103175  1  0.609849  0  0.331247  0.413364  0  0.868052  0
H  H61  1  0.86771266  0.26867460  0.33934319  1  0.674494  0  0.301262  0.420286  0  0.894866  0
H  H62  1  0.61746084  0.27985152  0.75925681  1  0.639908  0  0.296816  0.396949  0  0.924306  0
H  H63  1  0.38461916  0.22902161  0.87362150  1  0.652117  0  0.285178  0.395413  0  0.943796  0
H  H64  1  0.78943795  0.35558788  0.72786201  1  0.604943  0  0.326006  0.398324  0  0.884524  0
H  H65  1  0.50177439  0.27545464  0.80479966  1  0.666874  0  0.289544  0.415324  0  0.912711  0
H  H66  1  0.41083473  0.33248458  0.87607017  1  0.611501  0  0.308247  0.377158  0  0.926797  0
H  H67  1  0.71299938  0.33101471  0.68927934  1  0.629904  0  0.292208  0.377263  0  0.957134  0
C  C68  1  0.95047416  0.87329718  0.89918240  1  1.550121  0  0.224254  0.607276  0  4.17011  0
C  C69  1  0.86305655  0.84899636  0.94496999  1  0.036213  0  -0.017049  -0.030652  0  3.998142  0
C  C70  1  0.78495496  0.78525584  0.93935499  1  -0.079366  0  -0.074074  -0.127776  0  3.909316  0
C  C71  1  0.85908190  0.89005066  0.99325917  1  -0.040297  0  -0.068606  -0.091445  0  3.905628  0
C  C72  1  0.70153959  0.76192065  0.98180053  1  0.006923  0  -0.005893  0.068106  0  4.010029  0
C  C73  1  0.77817601  0.86586200  0.03640823  1  -0.013206  0  -0.019701  -0.041992  0  3.994432  0
C  C74  1  0.61890764  0.69602278  0.97307405  1  -0.002555  0  -0.002622  0.033295  0  3.978785  0
C  C75  1  0.69953977  0.80240804  0.03054627  1  -0.081515  0  -0.072646  -0.130956  0  3.91866  0
C  C76  1  0.77752482  0.90925344  0.08833261  1  1.58466  0  0.216038  0.594028  0  4.197463  0
C  C77  1  0.59812522  0.61758567  0.00297047  1  -0.02983  0  -0.005746  0.027721  0  3.993127  0
C  C78  1  0.56527188  0.70934472  0.93163512  1  -0.013365  0  -0.08914  -0.183163  0  3.991711  0
C  C79  1  0.51960121  0.55519129  0.99142821  1  -0.001048  0  0.002942  0.010241  0  3.906857  0
C  C80  1  0.65665730  0.59654067  0.04301585  1  -0.009393  0  -0.091817  -0.122116  0  4.017899  0
C  C81  1  0.49078403  0.64842987  0.91867044  1  -0.066299  0  -0.005862  0.025831  0  3.99253  0
C  C82  1  0.46482450  0.57120018  0.94930252  1  0.037226  0  -0.00724  0.028368  0  3.99812  0
C  C83  1  0.63454345  0.52153703  0.07200923  1  -0.069958  0  -0.09509  -0.130998  0  4.026865  0
C  C84  1  0.44177135  0.66467647  0.87245520  1  0.040085  0  -0.003667  0.071225  0  4.015619  0
C  C85  1  0.38051668  0.74111618  0.86843192  1  -0.040943  0  -0.066876  -0.116492  0  3.882575  0
C  C86  1  0.45568601  0.60236958  0.83175761  1  -0.065826  0  -0.074622  -0.127899  0  3.918613  0
C  C87  1  0.33226138  0.75401753  0.82507104  1  -0.033353  0  -0.017009  -0.032167  0  3.976179  0
C  C88  1  0.40934032  0.61553823  0.78788220  1  -0.049758  0  -0.021623  -0.041089  0  3.995537  0
C  C89  1  0.25683745  0.83081047  0.82391614  1  1.579638  0  0.22243  0.610022  0  4.173958  0
C  C90  1  0.34745616  0.69154558  0.78456318  1  0.019045  0  -0.072939  -0.098695  0  3.920386  0
C  C91  1  0.42193231  0.54550387  0.74657919  1  1.566074  0  0.226921  0.61422  0  4.161335  0
C  C92  1  0.49611563  0.47653678  0.02193642  1  -0.03961  0  0.002794  0.007836  0  3.908109  0
C  C93  1  0.38174453  0.51025651  0.94125415  1  0.004786  0  -0.094846  -0.13337  0  4.034175  0
C  C94  1  0.55180556  0.46066119  0.06376006  1  0.022662  0  -0.006263  0.028631  0  4.006671  0
C  C95  1  0.41623182  0.41461284  0.01120536  1  0.001031  0  -0.007135  0.033726  0  3.983607  0
C  C96  1  0.35802569  0.43592274  0.97098401  1  -0.119504  0  -0.096233  -0.140898  0  4.03837  0
C  C97  1  0.52561870  0.38399048  0.09469791  1  -0.04555  0  -0.009805  0.022591  0  4.008408  0
C  C98  1  0.39391205  0.33736222  0.04219020  1  0.058379  0  -0.005691  0.029116  0  3.978842  0
C  C99  1  0.57545165  0.36793907  0.14049305  1  -0.016254  0  -0.002186  0.074664  0  4.019667  0
C  C100  1  0.44916267  0.32397851  0.08298710  1  -0.06505  0  -0.092868  -0.185541  0  4.01013  0
C  C101  1  0.31058288  0.27109267  0.03515314  1  0.006971  0  -0.008114  0.074869  0  4.009616  0
C  C102  1  0.63522256  0.29097338  0.14491550  1  0.00272  0  -0.068912  -0.119434  0  3.887994  0
C  C103  1  0.56280911  0.43118596  0.18066452  1  -0.064223  0  -0.071394  -0.124235  0  3.921779  0
C  C104  1  0.22925824  0.24699770  0.07836176  1  -0.04026  0  -0.08553  -0.144346  0  3.951523  0
C  C105  1  0.31270793  0.22896151  0.98700199  1  -0.093866  0  -0.075844  -0.132896  0  3.919396  0
C  C106  1  0.68287124  0.27821751  0.18849762  1  -0.035204  0  -0.021945  -0.042612  0  4.010636  0
C  C107  1  0.60942405  0.41814951  0.22429111  1  -0.006444  0  -0.022961  -0.043333  0  4.018789  0
C  C108  1  0.15243287  0.18144805  0.07390691  1  -0.008909  0  -0.025075  -0.046352  0  4.001116  0
C  C109  1  0.23475923  0.16475676  0.98162565  1  -0.029696  0  -0.016033  -0.032114  0  3.968347  0
C  C110  1  0.75465650  0.20011841  0.19122131  1  1.561418  0  0.221681  0.605643  0  4.188994  0
C  C111  1  0.66952276  0.34151287  0.22833556  1  -0.053462  0  -0.077196  -0.111092  0  3.938595  0
C  C112  1  0.59949621  0.48740692  0.26555466  1  1.567639  0  0.226746  0.614337  0  4.161261  0
C  C113  1  0.06653399  0.15501409  0.12039329  1  1.55475  0  0.220837  0.61148  0  4.17033  0
C  C114  1  0.15532708  0.14040554  0.02540240  1  -0.028169  0  -0.068639  -0.087325  0  3.888197  0
C  C115  1  0.23620225  0.12225795  0.92899923  1  1.591716  0  0.213481  0.587012  0  4.206917  0
C  C116  1  0.58540141  0.38387740  0.61199040  1  1.530758  0  0.229779  0.611448  0  4.152421  0
C  C117  1  0.66939032  0.35384418  0.56588878  1  -0.009258  0  -0.022697  -0.047722  0  4.009593  0
C  C118  1  0.74585057  0.28928374  0.57242108  1  -0.057282  0  -0.079029  -0.134067  0  3.926768  0
C  C119  1  0.67005709  0.38728940  0.51592760  1  -0.006026  0  -0.068769  -0.087837  0  3.890913  0
C  C120  1  0.82325573  0.25730441  0.52971000  1  0.00997  0  -0.005307  0.072432  0  4.008477  0
C  C121  1  0.74651912  0.35573474  0.47264134  1  0.025081  0  -0.014882  -0.031089  0  3.959455  0
C  C122  1  0.90272133  0.18978428  0.53920639  1  -0.037322  0  -0.005374  0.029388  0  3.980913  0
C  C123  1  0.82229414  0.29107095  0.47976334  1  -0.08886  0  -0.071972  -0.127482  0  3.918267  0
C  C124  1  0.74726187  0.39219203  0.41867279  1  1.598568  0  0.213654  0.600522  0  4.207722  0
C  C125  1  0.92084837  0.11021021  0.50978458  1  -0.034483  0  -0.004499  0.031803  0  3.992917  0
C  C126  1  0.95720107  0.20340556  0.58040970  1  -0.033873  0  -0.088889  -0.179481  0  3.991791  0
C  C127  1  0.99966681  0.04795533  0.52074891  1  -0.02188  0  0.002623  0.008541  0  3.91334  0
C  C128  1  0.85960398  0.08781691  0.47085094  1  -0.03496  0  -0.094068  -0.131021  0  4.024158  0
C  C129  1  0.03069595  0.14198416  0.59334767  1  -0.01202  0  -0.005831  0.026591  0  3.990908  0
C  C130  1  0.05565608  0.06432340  0.56251456  1  0.008828  0  -0.007987  0.029014  0  3.999405  0
C  C131  1  0.88182208  0.01303055  0.44117708  1  -0.027369  0  -0.092348  -0.128086  0  4.027261  0
C  C132  1  0.08066547  0.15826514  0.63933896  1  0.012796  0  -0.003701  0.071755  0  4.012964  0
C  C133  1  0.14243275  0.23445032  0.64350881  1  -0.011432  0  -0.069266  -0.122141  0  3.893381  0
C  C134  1  0.06704910  0.09608283  0.67976489  1  -0.075559  0  -0.074423  -0.125555  0  3.922087  0
C  C135  1  0.19341120  0.24583640  0.68620182  1  -0.026822  0  -0.018243  -0.038558  0  3.988877  0
C  C136  1  0.11526710  0.10830432  0.72315451  1  -0.014984  0  -0.018625  -0.038701  0  3.984657  0
C  C137  1  0.27000508  0.32142346  0.68733525  1  1.556235  0  0.229979  0.612065  0  4.166534  0
C  C138  1  0.18000853  0.18284340  0.72604440  1  -0.007728  0  -0.066092  -0.088019  0  3.893229  0
C  C139  1  0.10124650  0.03991358  0.76520031  1  1.570551  0  0.231405  0.620673  0  4.153035  0
C  C140  1  0.02254715  0.96926502  0.48981033  1  0.031283  0  0.002015  0.007852  0  3.915349  0
C  C141  1  0.13902401  0.00336687  0.56997227  1  -0.065938  0  -0.097674  -0.140255  0  4.037533  0
C  C142  1  0.96688986  0.95336973  0.44790949  1  -0.010349  0  -0.007171  0.026972  0  4.005251  0
C  C143  1  0.10216965  0.90726145  0.50014868  1  0.002229  0  -0.006642  0.031582  0  3.990519  0
C  C144  1  0.16154845  0.92864160  0.54004990  1  -0.047681  0  -0.095736  -0.13874  0  4.039023  0
C  C145  1  0.99483293  0.87778208  0.41565825  1  0.007748  0  -0.007239  0.024449  0  4.001707  0
C  C146  1  0.12381371  0.82973573  0.46896483  1  -0.066835  0  -0.004411  0.031234  0  3.980052  0
C  C147  1  0.94530803  0.86356286  0.36939916  1  -0.011523  0  -0.003084  0.070463  0  4.016318  0
C  C148  1  0.07095468  0.81726913  0.42714932  1  0.000719  0  -0.088564  -0.184158  0  3.990558  0
C  C149  1  0.20551573  0.76350505  0.47782390  1  0.01462  0  -0.007638  0.069869  0  4.014786  0
C  C150  1  0.88504418  0.78721665  0.36399616  1  -0.011105  0  -0.066322  -0.113126  0  3.88322  0
C  C151  1  0.95666080  0.92839880  0.33044427  1  -0.097707  0  -0.070923  -0.122508  0  3.920279  0
C  C152  1  0.29306183  0.74122350  0.43704260  1  -0.027472  0  -0.071761  -0.121606  0  3.905382  0
C  C153  1  0.19745097  0.72197116  0.52637471  1  -0.057202  0  -0.07613  -0.136662  0  3.927026  0
C  C154  1  0.83406110  0.77698707  0.32116513  1  -0.047543  0  -0.020206  -0.040695  0  3.990048  0
C  C155  1  0.90787319  0.91787961  0.28719308  1  0.040569  0  -0.020639  -0.041204  0  3.992218  0
C  C156  1  0.37021497  0.67804189  0.44463741  1  -0.073141  0  -0.018461  -0.03483  0  4.000042  0
C  C157  1  0.27585151  0.66029939  0.53464876  1  -0.01546  0  -0.018497  -0.038613  0  3.988971  0
C  C158  1  0.76023041  0.69978791  0.31893568  1  1.561905  0  0.221233  0.606919  0  4.166166  0
C  C159  1  0.84560405  0.84228477  0.28282883  1  -0.020201  0  -0.07443  -0.097866  0  3.920813  0
C  C160  1  0.91716982  0.98881755  0.24687474  1  1.562432  0  0.22863  0.6244  0  4.147524  0
C  C161  1  0.46110232  0.65412819  0.40033344  1  1.550198  0  0.226608  0.612914  0  4.158953  0
C  C162  1  0.36165678  0.63733620  0.49317580  1  0.032146  0  -0.06864  -0.091657  0  3.905729  0
C  C163  1  0.27041270  0.61926958  0.58754532  1  1.584206  0  0.215303  0.592817  0  4.200358  0
O  O164  1  0.99880370  0.94680397  0.90097057  1  -1.180274  0  -0.312389  -0.556625  0  2.347377  0
O  O165  1  0.96934708  0.81798254  0.86107112  1  -1.156508  0  -0.32159  -0.556802  0  2.337691  0
O  O166  1  0.71917049  0.87978381  0.13005521  1  -1.204083  0  -0.335817  -0.581182  0  2.184037  0
O  O167  1  0.84053397  0.97706663  0.08624368  1  -1.157446  0  -0.322359  -0.543971  0  2.326248  0
O  O168  1  0.25002349  0.88839602  0.86034261  1  -1.164682  0  -0.310355  -0.543732  0  2.313899  0
O  O169  1  0.20312607  0.83184395  0.78739675  1  -1.188261  0  -0.329995  -0.601839  0  2.351832  0
O  O170  1  0.37774327  0.55878890  0.70738111  1  -1.170103  0  -0.310448  -0.554758  0  2.364098  0
O  O171  1  0.47523034  0.47648579  0.75454971  1  -1.179616  0  -0.322922  -0.572146  0  2.383408  0
O  O172  1  0.04059796  0.74662049  0.74359441  1  -1.256856  0  -0.569258  -0.751699  0  2.07828  0
O  O173  1  0.06818268  0.77793120  0.64605955  1  -1.243371  0  -0.580609  -0.754804  0  1.985045  0
O  O174  1  0.86087898  0.86735443  0.77396044  1  -1.166362  0  -0.558288  -0.724324  0  1.980896  0
O  O175  1  0.16767693  0.05796421  0.93006542  1  -1.167743  0  -0.326769  -0.551277  0  2.321442  0
O  O176  1  0.14601075  0.05496252  0.80381468  1  -1.164485  0  -0.302038  -0.540658  0  2.364002  0
O  O177  1  0.04516623  0.97146072  0.75823977  1  -1.186514  0  -0.325434  -0.58996  0  2.385966  0
O  O178  1  0.76519440  0.14446612  0.15378027  1  -1.156756  0  -0.306887  -0.535146  0  2.328341  0
O  O179  1  0.80123358  0.19577543  0.23027814  1  -1.188219  0  -0.330597  -0.593763  0  2.379533  0
O  O180  1  0.65540665  0.47616644  0.30050095  1  -1.169785  0  -0.306298  -0.548121  0  2.389805  0
O  O181  1  0.53659910  0.55316040  0.26206420  1  -1.181932  0  -0.321644  -0.577403  0  2.386429  0
O  O182  1  0.01313247  0.08534716  0.11538643  1  -1.175707  0  -0.310782  -0.540681  0  2.361376  0
O  O183  1  0.05314958  0.20360383  0.16178177  1  -1.206003  0  -0.330899  -0.631412  0  2.343211  0
O  O184  1  0.29920468  0.14950105  0.88826352  1  -1.179465  0  -0.319941  -0.553432  0  2.157192  0
O  O185  1  0.86310785  0.97604529  0.21110783  1  -1.162308  0  -0.309141  -0.547903  0  2.379368  0
O  O186  1  0.97673305  0.05608232  0.25125940  1  -1.206547  0  -0.326063  -0.609399  0  2.361481  0
O  O187  1  0.12704172  0.17948873  0.25837721  1  -1.201863  0  -0.560786  -0.728609  0  1.976275  0
O  O188  1  0.98324748  0.33534024  0.22518420  1  -1.179107  0  -0.561545  -0.737562  0  2.017977  0
O  O189  1  0.91975428  0.22362109  0.32009761  1  -1.244317  0  -0.563838  -0.745741  0  2.026504  0
O  O190  1  0.51044115  0.43547658  0.60443229  1  -1.170992  0  -0.299593  -0.533358  0  2.354185  0
O  O191  1  0.59408037  0.35360207  0.65719354  1  -1.1806  0  -0.31855  -0.581437  0  2.393006  0
O  O192  1  0.79840284  0.35424945  0.37819450  1  -1.205793  0  -0.333182  -0.582687  0  2.133399  0
O  O193  1  0.69099289  0.46435503  0.42018366  1  -1.164559  0  -0.33323  -0.564856  0  2.352217  0
O  O194  1  0.26824750  0.38524041  0.65592415  1  -1.15327  0  -0.307572  -0.541335  0  2.33013  0
O  O195  1  0.33374007  0.31457920  0.71971936  1  -1.175729  0  -0.320061  -0.562417  0  2.383014  0
O  O196  1  0.53640528  0.27564849  0.76558766  1  -1.2618  0  -0.578103  -0.755558  0  2.091778  0
O  O197  1  0.44287154  0.27622587  0.86273688  1  -1.253971  0  -0.575694  -0.755262  0  1.96738  0
O  O198  1  0.74724654  0.30733951  0.71721467  1  -1.220355  0  -0.578723  -0.746004  0  1.900876  0
O  O199  1  0.34015517  0.55640764  0.58762634  1  -1.16933  0  -0.32661  -0.548418  0  2.347633  0
O  O200  1  0.75271307  0.64325295  0.35550784  1  -1.161789  0  -0.307865  -0.539588  0  2.335286  0
O  O201  1  0.70758098  0.69667189  0.28166434  1  -1.197906  0  -0.331169  -0.607649  0  2.350031  0
O  O202  1  0.50888413  0.58036229  0.40228991  1  -1.175006  0  -0.309905  -0.550742  0  2.33731  0
O  O203  1  0.48347559  0.70997556  0.36277363  1  -1.162657  0  -0.326295  -0.565632  0  2.352638  0
O  O204  1  0.20359299  0.64680839  0.62731119  1  -1.188238  0  -0.326326  -0.55747  0  2.158047  0
O  O205  1  0.34047924  0.65289396  0.28617016  1  -1.20999  0  -0.585373  -0.741274  0  1.9036  0
O  O206  1  0.51929981  0.75683691  0.23575701  1  -1.230803  0  -0.557868  -0.756723  0  2.080481  0
O  O207  1  0.68509995  0.72409314  0.16635404  1  -1.212263  0  -0.570195  -0.734062  0  1.974696  0
