# generated using pymatgen
data_AgH4C16(N2Cl)4
_symmetry_space_group_name_H-M   'P 1'
_cell_length_a   3.75475349
_cell_length_b   15.81037807
_cell_length_c   15.80831930
_cell_angle_alpha   89.21185971
_cell_angle_beta   83.16795498
_cell_angle_gamma   83.16727043
_symmetry_Int_Tables_number   1
_chemical_formula_structural   AgH4C16(N2Cl)4
_chemical_formula_sum   'Ag2 H8 C32 N16 Cl8'
_cell_volume   925.16456075
_cell_formula_units_Z   2
loop_
 _symmetry_equiv_pos_site_id
 _symmetry_equiv_pos_as_xyz
  1  'x, y, z'
loop_
 _atom_site_type_symbol
 _atom_site_label
 _atom_site_symmetry_multiplicity
 _atom_site_fract_x
 _atom_site_fract_y
 _atom_site_fract_z
 _atom_site_occupancy
 _atom_site_pbe_bader_spin_density
 _atom_site_pbe_cm5_charge
 _atom_site_pbe_ddec_charge
 _atom_site_pbe_ddec_spin_density
 _atom_site_pbe_ddec_sum_bond_order
 _atom_site_pbe_magmom
Ag  Ag0  1  0.12565210  0.25016013  0.75036803  1  0  0.612644  0.648805  0  2.275153  0
Ag  Ag1  1  0.87434426  0.74984195  0.24963231  1  0  0.612609  0.648775  0  2.275174  0
H  H2  1  0.27942779  0.43624785  0.86052525  1  0  0.11088  0.148365  0  1.024661  0
H  H3  1  0.21591391  0.86053644  0.06362006  1  0  0.111076  0.149623  0  1.023249  0
H  H4  1  0.57676277  0.06348493  0.63960574  1  0  0.111118  0.149167  0  1.023706  0
H  H5  1  0.14048171  0.63950990  0.43654800  1  0  0.111083  0.149499  0  1.022654  0
H  H6  1  0.72057852  0.56375121  0.13947191  1  0  0.11088  0.148348  0  1.02471  0
H  H7  1  0.78409009  0.13946128  0.93637901  1  0  0.111095  0.149605  0  1.023306  0
H  H8  1  0.42324455  0.93651357  0.36039588  1  0  0.111129  0.149209  0  1.023652  0
H  H9  1  0.85952791  0.36048995  0.56345170  1  0  0.111056  0.149482  0  1.022659  0
C  C10  1  0.64188617  0.31394468  0.93254571  1  0  0.30008  0.429734  0  4.209049  0
C  C11  1  0.45710106  0.93255883  0.18582337  1  0  0.299904  0.431387  0  4.207277  0
C  C12  1  0.88896815  0.18590539  0.56757500  1  0  0.30125  0.431939  0  4.206531  0
C  C13  1  0.57529379  0.56743633  0.31408461  1  0  0.299218  0.43056  0  4.206595  0
C  C14  1  0.35811114  0.68605676  0.06745400  1  0  0.300071  0.429732  0  4.209059  0
C  C15  1  0.54288519  0.06744295  0.81417634  1  0  0.299917  0.431396  0  4.207298  0
C  C16  1  0.11102424  0.81409464  0.43242662  1  0  0.30116  0.431846  0  4.206675  0
C  C17  1  0.42471031  0.43256400  0.68591446  1  0  0.299198  0.430511  0  4.206588  0
C  C18  1  0.24632024  0.42379723  0.99812659  1  0  0.130226  0.222906  0  4.053842  0
C  C19  1  0.17002563  0.99812745  0.07618968  1  0  0.13399  0.227616  0  4.052149  0
C  C20  1  0.66794447  0.07617692  0.50199224  1  0  0.134298  0.226809  0  4.052705  0
C  C21  1  0.24429636  0.50192803  0.42381136  1  0  0.132126  0.225113  0  4.052809  0
C  C22  1  0.75368125  0.57620302  0.00187248  1  0  0.130205  0.222892  0  4.053851  0
C  C23  1  0.82997127  0.00187202  0.92380939  1  0  0.133903  0.227392  0  4.052353  0
C  C24  1  0.33205315  0.92382390  0.49800811  1  0  0.134319  0.226686  0  4.052894  0
C  C25  1  0.75570512  0.49807159  0.57618898  1  0  0.132136  0.225057  0  4.052817  0
C  C26  1  0.15696767  0.46502681  0.92094994  1  0  -0.096407  -0.231675  0  3.92699  0
C  C27  1  0.12231034  0.92094668  0.03483704  1  0  -0.095987  -0.23274  0  3.925314  0
C  C28  1  0.54342792  0.03475335  0.57916756  1  0  -0.09653  -0.232266  0  3.929871  0
C  C29  1  0.07839522  0.57910173  0.46526210  1  0  -0.096476  -0.23325  0  3.929237  0
C  C30  1  0.84303445  0.53497345  0.07904785  1  0  -0.096427  -0.231692  0  3.927174  0
C  C31  1  0.87769761  0.07905182  0.96516330  1  0  -0.095931  -0.232545  0  3.9254  0
C  C32  1  0.45657741  0.96524445  0.42083406  1  0  -0.096506  -0.232187  0  3.929846  0
C  C33  1  0.92160397  0.42089782  0.53473761  1  0  -0.096474  -0.233217  0  3.929207  0
C  C34  1  0.07692776  0.46160354  0.07824370  1  0  0.02634  0.092029  0  4.006008  0
C  C35  1  0.03825159  0.07827958  0.03849634  1  0  0.024611  0.090941  0  4.004408  0
C  C36  1  0.61655383  0.03852569  0.42174552  1  0  0.025762  0.091199  0  4.009259  0
C  C37  1  0.15480885  0.42176197  0.46140601  1  0  0.024706  0.090239  0  4.008896  0
C  C38  1  0.92307113  0.53839727  0.92175409  1  0  0.026292  0.09193  0  4.006025  0
C  C39  1  0.96173395  0.92172086  0.96150209  1  0  0.024716  0.091122  0  4.004268  0
C  C40  1  0.38345277  0.96147147  0.57825482  1  0  0.025774  0.091267  0  4.009248  0
C  C41  1  0.84519785  0.57823780  0.53859433  1  0  0.024708  0.090291  0  4.008963  0
N  N42  1  0.80119766  0.26957047  0.87748917  1  0  -0.373537  -0.494995  0  3.14957  0
N  N43  1  0.57477740  0.87764390  0.22990414  1  0  -0.371875  -0.493684  0  3.145283  0
N  N44  1  0.95258543  0.22986066  0.62250765  1  0  -0.371514  -0.493672  0  3.142396  0
N  N45  1  0.68211272  0.62238046  0.27006158  1  0  -0.371782  -0.493396  0  3.148139  0
N  N46  1  0.19879861  0.73042900  0.12251117  1  0  -0.37353  -0.494995  0  3.149634  0
N  N47  1  0.42521602  0.12235747  0.77009812  1  0  -0.371917  -0.493706  0  3.145244  0
N  N48  1  0.04739076  0.77014026  0.37749779  1  0  -0.371481  -0.49366  0  3.142588  0
N  N49  1  0.31788909  0.37761979  0.72993685  1  0  -0.371743  -0.49336  0  3.148145  0
N  N50  1  0.48160999  0.35373639  0.00007399  1  0  -0.288411  -0.322771  0  3.443619  0
N  N51  1  0.33501947  0.00005644  0.14623841  1  0  -0.291055  -0.327323  0  3.445343  0
N  N52  1  0.83384377  0.14633941  0.50006544  1  0  -0.289843  -0.324513  0  3.444732  0
N  N53  1  0.48080593  0.49996217  0.35363766  1  0  -0.288324  -0.323268  0  3.441774  0
N  N54  1  0.51838826  0.64626379  0.99992635  1  0  -0.288398  -0.322767  0  3.443601  0
N  N55  1  0.66497167  0.99994549  0.85376193  1  0  -0.290968  -0.327212  0  3.445391  0
N  N56  1  0.16615258  0.85366204  0.49993618  1  0  -0.289784  -0.324392  0  3.444734  0
N  N57  1  0.51920076  0.50003760  0.64636268  1  0  -0.288348  -0.323222  0  3.441773  0
Cl  Cl58  1  0.17172650  0.41257982  0.17143849  1  0  0.034913  -0.009137  0  1.647674  0
Cl  Cl59  1  0.08415072  0.17146360  0.08754944  1  0  0.035553  -0.008368  0  1.647211  0
Cl  Cl60  1  0.75541545  0.08773281  0.32868474  1  0  0.036455  -0.006942  0  1.648033  0
Cl  Cl61  1  0.34268891  0.32865250  0.41214924  1  0  0.035432  -0.008078  0  1.647256  0
Cl  Cl62  1  0.82827429  0.58741972  0.82855803  1  0  0.034953  -0.00908  0  1.647718  0
Cl  Cl63  1  0.91585140  0.82853602  0.91244963  1  0  0.035538  -0.008391  0  1.647226  0
Cl  Cl64  1  0.24458957  0.91226562  0.67131624  1  0  0.03649  -0.006887  0  1.647997  0
Cl  Cl65  1  0.65732038  0.67134671  0.58785238  1  0  0.035435  -0.008082  0  1.647308  0
