# generated using pymatgen
data_CuH3C2SN4
_symmetry_space_group_name_H-M   'P 1'
_cell_length_a   6.47640680
_cell_length_b   7.59721348
_cell_length_c   9.94737575
_cell_angle_alpha   104.97508956
_cell_angle_beta   89.99977479
_cell_angle_gamma   90.00045858
_symmetry_Int_Tables_number   1
_chemical_formula_structural   CuH3C2SN4
_chemical_formula_sum   'Cu4 H12 C8 S4 N16'
_cell_volume   472.81506014
_cell_formula_units_Z   4
loop_
 _symmetry_equiv_pos_site_id
 _symmetry_equiv_pos_as_xyz
  1  'x, y, z'
loop_
 _atom_site_type_symbol
 _atom_site_label
 _atom_site_symmetry_multiplicity
 _atom_site_fract_x
 _atom_site_fract_y
 _atom_site_fract_z
 _atom_site_occupancy
 _atom_site_hle17_bader_spin_density
 _atom_site_hle17_ddec_charge
 _atom_site_hle17_ddec_spin_density
 _atom_site_hle17_ddec_sum_bond_order
 _atom_site_hle17_magmom
 _atom_site_hse06_10hf_bader_spin_density
 _atom_site_hse06_10hf_ddec_charge
 _atom_site_hse06_10hf_ddec_spin_density
 _atom_site_hse06_10hf_ddec_sum_bond_order
 _atom_site_hse06_10hf_magmom
 _atom_site_hse06_bader_spin_density
 _atom_site_hse06_ddec_charge
 _atom_site_hse06_ddec_spin_density
 _atom_site_hse06_ddec_sum_bond_order
 _atom_site_hse06_magmom
 _atom_site_pbe_bader_spin_density
 _atom_site_pbe_cm5_charge
 _atom_site_pbe_ddec_charge
 _atom_site_pbe_ddec_spin_density
 _atom_site_pbe_ddec_sum_bond_order
 _atom_site_pbe_magmom
Cu  Cu0  1  0.09180240  0.14766471  0.65911143  1  0  0.310891  0  2.09763  0  0  0.181908  0  2.608121  0  0  0.177007  0  2.564695  0  0  0.542078  0.189374  0  2.634755  0
Cu  Cu1  1  0.59179606  0.35232967  0.84089095  1  0  0.310899  0  2.097666  0  0  0.181952  0  2.608174  0  0  0.177037  0  2.564742  0  0  0.542048  0.189414  0  2.634695  0
Cu  Cu2  1  0.90820566  0.85232785  0.34088758  1  0  0.31083  0  2.09767  0  0  0.181802  0  2.608189  0  0  0.176868  0  2.564732  0  0  0.542  0.18928  0  2.634772  0
Cu  Cu3  1  0.40819810  0.64767521  0.15910760  1  0  0.310813  0  2.097615  0  0  0.181829  0  2.608106  0  0  0.176946  0  2.564673  0  0  0.542047  0.189297  0  2.634728  0
H  H4  1  0.29744497  0.37693434  0.32401083  1  0  0.133486  0  0.959891  0  0  0.146518  0  1.029445  0  0  0.148753  0  1.028501  0  0  0.09505  0.145142  0  1.029402  0
H  H5  1  0.79743291  0.12306846  0.17599440  1  0  0.133493  0  0.959895  0  0  0.146536  0  1.029418  0  0  0.148777  0  1.028466  0  0  0.095028  0.145165  0  1.029359  0
H  H6  1  0.70255846  0.62305010  0.67598348  1  0  0.133561  0  0.959738  0  0  0.146584  0  1.029303  0  0  0.148821  0  1.028358  0  0  0.095062  0.145207  0  1.029259  0
H  H7  1  0.20256126  0.87693499  0.82400688  1  0  0.133468  0  0.959846  0  0  0.14651  0  1.029373  0  0  0.148749  0  1.028423  0  0  0.095029  0.145132  0  1.029334  0
H  H8  1  0.03815129  0.37926159  0.38508036  1  0  0.130186  0  0.953651  0  0  0.151085  0  1.011422  0  0  0.151973  0  1.012812  0  0  0.095193  0.150441  0  1.010305  0
H  H9  1  0.53813964  0.12074643  0.11492552  1  0  0.130172  0  0.953753  0  0  0.151061  0  1.011518  0  0  0.151945  0  1.012917  0  0  0.095159  0.150415  0  1.010402  0
H  H10  1  0.96184596  0.62073787  0.61491506  1  0  0.130214  0  0.953911  0  0  0.151121  0  1.011647  0  0  0.152008  0  1.01304  0  0  0.095203  0.150474  0  1.010531  0
H  H11  1  0.46185916  0.87926119  0.88507259  1  0  0.130208  0  0.953819  0  0  0.151108  0  1.011565  0  0  0.151991  0  1.012964  0  0  0.095197  0.150464  0  1.010446  0
H  H12  1  0.17532526  0.16801589  0.33546915  1  0  0.121444  0  0.976425  0  0  0.128913  0  1.060048  0  0  0.131978  0  1.057602  0  0  0.089734  0.126349  0  1.062271  0
H  H13  1  0.67532923  0.33198884  0.16453876  1  0  0.121511  0  0.976428  0  0  0.128945  0  1.060067  0  0  0.132008  0  1.057626  0  0  0.089727  0.126381  0  1.062293  0
H  H14  1  0.82466890  0.83197939  0.66453043  1  0  0.121424  0  0.976396  0  0  0.128932  0  1.059953  0  0  0.131997  0  1.057511  0  0  0.08973  0.126372  0  1.062176  0
H  H15  1  0.32467729  0.66801723  0.83546909  1  0  0.121441  0  0.976448  0  0  0.128903  0  1.06008  0  0  0.131968  0  1.057634  0  0  0.089725  0.126339  0  1.062299  0
C  C16  1  0.51319441  0.24888644  0.53474000  1  0  0.219835  0  3.840658  0  0  0.204503  0  4.129643  0  0  0.212395  0  4.147381  0  0  0.201416  0.198714  0  4.118305  0
C  C17  1  0.01320578  0.25111702  0.96526243  1  0  0.219908  0  3.840843  0  0  0.204446  0  4.129959  0  0  0.212334  0  4.147712  0  0  0.201324  0.19866  0  4.118619  0
C  C18  1  0.48681057  0.75110767  0.46524928  1  0  0.219642  0  3.84092  0  0  0.204324  0  4.129852  0  0  0.212215  0  4.147598  0  0  0.201291  0.198538  0  4.118515  0
C  C19  1  0.98681618  0.74890135  0.03474596  1  0  0.219845  0  3.840629  0  0  0.204435  0  4.129696  0  0  0.212322  0  4.147446  0  0  0.20129  0.198647  0  4.11836  0
C  C20  1  0.18965166  0.31455482  0.38263714  1  0  -0.31109  0  3.606402  0  0  -0.384742  0  3.861296  0  0  -0.387532  0  3.868795  0  0  -0.231085  -0.381864  0  3.854976  0
C  C21  1  0.68964371  0.18545136  0.11737103  1  0  -0.311146  0  3.606536  0  0  -0.384751  0  3.861415  0  0  -0.387546  0  3.868917  0  0  -0.230989  -0.381874  0  3.855095  0
C  C22  1  0.81035486  0.68543240  0.61735473  1  0  -0.311198  0  3.606566  0  0  -0.384868  0  3.861479  0  0  -0.387664  0  3.86898  0  0  -0.231098  -0.381991  0  3.855157  0
C  C23  1  0.31035972  0.81455889  0.88263265  1  0  -0.311039  0  3.606492  0  0  -0.384733  0  3.861465  0  0  -0.387523  0  3.868965  0  0  -0.231005  -0.381855  0  3.855139  0
S  S24  1  0.27396497  0.35705379  0.56128461  1  0  0.07901  0  2.727112  0  0  0.091493  0  3.149837  0  0  0.094686  0  3.136784  0  0  0.022828  0.088661  0  3.158508  0
S  S25  1  0.77394662  0.14294440  0.93872017  1  0  0.078968  0  2.72674  0  0  0.091451  0  3.149543  0  0  0.094644  0  3.136496  0  0  0.022785  0.088618  0  3.158189  0
S  S26  1  0.72603692  0.64294425  0.43871353  1  0  0.079106  0  2.727267  0  0  0.091595  0  3.15  0  0  0.094795  0  3.136938  0  0  0.022834  0.088756  0  3.158665  0
S  S27  1  0.22604291  0.85706047  0.06127838  1  0  0.079038  0  2.727191  0  0  0.091541  0  3.149972  0  0  0.094731  0  3.136923  0  0  0.022807  0.088705  0  3.15865  0
N  N28  1  0.64769306  0.26124240  0.64051875  1  0  -0.275047  0  3.301472  0  0  -0.225481  0  3.632632  0  0  -0.230648  0  3.631548  0  0  -0.281589  -0.223806  0  3.634502  0
N  N29  1  0.14767417  0.23875081  0.85949131  1  0  -0.275001  0  3.301682  0  0  -0.225342  0  3.632705  0  0  -0.230515  0  3.631627  0  0  -0.281581  -0.223679  0  3.634631  0
N  N30  1  0.35231500  0.73876095  0.35948853  1  0  -0.274874  0  3.301657  0  0  -0.225302  0  3.632729  0  0  -0.230477  0  3.631658  0  0  -0.281576  -0.223638  0  3.634654  0
N  N31  1  0.85231381  0.76125128  0.14050968  1  0  -0.275078  0  3.301579  0  0  -0.22546  0  3.632704  0  0  -0.230615  0  3.631597  0  0  -0.281634  -0.223794  0  3.634606  0
N  N32  1  0.80940433  0.15633206  0.58305768  1  0  -0.072602  0  3.245455  0  0  -0.02861  0  3.567553  0  0  -0.025113  0  3.565281  0  0  -0.163362  -0.032129  0  3.570675  0
N  N33  1  0.30939534  0.34366225  0.91694723  1  0  -0.072693  0  3.245503  0  0  -0.028661  0  3.56757  0  0  -0.02516  0  3.565291  0  0  -0.163357  -0.032168  0  3.570649  0
N  N34  1  0.19060064  0.84366180  0.41694462  1  0  -0.07259  0  3.245376  0  0  -0.028548  0  3.567477  0  0  -0.025042  0  3.565183  0  0  -0.163351  -0.032059  0  3.570583  0
N  N35  1  0.69060192  0.65634530  0.08305489  1  0  -0.072551  0  3.245385  0  0  -0.028547  0  3.567461  0  0  -0.025058  0  3.565194  0  0  -0.16332  -0.032065  0  3.570583  0
N  N36  1  0.76889742  0.08384254  0.44860087  1  0  -0.06949  0  3.247194  0  0  -0.022319  0  3.565671  0  0  -0.019211  0  3.566922  0  0  -0.151355  -0.024735  0  3.565078  0
N  N37  1  0.26888553  0.41615191  0.05140269  1  0  -0.069336  0  3.247135  0  0  -0.022213  0  3.56561  0  0  -0.019114  0  3.566879  0  0  -0.151379  -0.024632  0  3.565033  0
N  N38  1  0.23110447  0.91614854  0.55140387  1  0  -0.069401  0  3.246955  0  0  -0.0223  0  3.565471  0  0  -0.019201  0  3.566737  0  0  -0.151356  -0.024719  0  3.564898  0
N  N39  1  0.73110246  0.58385021  0.94859729  1  0  -0.069351  0  3.24695  0  0  -0.022195  0  3.565421  0  0  -0.019091  0  3.56669  0  0  -0.151302  -0.024605  0  3.564804  0
N  N40  1  0.58350334  0.13995445  0.41533450  1  0  -0.266615  0  2.923109  0  0  -0.243275  0  3.19864  0  0  -0.254277  0  3.214919  0  0  -0.218861  -0.236153  0  3.187431  0
N  N41  1  0.08348603  0.36003489  0.08466138  1  0  -0.266771  0  2.923273  0  0  -0.243377  0  3.198826  0  0  -0.254381  0  3.215107  0  0  -0.218765  -0.236254  0  3.187618  0
N  N42  1  0.41650472  0.86004070  0.58467209  1  0  -0.266698  0  2.922846  0  0  -0.243338  0  3.198381  0  0  -0.254342  0  3.214662  0  0  -0.218778  -0.236215  0  3.187171  0
N  N43  1  0.91650350  0.63995789  0.91532562  1  0  -0.266825  0  2.922751  0  0  -0.243434  0  3.198251  0  0  -0.254437  0  3.214532  0  0  -0.218842  -0.236312  0  3.187041  0
