# generated using pymatgen
data_Cd2CuH10(C9O7)2
_symmetry_space_group_name_H-M   'P 1'
_cell_length_a   6.27780908
_cell_length_b   9.32600521
_cell_length_c   10.09315569
_cell_angle_alpha   64.28188149
_cell_angle_beta   77.84007678
_cell_angle_gamma   76.42439497
_symmetry_Int_Tables_number   1
_chemical_formula_structural   Cd2CuH10(C9O7)2
_chemical_formula_sum   'Cd2 Cu1 H10 C18 O14'
_cell_volume   513.50370829
_cell_formula_units_Z   1
loop_
 _symmetry_equiv_pos_site_id
 _symmetry_equiv_pos_as_xyz
  1  'x, y, z'
loop_
 _atom_site_type_symbol
 _atom_site_label
 _atom_site_symmetry_multiplicity
 _atom_site_fract_x
 _atom_site_fract_y
 _atom_site_fract_z
 _atom_site_occupancy
 _atom_site_hle17_ddec_charge
 _atom_site_hle17_ddec_spin_density
 _atom_site_hle17_ddec_sum_bond_order
 _atom_site_hle17_magmom
 _atom_site_hse06_10hf_ddec_charge
 _atom_site_hse06_10hf_ddec_spin_density
 _atom_site_hse06_10hf_ddec_sum_bond_order
 _atom_site_hse06_10hf_magmom
 _atom_site_hse06_ddec_charge
 _atom_site_hse06_ddec_spin_density
 _atom_site_hse06_ddec_sum_bond_order
 _atom_site_hse06_magmom
 _atom_site_pbe_cm5_charge
 _atom_site_pbe_ddec_charge
 _atom_site_pbe_ddec_spin_density
 _atom_site_pbe_ddec_sum_bond_order
 _atom_site_pbe_magmom
Cd  Cd0  1  0.78050600  0.57847639  0.13997891  1  1.27145  -0.000543  1.541063  0.0  1.100773  -0.000119  1.978677  0.0  1.160217  -0.000274  1.918088  0.0  0.784895  1.054703  0.000153  2.022505  0.0
Cd  Cd1  1  0.21949623  0.42152463  0.86001682  1  1.271425  -0.000544  1.541049  0.0  1.100749  -0.000119  1.978663  0.0  1.160195  -0.000273  1.918075  0.0  0.784904  1.054675  0.000153  2.022491  0.0
Cu  Cu2  1  0.49999752  0.50000175  0.49999540  1  1.051083  0.688053  1.625688  0.519  1.055572  0.793312  2.013596  0.654  1.148037  0.860045  1.95177  0.748  0.719564  0.985898  0.740742  2.071503  0.588
H  H3  1  0.30857229  0.56074498  0.16813996  1  0.43053  1.9e-05  0.870065  0.0  0.402053  4e-06  0.92976  0.0  0.413051  8e-06  0.913855  0.0  0.288918  0.394126  1e-06  0.94122  0.0
H  H4  1  0.69143258  0.43925236  0.83186479  1  0.430465  1.9e-05  0.870157  0.0  0.401974  4e-06  0.929874  0.0  0.412972  8e-06  0.913968  0.0  0.288856  0.394044  1e-06  0.941338  0.0
H  H5  1  0.28649305  0.72782348  0.17409178  1  0.445313  -4.1e-05  0.809372  0.0  0.429297  -2.7e-05  0.856532  0.0  0.438862  -1.3e-05  0.842812  0.0  0.318618  0.422082  -3.4e-05  0.86691  0.0
H  H6  1  0.71350592  0.27217146  0.82591873  1  0.445273  -4e-05  0.80941  0.0  0.429293  -2.7e-05  0.856519  0.0  0.438859  -1.3e-05  0.842797  0.0  0.318629  0.422081  -3.4e-05  0.866893  0.0
H  H7  1  0.70878896  0.02350013  0.68945558  1  0.122661  0.000178  0.925698  0.0  0.131666  0.000155  0.984311  0.0  0.135854  9.6e-05  0.980476  0.0  0.115078  0.128657  0.000212  0.987033  0.0
H  H8  1  0.29121006  0.97650090  0.31054258  1  0.122659  0.000185  0.925671  0.0  0.13163  0.000155  0.984334  0.0  0.135816  9.6e-05  0.980499  0.0  0.115061  0.128618  0.000212  0.987053  0.0
H  H9  1  0.83608442  0.59141044  0.61126399  1  0.104623  -0.000285  0.963708  0.0  0.10814  -0.000287  1.040518  0.0  0.111799  -0.000296  1.036223  0.0  0.107037  0.105614  -0.000252  1.043299  0.0
H  H10  1  0.16390897  0.40858697  0.38874037  1  0.104576  -0.000277  0.963797  0.0  0.108109  -0.000287  1.040601  0.0  0.111766  -0.000296  1.03631  0.0  0.107037  0.105588  -0.000252  1.043387  0.0
H  H11  1  0.78795626  0.05582794  0.24340238  1  0.127043  -3e-05  0.912485  0.0  0.135977  3.4e-05  0.971158  0.0  0.140171  9e-06  0.967473  0.0  0.118855  0.132878  7.3e-05  0.973896  0.0
H  H12  1  0.21205173  0.94416942  0.75659696  1  0.127013  -2.3e-05  0.912564  0.0  0.135973  3.4e-05  0.971209  0.0  0.140167  9e-06  0.967524  0.0  0.118853  0.132866  7.3e-05  0.973953  0.0
C  C13  1  0.74331055  0.05862502  0.46073373  1  -0.086954  0.007188  3.767332  0.008  -0.057861  0.004214  3.995914  0.005  -0.071225  0.003003  4.021058  0.004  -0.017847  -0.049314  0.005018  3.980096  0.006
C  C14  1  0.25668736  0.94137360  0.53926554  1  -0.086919  0.007208  3.767094  0.008  -0.057874  0.004215  3.995746  0.005  -0.07124  0.003004  4.02089  0.004  -0.017839  -0.049322  0.005018  3.979928  0.006
C  C15  1  0.73866952  0.96540678  0.61281837  1  -0.032937  0.00027  3.663061  0.0  -0.072507  0.000176  3.91086  0.0  -0.066088  -0.000256  3.927708  0.0  -0.06263  -0.076691  0.000637  3.900248  0.0
C  C16  1  0.26132897  0.03459666  0.38717792  1  -0.032962  0.000215  3.662954  0.0  -0.07249  0.000173  3.910808  0.0  -0.066071  -0.000255  3.927655  0.0  -0.06264  -0.07667  0.000637  3.900192  0.0
C  C17  1  0.77696829  0.79686984  0.66769199  1  -0.078073  0.000151  3.752985  0.0  -0.050262  -7.4e-05  3.990062  0.0  -0.06281  3.3e-05  4.014462  0.0  -0.017555  -0.042476  -9.6e-05  3.974384  0.0
C  C18  1  0.22303242  0.20313116  0.33230792  1  -0.078038  0.0002  3.753095  0.0  -0.050259  -7.1e-05  3.990228  0.0  -0.062807  3.2e-05  4.014626  0.0  -0.01759  -0.042474  -9.6e-05  3.974552  0.0
C  C19  1  0.80993883  0.72222727  0.56979483  1  -0.037391  -0.001264  3.661746  -0.001  -0.082365  -0.000555  3.919632  0.0  -0.076945  -0.000773  3.936893  0.0  -0.070113  -0.085026  -0.000301  3.907833  0.0
C  C20  1  0.19005745  0.27777136  0.43020468  1  -0.037325  -0.001357  3.661937  -0.001  -0.082328  -0.000558  3.919831  0.0  -0.0769  -0.000771  3.937085  0.0  -0.070074  -0.084997  -0.000301  3.908044  0.0
C  C21  1  0.81044537  0.81512592  0.41767439  1  -0.063599  0.001186  3.740666  0.002  -0.037849  4.9e-05  3.978567  0.0  -0.049125  -9.8e-05  4.000615  0.0  -0.013694  -0.030637  0.000333  3.963605  0.001
C  C22  1  0.18955583  0.18487267  0.58232542  1  -0.063642  0.001226  3.740675  0.002  -0.037861  5e-05  3.978543  0.0  -0.049142  -9.8e-05  4.000587  0.0  -0.013713  -0.030639  0.000333  3.963573  0.001
C  C23  1  0.78341745  0.98348531  0.36223479  1  -0.026944  0.00073  3.628603  0.001  -0.067875  0.000699  3.880283  0.001  -0.061583  0.000144  3.896051  0.0  -0.055531  -0.071962  0.00125  3.869956  0.001
C  C24  1  0.21658218  0.01651328  0.63776723  1  -0.026936  0.000673  3.628636  0.001  -0.067878  0.000697  3.880327  0.001  -0.061581  0.000144  3.896092  0.0  -0.055508  -0.07196  0.00125  3.870001  0.001
C  C25  1  0.70147103  0.23871541  0.40440517  1  0.658762  -0.003647  3.893088  -0.004  0.613521  0.000633  4.188357  0.0  0.652738  0.000191  4.18263  0.0  0.215386  0.586477  0.001142  4.191363  0.0
C  C26  1  0.29852525  0.76128321  0.59559433  1  0.658738  -0.003631  3.89305  -0.004  0.613515  0.000633  4.188332  0.0  0.652733  0.00019  4.182607  0.0  0.215376  0.586474  0.001142  4.191342  0.0
C  C27  1  0.78405529  0.69942252  0.82938043  1  0.667182  1e-05  3.87727  0.0  0.612562  -8e-06  4.166919  0.0  0.648032  0.0  4.162012  0.0  0.211158  0.588527  1e-06  4.169234  0.0
C  C28  1  0.21594139  0.30058212  0.17061860  1  0.667226  -3e-06  3.877205  0.0  0.612619  -8e-06  4.166847  0.0  0.648088  0.0  4.161942  0.0  0.211245  0.588586  1e-06  4.169162  0.0
C  C29  1  0.83358383  0.73443371  0.31572510  1  0.660987  -0.005674  3.84718  -0.004  0.61833  0.000114  4.130579  0.001  0.656189  0.000158  4.124226  0.001  0.21492  0.59221  0.000475  4.133145  0.001
C  C30  1  0.16642038  0.26556608  0.68427381  1  0.660947  -0.005672  3.847228  -0.004  0.618285  0.000114  4.130629  0.001  0.656148  0.000157  4.124269  0.001  0.214912  0.59216  0.000476  4.133196  0.001
O  O31  1  0.64670137  0.29316990  0.50598038  1  -0.619469  0.074747  2.138856  0.103  -0.595742  0.045378  2.437783  0.068  -0.639485  0.032986  2.428609  0.054  -0.328333  -0.564742  0.053081  2.443761  0.075
O  O32  1  0.35329405  0.70683236  0.49401482  1  -0.619433  0.074756  2.138825  0.103  -0.595738  0.045381  2.437798  0.068  -0.639471  0.032988  2.428594  0.054  -0.32832  -0.564736  0.053084  2.443772  0.075
O  O33  1  0.72084993  0.32026419  0.26551919  1  -0.632557  -0.000118  2.026923  0.001  -0.56955  -0.000195  2.277996  0.001  -0.600883  -0.000748  2.267791  0.0  -0.318164  -0.54727  0.000372  2.284376  0.001
O  O34  1  0.27914769  0.67973565  0.73447866  1  -0.632548  -0.00012  2.026894  0.001  -0.569549  -0.000195  2.277975  0.001  -0.600882  -0.000749  2.267769  0.0  -0.318174  -0.547269  0.000372  2.284356  0.001
O  O35  1  0.92034534  0.79370386  0.18387423  1  -0.574998  0.027699  1.87569  0.037  -0.529021  0.014341  2.084919  0.021  -0.558334  0.007679  2.075841  0.012  -0.294683  -0.506075  0.021646  2.090076  0.029
O  O36  1  0.07967275  0.20629223  0.81612617  1  -0.574931  0.027701  1.875739  0.037  -0.528958  0.014341  2.084975  0.021  -0.558271  0.007678  2.075895  0.012  -0.294658  -0.506012  0.021645  2.090133  0.029
O  O37  1  0.76204285  0.59627779  0.36637447  1  -0.694302  0.05635  2.15799  0.08  -0.641837  0.03986  2.453807  0.061  -0.687965  0.029234  2.441267  0.049  -0.340727  -0.60789  0.046763  2.461148  0.067
O  O38  1  0.23795583  0.40372446  0.63362028  1  -0.69434  0.05635  2.158076  0.08  -0.641869  0.03986  2.453872  0.061  -0.68801  0.029234  2.441361  0.049  -0.340784  -0.607933  0.046762  2.461238  0.067
O  O39  1  0.83343689  0.54366119  0.87977739  1  -0.715432  0.000194  2.033146  0.0  -0.637067  0.000182  2.275815  0.0  -0.667821  0.000124  2.261298  0.0  -0.331576  -0.614947  0.000251  2.285382  0.0
O  O40  1  0.16656016  0.45634221  0.12022604  1  -0.715482  0.000201  2.033209  0.0  -0.637131  0.000182  2.275904  0.0  -0.667884  0.000123  2.261385  0.0  -0.331616  -0.615013  0.000251  2.285475  0.0
O  O41  1  0.74226910  0.77304256  0.91430900  1  -0.594622  -0.000104  1.969568  0.0  -0.527909  -0.000112  2.201389  0.0  -0.557744  -3.8e-05  2.190475  0.0  -0.305709  -0.506646  -0.000109  2.208899  0.0
O  O42  1  0.25772621  0.22696088  0.08569071  1  -0.594645  -0.0001  1.969503  0.0  -0.527925  -0.000112  2.201323  0.0  -0.55776  -3.8e-05  2.190409  0.0  -0.305736  -0.506661  -0.000109  2.208831  0.0
O  O43  1  0.38249836  0.62299386  0.19931236  1  -0.856793  -0.001017  1.850498  0.0  -0.810201  -0.001118  2.045447  0.0  -0.830869  -0.001192  2.007778  0.0  -0.578069  -0.794488  -0.000989  2.072512  0.0
O  O44  1  0.61750651  0.37700348  0.80069239  1  -0.856682  -0.001019  1.850541  0.0  -0.810131  -0.001117  2.045481  0.0  -0.830798  -0.001193  2.007817  0.0  -0.578019  -0.794416  -0.000989  2.072545  0.0
