# generated using pymatgen
data_CuH22C17(NO)4
_symmetry_space_group_name_H-M   'P 1'
_cell_length_a   10.92273081
_cell_length_b   12.04067070
_cell_length_c   15.05918556
_cell_angle_alpha   90.00017651
_cell_angle_beta   98.93522995
_cell_angle_gamma   90.00017198
_symmetry_Int_Tables_number   1
_chemical_formula_structural   CuH22C17(NO)4
_chemical_formula_sum   'Cu4 H88 C68 N16 O16'
_cell_volume   1956.50425091
_cell_formula_units_Z   4
loop_
 _symmetry_equiv_pos_site_id
 _symmetry_equiv_pos_as_xyz
  1  'x, y, z'
loop_
 _atom_site_type_symbol
 _atom_site_label
 _atom_site_symmetry_multiplicity
 _atom_site_fract_x
 _atom_site_fract_y
 _atom_site_fract_z
 _atom_site_occupancy
 _atom_site_pbe_bader_charge
 _atom_site_pbe_bader_spin_density
 _atom_site_pbe_cm5_charge
 _atom_site_pbe_ddec_charge
 _atom_site_pbe_ddec_spin_density
 _atom_site_pbe_ddec_sum_bond_order
 _atom_site_pbe_magmom
Cu  Cu0  1  0.13353523  0.00320629  0.15626393  1  1.026223  -0.539671  0.750468  0.735042  -0.7349  2.342033  -0.539
Cu  Cu1  1  0.36646626  0.50320238  0.34374242  1  1.026274  -0.539658  0.750493  0.735043  -0.734884  2.342096  -0.539
Cu  Cu2  1  0.86647859  0.99679199  0.84373856  1  1.026404  0.539663  0.750539  0.735136  0.73489  2.342069  0.539
Cu  Cu3  1  0.63352725  0.49679258  0.65626135  1  1.026236  0.539667  0.750523  0.735059  0.734896  2.342131  0.539
H  H4  1  0.99024519  0.51629503  0.07649781  1  0.553197  -0.000179  0.297097  0.279481  -0.000137  1.023658  0.0
H  H5  1  0.50976076  0.01628799  0.42349667  1  0.553068  -0.000179  0.297089  0.279465  -0.000137  1.023822  0.0
H  H6  1  0.00976261  0.48371072  0.92348482  1  0.553034  0.000178  0.297053  0.279394  0.000136  1.023742  0.0
H  H7  1  0.49024675  0.98371444  0.57651249  1  0.553187  0.000178  0.297053  0.27948  0.000137  1.023746  0.0
H  H8  1  0.08657805  0.62868811  0.22035830  1  0.104395  0.000213  0.118099  0.12811  0.00011  0.966945  0.0
H  H9  1  0.41340980  0.12868415  0.27963770  1  0.104591  0.000213  0.118159  0.128185  0.00011  0.966797  0.0
H  H10  1  0.91342067  0.37130767  0.77963138  1  0.104443  -0.000213  0.118142  0.128202  -0.00011  0.966804  0.0
H  H11  1  0.58658562  0.87131081  0.72036892  1  0.104961  -0.000213  0.118149  0.128278  -0.00011  0.966787  0.0
H  H12  1  0.93097222  0.67133303  0.18363126  1  0.069251  0.000204  0.112713  0.105992  0.000121  0.950423  0.0
H  H13  1  0.56902314  0.17133073  0.31635988  1  0.069257  0.000204  0.112684  0.105947  0.000121  0.950325  0.0
H  H14  1  0.06903366  0.32866193  0.81634851  1  0.069373  -0.000204  0.112655  0.105919  -0.000121  0.950408  0.0
H  H15  1  0.43097317  0.82867668  0.68364483  1  0.069146  -0.000203  0.112672  0.105969  -0.000121  0.950437  0.0
H  H16  1  0.24950111  0.02960016  0.93554987  1  0.057687  -0.003394  0.101191  0.076474  -0.001811  0.999873  -0.002
H  H17  1  0.25050403  0.52959153  0.56445849  1  0.058118  -0.003393  0.101223  0.076554  -0.00181  0.99987  -0.002
H  H18  1  0.75050891  0.97041057  0.06444826  1  0.057903  0.003392  0.101203  0.076508  0.00181  0.99991  0.002
H  H19  1  0.74948109  0.47040425  0.43554244  1  0.058322  0.003392  0.101218  0.076534  0.00181  0.999872  0.002
H  H20  1  0.24371265  0.22246222  0.00836364  1  0.064849  -0.004234  0.102751  0.078215  -0.002276  1.015254  -0.003
H  H21  1  0.25628888  0.72245358  0.49164858  1  0.064933  -0.004232  0.102749  0.078257  -0.002275  1.015196  -0.003
H  H22  1  0.75630120  0.77754104  0.99164018  1  0.064866  0.004233  0.102741  0.078237  0.002276  1.01513  0.003
H  H23  1  0.74367486  0.27753971  0.50834755  1  0.064875  0.004231  0.102815  0.078289  0.002275  1.015149  0.003
H  H24  1  0.34403364  0.12336002  0.06934297  1  0.026843  -0.000268  0.103305  0.078187  -9.2e-05  0.998592  0.0
H  H25  1  0.15597198  0.62335004  0.43066211  1  0.026997  -0.000268  0.103353  0.078232  -9.2e-05  0.998609  0.0
H  H26  1  0.65597745  0.87664407  0.93066124  1  0.02702  0.000268  0.103384  0.078291  9.2e-05  0.998582  0.0
H  H27  1  0.84401382  0.37662415  0.56932827  1  0.027034  0.000268  0.103415  0.078414  9.2e-05  0.998279  0.0
H  H28  1  0.10140494  0.08588421  0.94170397  1  0.047746  -0.000744  0.10148  0.074552  -0.000514  1.035328  0.0
H  H29  1  0.39860130  0.58587099  0.55830265  1  0.047668  -0.000744  0.101474  0.074529  -0.000514  1.035417  0.0
H  H30  1  0.89860246  0.91412238  0.05830053  1  0.047571  0.000744  0.101458  0.074554  0.000514  1.035371  0.0
H  H31  1  0.60138208  0.41412729  0.44170276  1  0.047491  0.000744  0.101519  0.074636  0.000514  1.035325  0.0
H  H32  1  0.08947394  0.03526812  0.44646083  1  0.023786  -0.000371  0.09657  0.140714  -0.000252  0.999541  0.0
H  H33  1  0.41052032  0.53525990  0.05354687  1  0.023614  -0.000371  0.096676  0.140846  -0.000252  0.99961  0.0
H  H34  1  0.91053049  0.96474095  0.55353540  1  0.023643  0.000371  0.096686  0.140844  0.000252  0.999406  0.0
H  H35  1  0.58947140  0.46473755  0.94645938  1  0.023691  0.000371  0.0967  0.140841  0.000252  0.999541  0.0
H  H36  1  0.20118535  0.14298657  0.46932398  1  0.044742  -9.1e-05  0.091253  0.136292  -4e-06  1.035226  0.0
H  H37  1  0.29880553  0.64297629  0.03068033  1  0.044723  -9.1e-05  0.091271  0.136336  -4e-06  1.035288  0.0
H  H38  1  0.79881248  0.85703081  0.53066694  1  0.044778  9.1e-05  0.091297  0.136372  4e-06  1.035299  0.0
H  H39  1  0.70119181  0.35702863  0.96932914  1  0.04471  9.1e-05  0.091301  0.13636  4e-06  1.03529  0.0
H  H40  1  0.06313944  0.14648462  0.51892162  1  0.037077  -0.000208  0.089444  0.124054  -9.6e-05  1.003106  0.0
H  H41  1  0.43685221  0.64647229  0.98108435  1  0.037166  -0.000207  0.089449  0.124097  -9.6e-05  1.003289  0.0
H  H42  1  0.93685856  0.85352529  0.48107663  1  0.036989  0.000208  0.089418  0.124038  9.6e-05  1.003234  0.0
H  H43  1  0.56314411  0.35352432  0.01892103  1  0.037076  0.000207  0.089438  0.124085  9.6e-05  1.00319  0.0
H  H44  1  0.84635490  0.21247416  0.30579749  1  0.023628  2.6e-05  0.09364  0.134192  5.1e-05  0.992856  0.0
H  H45  1  0.65364090  0.71247157  0.19420576  1  0.023734  2.6e-05  0.093629  0.134206  5.1e-05  0.992857  0.0
H  H46  1  0.15363104  0.78751914  0.69419888  1  0.0237  -2.6e-05  0.093615  0.134144  -5.1e-05  0.992889  0.0
H  H47  1  0.34636474  0.28751841  0.80580255  1  0.023704  -2.6e-05  0.093602  0.134099  -5.1e-05  0.992951  0.0
H  H48  1  0.85644059  0.18562041  0.42348438  1  0.015923  2e-05  0.088402  0.120895  5.1e-05  1.027051  0.0
H  H49  1  0.64354851  0.68561402  0.07651348  1  0.01569  2e-05  0.088413  0.120909  5.1e-05  1.026948  0.0
H  H50  1  0.14354991  0.81437205  0.57650913  1  0.015304  -2e-05  0.088414  0.120885  -5.1e-05  1.026969  0.0
H  H51  1  0.35645617  0.31437595  0.92349340  1  0.015309  -2.1e-05  0.088419  0.120888  -5.2e-05  1.026991  0.0
H  H52  1  0.87829993  0.07550102  0.34886956  1  0.051228  -0.000215  0.098636  0.145705  -0.000144  0.983647  0.0
H  H53  1  0.62169256  0.57548987  0.15113301  1  0.05098  -0.000215  0.098626  0.145702  -0.000143  0.983703  0.0
H  H54  1  0.12169714  0.92449477  0.65112859  1  0.051288  0.000215  0.098667  0.145765  0.000144  0.983643  0.0
H  H55  1  0.37830843  0.42449927  0.84887417  1  0.051215  0.000215  0.098624  0.145671  0.000143  0.983643  0.0
H  H56  1  0.07332849  0.45912736  0.44014826  1  0.082552  -0.000196  0.107586  0.119205  -0.000102  1.036607  0.0
H  H57  1  0.42665885  0.95911423  0.05985118  1  0.082568  -0.000196  0.107544  0.119065  -0.000102  1.036739  0.0
H  H58  1  0.92665835  0.54087673  0.55984687  1  0.082716  0.000196  0.107598  0.119177  0.000102  1.036607  0.0
H  H59  1  0.57335144  0.04088156  0.94015826  1  0.082735  0.000196  0.107587  0.119154  0.000102  1.036643  0.0
H  H60  1  0.05661696  0.34574094  0.51425481  1  0.023829  -4.2e-05  0.099222  0.102712  -5e-06  1.006544  0.0
H  H61  1  0.44336898  0.84572284  0.98575175  1  0.023674  -4.2e-05  0.099271  0.10281  -5e-06  1.006465  0.0
H  H62  1  0.94337912  0.65426149  0.48574058  1  0.023675  4.2e-05  0.099241  0.102791  5e-06  1.006495  0.0
H  H63  1  0.55663758  0.15427627  0.01425665  1  0.023979  4.2e-05  0.099272  0.102824  5e-06  1.006456  0.0
H  H64  1  0.92647737  0.39385312  0.43732223  1  0.041248  0.000171  0.093491  0.094356  0.000112  1.031066  0.0
H  H65  1  0.57350973  0.89384316  0.06267528  1  0.04143  0.000171  0.093503  0.094392  0.000112  1.031203  0.0
H  H66  1  0.07351239  0.60614848  0.56267917  1  0.041344  -0.000171  0.093496  0.094405  -0.000112  1.031149  0.0
H  H67  1  0.42649771  0.10615014  0.93733122  1  0.04137  -0.000171  0.093513  0.094463  -0.000112  1.031183  0.0
H  H68  1  0.19175648  0.36386550  0.06110150  1  0.042091  0.000466  0.093764  0.134617  0.000267  1.019415  0.0
H  H69  1  0.30825116  0.86386760  0.43891170  1  0.041791  0.000466  0.0938  0.134634  0.000268  1.019485  0.0
H  H70  1  0.80825077  0.63614025  0.93889701  1  0.041984  -0.000466  0.093731  0.134561  -0.000267  1.019361  0.0
H  H71  1  0.69174507  0.13612818  0.56108969  1  0.041808  -0.000466  0.093779  0.134611  -0.000268  1.019433  0.0
H  H72  1  0.09947197  0.90466152  0.85678016  1  0.063384  -0.000103  0.093702  0.126521  -0.000271  1.047662  0.0
H  H73  1  0.40053343  0.40465533  0.64321855  1  0.063384  -0.000103  0.09364  0.126426  -0.000271  1.047593  0.0
H  H74  1  0.90053800  0.09534838  0.14321597  1  0.063431  0.000103  0.093658  0.126407  0.000271  1.0475  0.0
H  H75  1  0.59946283  0.59534876  0.35678417  1  0.063465  0.000103  0.093676  0.126474  0.000271  1.047507  0.0
H  H76  1  0.12120029  0.75881507  0.87856758  1  0.143506  -0.001201  0.097533  0.15637  -0.000654  1.043367  -0.001
H  H77  1  0.37880085  0.25880458  0.62143033  1  0.144035  -0.001201  0.097658  0.156387  -0.000654  1.043397  -0.001
H  H78  1  0.87880673  0.24119650  0.12142095  1  0.143867  0.001201  0.097624  0.156275  0.000654  1.043531  0.001
H  H79  1  0.62120292  0.74119702  0.37857713  1  0.144218  0.001201  0.097605  0.156377  0.000654  1.04345  0.001
H  H80  1  0.33039948  0.34770063  0.14000689  1  0.06442  0.000307  0.098238  0.149995  0.000127  0.992676  0.0
H  H81  1  0.16960891  0.84769540  0.36000169  1  0.064225  0.000306  0.098286  0.150044  0.000127  0.992687  0.0
H  H82  1  0.66960421  0.65230097  0.85999724  1  0.064464  -0.000306  0.098273  0.149989  -0.000127  0.992777  0.0
H  H83  1  0.83038727  0.15230454  0.63999770  1  0.064293  -0.000307  0.098309  0.150075  -0.000127  0.992656  0.0
H  H84  1  0.24976606  0.85232668  0.89452893  1  0.016262  0.000397  0.094571  0.135012  0.000267  1.000145  0.0
H  H85  1  0.25023458  0.35231743  0.60547249  1  0.016271  0.000396  0.094599  0.135012  0.000266  1.000111  0.0
H  H86  1  0.75024093  0.14768156  0.10545827  1  0.016443  -0.000396  0.094499  0.134868  -0.000266  1.000185  0.0
H  H87  1  0.74976370  0.64767752  0.39453774  1  0.016351  -0.000396  0.094579  0.135008  -0.000266  1.000109  0.0
H  H88  1  0.20430190  0.42289732  0.17069479  1  0.132854  -0.001006  0.099649  0.156972  -0.0005  1.040084  -0.001
H  H89  1  0.29570406  0.92289150  0.32931640  1  0.132829  -0.001006  0.09965  0.156994  -0.000499  1.040004  -0.001
H  H90  1  0.79569800  0.57710594  0.82930564  1  0.132905  0.001006  0.099646  0.156976  0.000499  1.039985  0.001
H  H91  1  0.70429497  0.07710512  0.67068594  1  0.132778  0.001006  0.099699  0.157074  0.000499  1.04009  0.001
C  C92  1  0.03505198  0.18755926  0.37593385  1  0.353447  -0.011876  0.083409  0.222985  -0.008524  3.852542  -0.01
C  C93  1  0.46494271  0.68755229  0.12406830  1  0.353098  -0.01188  0.08328  0.222704  -0.008526  3.852791  -0.01
C  C94  1  0.96493944  0.81244317  0.62405974  1  0.353538  0.01188  0.08331  0.222874  0.008526  3.852552  0.01
C  C95  1  0.53506561  0.31243934  0.87593630  1  0.353325  0.011877  0.08335  0.222796  0.008524  3.852478  0.01
C  C96  1  0.02323243  0.66370507  0.16305382  1  0.288002  -0.011121  -0.056326  -0.108673  -0.008088  3.941606  -0.009
C  C97  1  0.47676481  0.16369984  0.33694255  1  0.287639  -0.011122  -0.056319  -0.108623  -0.008088  3.941397  -0.009
C  C98  1  0.97677451  0.33629404  0.83693138  1  0.288059  0.011118  -0.056162  -0.108421  0.008087  3.941348  0.009
C  C99  1  0.52323253  0.83630093  0.66306692  1  0.287789  0.011118  -0.056202  -0.108633  0.008087  3.941489  0.009
C  C100  1  0.06755084  0.77592225  0.13574428  1  0.768587  0.003273  0.115517  0.3441  0.001158  4.086179  0.004
C  C101  1  0.43245158  0.27591284  0.36425754  1  0.768466  0.003271  0.115564  0.34424  0.001156  4.086075  0.004
C  C102  1  0.93246454  0.22408184  0.86424575  1  0.767977  -0.003269  0.1154  0.344081  -0.001157  4.086117  -0.004
C  C103  1  0.56753923  0.72408543  0.63574928  1  0.767901  -0.00327  0.115466  0.344151  -0.001157  4.086197  -0.004
C  C104  1  0.08691083  0.15396469  0.29117738  1  0.733697  0.003171  0.123838  0.299807  0.001088  4.032613  0.004
C  C105  1  0.41309313  0.65396455  0.20883093  1  0.733208  0.003168  0.123946  0.299955  0.001088  4.032601  0.004
C  C106  1  0.91308347  0.84603940  0.70882050  1  0.733549  -0.00317  0.123939  0.300016  -0.001088  4.032808  -0.004
C  C107  1  0.58691243  0.34602874  0.79117405  1  0.732963  -0.003168  0.123877  0.299928  -0.001088  4.032605  -0.004
C  C108  1  0.09218196  0.76994985  0.04693856  1  -0.043792  -0.005803  -0.067319  -0.350902  -0.003862  3.996857  -0.006
C  C109  1  0.40781663  0.26993823  0.45305888  1  -0.043744  -0.005808  -0.067367  -0.350837  -0.003865  3.997017  -0.006
C  C110  1  0.90782972  0.23005673  0.95305176  1  -0.043788  0.005807  -0.067258  -0.350833  0.003864  3.996859  0.006
C  C111  1  0.59217600  0.73005756  0.54694680  1  -0.043714  0.005808  -0.067351  -0.350858  0.003864  3.996961  0.006
C  C112  1  0.12888813  0.24761477  0.24965562  1  0.035062  -0.005827  -0.060181  -0.331282  -0.003941  4.010369  -0.006
C  C113  1  0.37112726  0.74761467  0.25035208  1  0.035554  -0.005826  -0.060104  -0.331176  -0.003942  4.010258  -0.006
C  C114  1  0.87111258  0.75239015  0.75033957  1  0.035107  0.005829  -0.060206  -0.331341  0.003942  4.010373  0.006
C  C115  1  0.62887083  0.25238361  0.74965016  1  0.035651  0.005826  -0.060247  -0.331494  0.003941  4.010389  0.006
C  C116  1  0.06160823  0.65571691  0.01496036  1  1.351958  0.00047  0.220904  0.474282  0.000303  4.19898  0.0
C  C117  1  0.43838532  0.15570550  0.48503761  1  1.351791  0.00047  0.220839  0.474114  0.000303  4.199238  0.0
C  C118  1  0.93840348  0.34429216  0.98503129  1  1.352294  -0.00047  0.220961  0.474604  -0.000303  4.198778  0.0
C  C119  1  0.56161207  0.84429610  0.51497386  1  1.351775  -0.00047  0.221099  0.474623  -0.000303  4.198698  0.0
C  C120  1  0.11172498  0.34454052  0.30623484  1  1.29879  0.001001  0.22438  0.450051  0.000759  4.163989  0.001
C  C121  1  0.38828247  0.84453527  0.19377363  1  1.299248  0.001001  0.224459  0.450146  0.000759  4.164259  0.001
C  C122  1  0.88826653  0.65546025  0.69376275  1  1.298425  -0.001001  0.224413  0.450184  -0.000759  4.163874  -0.001
C  C123  1  0.61171657  0.15546135  0.80622936  1  1.298811  -0.001001  0.224478  0.450181  -0.000759  4.163951  -0.001
C  C124  1  0.17936598  0.24622855  0.16733325  1  0.609063  0.002342  0.151008  0.37698  0.000544  3.928247  0.002
C  C125  1  0.32064764  0.74622447  0.33267826  1  0.607828  0.002334  0.1509  0.377024  0.000544  3.928097  0.002
C  C126  1  0.82063580  0.75377637  0.83266869  1  0.608985  -0.002341  0.151038  0.377089  -0.000544  3.928267  -0.002
C  C127  1  0.67934480  0.25377049  0.66731943  1  0.607813  -0.002335  0.150902  0.377101  -0.000545  3.927905  -0.002
C  C128  1  0.13312062  0.86015435  0.99693449  1  0.591987  0.003396  0.143064  0.359943  0.001281  3.952519  0.003
C  C129  1  0.36687532  0.36015417  0.50306249  1  0.592107  0.003396  0.143154  0.359834  0.001282  3.952624  0.003
C  C130  1  0.86689755  0.13984476  0.00305648  1  0.592025  -0.003395  0.14319  0.35983  -0.001281  3.952546  -0.003
C  C131  1  0.63311550  0.63984576  0.49694500  1  0.592521  -0.003396  0.143141  0.359819  -0.001282  3.952688  -0.003
C  C132  1  0.18616005  0.05308806  0.98255461  1  0.279421  -0.003232  -0.072389  -0.051683  -0.00291  3.96255  -0.002
C  C133  1  0.31384142  0.55308192  0.51745145  1  0.278777  -0.003231  -0.07241  -0.051736  -0.002909  3.962425  -0.002
C  C134  1  0.81385188  0.94691686  0.01744637  1  0.279234  0.003231  -0.07246  -0.05184  0.00291  3.962695  0.002
C  C135  1  0.68614273  0.44691719  0.48254739  1  0.27891  0.003232  -0.072503  -0.051832  0.002909  3.96254  0.002
C  C136  1  0.24595011  0.14379059  0.04555857  1  0.315954  -0.003616  -0.07193  -0.056452  -0.00316  3.983735  -0.002
C  C137  1  0.25405752  0.64378845  0.45445009  1  0.316036  -0.003611  -0.072043  -0.05658  -0.003158  3.983713  -0.002
C  C138  1  0.75406093  0.85621267  0.95444364  1  0.31557  0.003617  -0.072054  -0.05649  0.003158  3.983945  0.002
C  C139  1  0.74592376  0.35620567  0.54554449  1  0.315562  0.003615  -0.072165  -0.056717  0.003158  3.983712  0.002
C  C140  1  0.10172923  0.12483958  0.45798240  1  -0.048531  -9.2e-05  -0.23933  -0.427596  -0.000183  3.871727  0.0
C  C141  1  0.39826067  0.62483045  0.04202243  1  -0.048418  -9.2e-05  -0.239387  -0.427704  -0.000183  3.872222  0.0
C  C142  1  0.89826507  0.87516617  0.54201547  1  -0.048403  9.3e-05  -0.239456  -0.427791  0.000183  3.87208  0.0
C  C143  1  0.60173747  0.37516617  0.95798180  1  -0.048489  9.2e-05  -0.239464  -0.427806  0.000183  3.872116  0.0
C  C144  1  0.89493273  0.16422619  0.36248155  1  -0.03627  0.000308  -0.236348  -0.428539  0.000189  3.877668  0.0
C  C145  1  0.60506288  0.66421743  0.13752156  1  -0.035802  0.000309  -0.236287  -0.428496  0.000189  3.877572  0.0
C  C146  1  0.10505974  0.83577209  0.63751747  1  -0.035783  -0.000308  -0.236321  -0.428465  -0.000189  3.877435  0.0
C  C147  1  0.39494274  0.33577337  0.86248608  1  -0.035632  -0.000309  -0.236221  -0.428264  -0.000189  3.877393  0.0
C  C148  1  0.02723071  0.37944321  0.44640433  1  0.312279  -0.000406  -0.133644  -0.23796  -0.000328  3.95703  0.0
C  C149  1  0.47276377  0.87943101  0.05359695  1  0.311886  -0.000406  -0.133742  -0.238056  -0.000328  3.957259  0.0
C  C150  1  0.97276072  0.62056005  0.55358926  1  0.311547  0.000406  -0.133746  -0.238104  0.000328  3.957305  0.0
C  C151  1  0.52724649  0.12056311  0.94641116  1  0.311317  0.000406  -0.133777  -0.238237  0.000328  3.957149  0.0
C  C152  1  0.15124793  0.84229223  0.90085881  1  -0.127509  -0.012589  -0.246158  -0.46805  -0.009028  3.910977  -0.01
C  C153  1  0.34875269  0.34227825  0.59914324  1  -0.127968  -0.012598  -0.246322  -0.46799  -0.009034  3.910599  -0.01
C  C154  1  0.84876199  0.15772266  0.09913532  1  -0.127872  0.012596  -0.246185  -0.467631  0.009033  3.910465  0.01
C  C155  1  0.65124550  0.65772169  0.40086299  1  -0.128292  0.012597  -0.246236  -0.467934  0.009034  3.910532  0.01
C  C156  1  0.22871236  0.35145774  0.13245315  1  -0.099027  -0.012634  -0.245611  -0.46737  -0.009088  3.901636  -0.01
C  C157  1  0.27129886  0.85145615  0.36755705  1  -0.097354  -0.012626  -0.245691  -0.467586  -0.009088  3.901733  -0.01
C  C158  1  0.77129031  0.64854635  0.86754689  1  -0.098902  0.012633  -0.245634  -0.467375  0.009088  3.901647  0.01
C  C159  1  0.72869740  0.14853881  0.63244567  1  -0.097428  0.012626  -0.245743  -0.467659  0.009088  3.901789  0.01
N  N160  1  0.15345509  0.95844606  0.03450599  1  -1.152497  -0.102434  -0.394396  -0.352503  -0.07046  3.508024  -0.087
N  N161  1  0.34654354  0.45843182  0.46550188  1  -1.152337  -0.102415  -0.394206  -0.352179  -0.070449  3.50829  -0.087
N  N162  1  0.84656143  0.04156218  0.96549345  1  -1.152078  0.102418  -0.394246  -0.352345  0.07045  3.508463  0.087
N  N163  1  0.65344539  0.54156396  0.53450342  1  -1.152451  0.10241  -0.394216  -0.352334  0.070444  3.508382  0.087
N  N164  1  0.18393469  0.15177526  0.12393578  1  -1.175638  -0.108582  -0.391826  -0.344007  -0.074653  3.491234  -0.092
N  N165  1  0.31608129  0.65177466  0.37607307  1  -1.176041  -0.108548  -0.391769  -0.344067  -0.074629  3.491277  -0.092
N  N166  1  0.81607443  0.84822384  0.87606358  1  -1.175553  0.108548  -0.391828  -0.34414  0.074634  3.491632  0.092
N  N167  1  0.68391310  0.34822030  0.62392880  1  -1.175403  0.10855  -0.391732  -0.344089  0.074633  3.491257  0.092
N  N168  1  0.06176857  0.30651364  0.37919072  1  -1.187265  -0.000629  -0.291552  -0.145224  -0.000232  3.624416  0.0
N  N169  1  0.43822206  0.80650492  0.12081597  1  -1.186838  -0.00063  -0.291492  -0.145071  -0.000233  3.624696  0.0
N  N170  1  0.93821539  0.69348879  0.62080014  1  -1.186569  0.000629  -0.29151  -0.145252  0.000232  3.624197  0.0
N  N171  1  0.56178631  0.19349086  0.87919062  1  -1.186525  0.000629  -0.291588  -0.145088  0.000232  3.624414  0.0
N  N172  1  0.02108042  0.59837549  0.08259448  1  -1.266459  -0.001113  -0.429174  -0.366871  -0.000523  3.538823  0.0
N  N173  1  0.47891931  0.09837141  0.41739998  1  -1.266263  -0.001114  -0.429257  -0.367015  -0.000524  3.539108  0.0
N  N174  1  0.97893398  0.40162195  0.91739346  1  -1.266601  0.001113  -0.429308  -0.367262  0.000523  3.539014  0.0
N  N175  1  0.52108534  0.90162936  0.58260557  1  -1.266663  0.001114  -0.42926  -0.367201  0.000524  3.539315  0.0
O  O176  1  0.07450155  0.85777993  0.18996493  1  -1.10151  -0.093363  -0.30981  -0.447867  -0.064112  2.411758  -0.086
O  O177  1  0.42550393  0.35778275  0.31003608  1  -1.101361  -0.093389  -0.309889  -0.448079  -0.06413  2.411587  -0.086
O  O178  1  0.92551298  0.14221004  0.81002834  1  -1.101651  0.093389  -0.309893  -0.448043  0.06413  2.411375  0.086
O  O179  1  0.57448683  0.64221220  0.68996874  1  -1.101486  0.093387  -0.309915  -0.448057  0.064129  2.411415  0.086
O  O180  1  0.08451844  0.05174028  0.26914959  1  -1.101692  -0.092721  -0.304161  -0.431604  -0.063463  2.425382  -0.085
O  O181  1  0.41546644  0.55173358  0.23084990  1  -1.101717  -0.092746  -0.304282  -0.431753  -0.06348  2.425349  -0.085
O  O182  1  0.91548136  0.94826714  0.73084617  1  -1.101745  0.092738  -0.304223  -0.431714  0.063473  2.425393  0.085
O  O183  1  0.58452886  0.44826304  0.76915139  1  -1.101592  0.092753  -0.304223  -0.431629  0.063484  2.425223  0.085
O  O184  1  0.13623680  0.44474592  0.29576872  1  -1.1742  0.000817  -0.319049  -0.538475  0.000509  2.233342  0.0
O  O185  1  0.36376642  0.94474562  0.20424025  1  -1.174159  0.000817  -0.319145  -0.538641  0.000509  2.23331  0.0
O  O186  1  0.86375467  0.55525651  0.70422687  1  -1.173868  -0.000818  -0.319035  -0.538555  -0.00051  2.233552  0.0
O  O187  1  0.63622706  0.05525017  0.79576219  1  -1.174194  -0.000818  -0.319108  -0.538615  -0.00051  2.233126  0.0
O  O188  1  0.06959635  0.61469108  0.93921122  1  -1.180589  0.000182  -0.315723  -0.506667  0.000147  2.172339  0.0
O  O189  1  0.43039495  0.11467884  0.56078467  1  -1.180647  0.000183  -0.315663  -0.506548  0.000147  2.172442  0.0
O  O190  1  0.93040872  0.38532049  0.06077312  1  -1.180642  -0.000183  -0.315754  -0.506802  -0.000147  2.172269  0.0
O  O191  1  0.56961165  0.88532275  0.43922506  1  -1.180433  -0.000182  -0.315852  -0.506867  -0.000147  2.171973  0.0
