# generated using pymatgen
data_Na2H8C8O11
_symmetry_space_group_name_H-M   'P 1'
_cell_length_a   6.22128201
_cell_length_b   8.62641489
_cell_length_c   11.38448099
_cell_angle_alpha   112.26115448
_cell_angle_beta   90.40540292
_cell_angle_gamma   90.00816563
_symmetry_Int_Tables_number   1
_chemical_formula_structural   Na2H8C8O11
_chemical_formula_sum   'Na4 H16 C16 O22'
_cell_volume   565.42030983
_cell_formula_units_Z   2
loop_
 _symmetry_equiv_pos_site_id
 _symmetry_equiv_pos_as_xyz
  1  'x, y, z'
loop_
 _atom_site_type_symbol
 _atom_site_label
 _atom_site_symmetry_multiplicity
 _atom_site_fract_x
 _atom_site_fract_y
 _atom_site_fract_z
 _atom_site_occupancy
 _atom_site_hle17_bader_spin_density
 _atom_site_hle17_ddec_charge
 _atom_site_hle17_ddec_spin_density
 _atom_site_hle17_ddec_sum_bond_order
 _atom_site_hle17_magmom
 _atom_site_hse06_10hf_bader_spin_density
 _atom_site_hse06_10hf_ddec_charge
 _atom_site_hse06_10hf_ddec_spin_density
 _atom_site_hse06_10hf_ddec_sum_bond_order
 _atom_site_hse06_10hf_magmom
 _atom_site_hse06_bader_spin_density
 _atom_site_hse06_ddec_charge
 _atom_site_hse06_ddec_spin_density
 _atom_site_hse06_ddec_sum_bond_order
 _atom_site_hse06_magmom
 _atom_site_pbe_bader_spin_density
 _atom_site_pbe_cm5_charge
 _atom_site_pbe_ddec_charge
 _atom_site_pbe_ddec_spin_density
 _atom_site_pbe_ddec_sum_bond_order
 _atom_site_pbe_magmom
Na  Na0  1  0.50761554  0.27310440  0.90526547  1  0  0.90826  0  0.34319  0  0  0.856963  0  0.496071  0  0  0.868946  0  0.47351  0  0  0.652558  0.848211  0  0.512182  0
Na  Na1  1  0.99254948  0.36796487  0.09460680  1  0  0.908252  0  0.343607  0  0  0.857003  0  0.496673  0  0  0.869046  0  0.473934  0  0  0.652903  0.848193  0  0.512932  0
Na  Na2  1  0.49238531  0.72690090  0.09474237  1  0  0.90825  0  0.343208  0  0  0.856956  0  0.496075  0  0  0.868935  0  0.473523  0  0  0.652556  0.848203  0  0.512188  0
Na  Na3  1  0.00745138  0.63204042  0.90539754  1  0  0.908263  0  0.34359  0  0  0.857017  0  0.496646  0  0  0.869062  0  0.473905  0  0  0.652905  0.848209  0  0.512905  0
H  H4  1  0.57900027  0.37633369  0.58131257  1  0  0.110435  0  0.935557  0  0  0.109419  0  1.008118  0  0  0.113339  0  1.004548  0  0  0.119717  0.106641  0  1.010787  0
H  H5  1  0.92056923  0.79520914  0.41888419  1  0  0.110265  0  0.93702  0  0  0.109696  0  1.008675  0  0  0.113639  0  1.005077  0  0  0.119826  0.106865  0  1.01139  0
H  H6  1  0.42100210  0.62365783  0.41869573  1  0  0.110458  0  0.935704  0  0  0.109431  0  1.008168  0  0  0.113345  0  1.004596  0  0  0.11975  0.106658  0  1.010839  0
H  H7  1  0.07943160  0.20479114  0.58112398  1  0  0.11035  0  0.936894  0  0  0.109765  0  1.008598  0  0  0.113738  0  1.004968  0  0  0.119851  0.106933  0  1.011311  0
H  H8  1  0.79194478  0.00893805  0.69030260  1  0  0.397695  0  0.910207  0  0  0.363546  0  0.992472  0  0  0.37672  0  0.976026  0  0  0.299463  0.354375  0  1.000887  0
H  H9  1  0.70807591  0.31871013  0.30954478  1  0  0.39841  0  0.90893  0  0  0.364  0  0.991773  0  0  0.37717  0  0.975309  0  0  0.299585  0.354831  0  1.000184  0
H  H10  1  0.20805441  0.99105472  0.30969725  1  0  0.397735  0  0.910164  0  0  0.363572  0  0.992447  0  0  0.376745  0  0.975994  0  0  0.299447  0.3544  0  1.000871  0
H  H11  1  0.29192494  0.68129516  0.69046219  1  0  0.398473  0  0.908821  0  0  0.363973  0  0.991844  0  0  0.377139  0  0.975363  0  0  0.29957  0.354804  0  1.000255  0
H  H12  1  0.80906506  0.56407036  0.51422249  1  0  0.115232  0  0.91925  0  0  0.117803  0  0.982745  0  0  0.121558  0  0.979813  0  0  0.123476  0.115105  0  0.984953  0
H  H13  1  0.69107776  0.05012389  0.48573786  1  0  0.115301  0  0.91985  0  0  0.118236  0  0.982885  0  0  0.121977  0  0.979968  0  0  0.123449  0.115557  0  0.985096  0
H  H14  1  0.19092770  0.43592116  0.48577785  1  0  0.115255  0  0.919157  0  0  0.117844  0  0.982655  0  0  0.121598  0  0.979726  0  0  0.123513  0.115142  0  0.98486  0
H  H15  1  0.30893434  0.94988390  0.51427339  1  0  0.115246  0  0.919847  0  0  0.118223  0  0.982884  0  0  0.121947  0  0.979968  0  0  0.123483  0.115541  0  0.985094  0
H  H16  1  0.79465410  0.03353292  0.93065461  1  0  0.424011  0  0.875696  0  0  0.396965  0  0.933523  0  0  0.406885  0  0.91876  0  0  0.2941  0.389944  0  0.943977  0
H  H17  1  0.70566151  0.10293993  0.06929037  1  0  0.423692  0  0.876025  0  0  0.396621  0  0.933861  0  0  0.406518  0  0.919124  0  0  0.294018  0.389607  0  0.944314  0
H  H18  1  0.20534675  0.96647113  0.06935024  1  0  0.424021  0  0.875678  0  0  0.396958  0  0.933535  0  0  0.40688  0  0.918775  0  0  0.29405  0.389932  0  0.943996  0
H  H19  1  0.29434093  0.89706160  0.93071553  1  0  0.423706  0  0.875989  0  0  0.396637  0  0.933823  0  0  0.406535  0  0.919086  0  0  0.294017  0.389622  0  0.944278  0
C  C20  1  0.80359085  0.77970256  0.69703386  1  0  0.669764  0  3.830826  0  0  0.611216  0  4.142747  0  0  0.644276  0  4.133787  0  0  0.22917  0.588626  0  4.148485  0
C  C21  1  0.69654345  0.08275742  0.30287185  1  0  0.670891  0  3.828526  0  0  0.611816  0  4.141364  0  0  0.644845  0  4.132402  0  0  0.229312  0.589265  0  4.147103  0
C  C22  1  0.19640516  0.22029523  0.30296565  1  0  0.669877  0  3.830777  0  0  0.611352  0  4.142681  0  0  0.644417  0  4.133711  0  0  0.229246  0.588756  0  4.148412  0
C  C23  1  0.30345257  0.91724537  0.69713438  1  0  0.671179  0  3.827912  0  0  0.612046  0  4.140914  0  0  0.645057  0  4.131941  0  0  0.22943  0.589493  0  4.146654  0
C  C24  1  0.51756236  0.54729556  0.77782018  1  0  0.686312  0  3.890695  0  0  0.63316  0  4.198862  0  0  0.666245  0  4.189144  0  0  0.221434  0.610712  0  4.204809  0
C  C25  1  0.98256466  0.76938877  0.22236944  1  0  0.686633  0  3.892739  0  0  0.63332  0  4.200881  0  0  0.666413  0  4.191152  0  0  0.221674  0.610831  0  4.20686  0
C  C26  1  0.48243848  0.45270848  0.22218906  1  0  0.686145  0  3.89102  0  0  0.633033  0  4.198994  0  0  0.666111  0  4.189279  0  0  0.22136  0.610588  0  4.204933  0
C  C27  1  0.01743133  0.23061027  0.77763834  1  0  0.686838  0  3.892517  0  0  0.633424  0  4.200852  0  0  0.666534  0  4.1911  0  0  0.221695  0.61093  0  4.206839  0
C  C28  1  0.64834626  0.48567249  0.65684042  1  0  -0.02238  0  3.586492  0  0  -0.046386  0  3.847262  0  0  -0.045072  0  3.851554  0  0  -0.006435  -0.047955  0  3.845532  0
C  C29  1  0.85155228  0.82897285  0.34326023  1  0  -0.022889  0  3.589127  0  0  -0.046886  0  3.849419  0  0  -0.045518  0  3.853514  0  0  -0.006672  -0.048391  0  3.84776  0
C  C30  1  0.35165455  0.51432529  0.34316527  1  0  -0.022621  0  3.587014  0  0  -0.046381  0  3.847329  0  0  -0.045038  0  3.851584  0  0  -0.006506  -0.047986  0  3.845639  0
C  C31  1  0.14845177  0.17102868  0.65674831  1  0  -0.022929  0  3.589043  0  0  -0.046953  0  3.849548  0  0  -0.045632  0  3.853621  0  0  -0.006647  -0.048455  0  3.847881  0
C  C32  1  0.78451822  0.59698289  0.61573687  1  0  -0.032369  0  3.592858  0  0  -0.05645  0  3.857059  0  0  -0.055991  0  3.859767  0  0  -0.011042  -0.056754  0  3.855291  0
C  C33  1  0.71562085  0.98145035  0.38424556  1  0  -0.032939  0  3.593532  0  0  -0.057835  0  3.85885  0  0  -0.057357  0  3.861538  0  0  -0.01156  -0.058235  0  3.857196  0
C  C34  1  0.21547616  0.40301239  0.38426455  1  0  -0.032166  0  3.592603  0  0  -0.056423  0  3.856883  0  0  -0.055972  0  3.859593  0  0  -0.011024  -0.056695  0  3.855073  0
C  C35  1  0.28438644  0.01855870  0.61576603  1  0  -0.032767  0  3.593417  0  0  -0.057807  0  3.859042  0  0  -0.057259  0  3.86164  0  0  -0.011585  -0.058198  0  3.857373  0
O  O36  1  0.75017063  0.13766827  0.99994620  1  0  -0.928422  0  1.818083  0  0  -0.888302  0  1.994243  0  0  -0.903325  0  1.960425  0  0  -0.702399  -0.8776  0  2.017857  0
O  O37  1  0.24983021  0.86233453  0.00005917  1  0  -0.928454  0  1.81801  0  0  -0.888319  0  1.994152  0  0  -0.903348  0  1.960327  0  0  -0.702363  -0.877614  0  2.017775  0
O  O38  1  0.59791798  0.54508268  0.87863618  1  0  -0.706003  0  1.932562  0  0  -0.666239  0  2.178169  0  0  -0.685367  0  2.163046  0  0  -0.392824  -0.652921  0  2.188285  0
O  O39  1  0.90240138  0.66611163  0.12159231  1  0  -0.705899  0  1.93199  0  0  -0.666648  0  2.178571  0  0  -0.68573  0  2.163321  0  0  -0.393155  -0.653352  0  2.188792  0
O  O40  1  0.40208448  0.45492386  0.12137203  1  0  -0.705862  0  1.93259  0  0  -0.66616  0  2.178199  0  0  -0.685288  0  2.16308  0  0  -0.392741  -0.652841  0  2.18831  0
O  O41  1  0.09759302  0.33388992  0.87841531  1  0  -0.706061  0  1.932048  0  0  -0.666767  0  2.178696  0  0  -0.685857  0  2.163436  0  0  -0.393217  -0.653469  0  2.18892  0
O  O42  1  0.32404786  0.58974174  0.76423341  1  0  -0.6421  0  2.035916  0  0  -0.587769  0  2.275756  0  0  -0.613582  0  2.264225  0  0  -0.346732  -0.569686  0  2.282161  0
O  O43  1  0.17601457  0.82557860  0.23603404  1  0  -0.641385  0  2.036926  0  0  -0.58731  0  2.276485  0  0  -0.613145  0  2.265037  0  0  -0.346816  -0.569208  0  2.282863  0
O  O44  1  0.67595299  0.41026105  0.23577108  1  0  -0.64203  0  2.036036  0  0  -0.5878  0  2.275801  0  0  -0.613617  0  2.264285  0  0  -0.346765  -0.569716  0  2.282203  0
O  O45  1  0.82398464  0.17441918  0.76397252  1  0  -0.64147  0  2.03685  0  0  -0.587343  0  2.276445  0  0  -0.613188  0  2.264993  0  0  -0.346836  -0.569242  0  2.282826  0
O  O46  1  0.87809377  0.48346756  0.66755614  1  0  -0.289808  0  2.001679  0  0  -0.242082  0  2.237861  0  0  -0.254391  0  2.23758  0  0  -0.211524  -0.233301  0  2.237915  0
O  O47  1  0.62177280  0.81616399  0.33250027  1  0  -0.289912  0  2.001664  0  0  -0.241676  0  2.237436  0  0  -0.253992  0  2.237105  0  0  -0.211618  -0.232892  0  2.237526  0
O  O48  1  0.12190546  0.51653398  0.33244974  1  0  -0.289837  0  2.00173  0  0  -0.242113  0  2.237828  0  0  -0.254428  0  2.237537  0  0  -0.211541  -0.233337  0  2.237889  0
O  O49  1  0.37822966  0.18384507  0.66751217  1  0  -0.290092  0  2.001922  0  0  -0.24168  0  2.23764  0  0  -0.254015  0  2.237304  0  0  -0.211634  -0.232902  0  2.237731  0
O  O50  1  0.76680204  0.87594165  0.63308541  1  0  -0.563804  0  2.099674  0  0  -0.504345  0  2.329231  0  0  -0.530064  0  2.315379  0  0  -0.316112  -0.486342  0  2.336206  0
O  O51  1  0.73330161  0.24293664  0.36680332  1  0  -0.564785  0  2.098432  0  0  -0.505313  0  2.328857  0  0  -0.531038  0  2.315047  0  0  -0.316933  -0.487337  0  2.335856  0
O  O52  1  0.23319235  0.12405363  0.36691338  1  0  -0.563906  0  2.099698  0  0  -0.504429  0  2.329213  0  0  -0.53016  0  2.315379  0  0  -0.316132  -0.486427  0  2.33619  0
O  O53  1  0.26669763  0.75706740  0.63320328  1  0  -0.56491  0  2.098248  0  0  -0.50536  0  2.3288  0  0  -0.531092  0  2.314989  0  0  -0.316943  -0.487382  0  2.335803  0
O  O54  1  0.84860907  0.82815517  0.81157978  1  0  -0.59105  0  1.985761  0  0  -0.541369  0  2.2082  0  0  -0.561612  0  2.197929  0  0  -0.303691  -0.527493  0  2.215171  0
O  O55  1  0.65152923  0.01663819  0.18832532  1  0  -0.591393  0  1.985072  0  0  -0.541131  0  2.207364  0  0  -0.561357  0  2.197104  0  0  -0.303145  -0.527269  0  2.214323  0
O  O56  1  0.15139338  0.17184511  0.18842137  1  0  -0.591139  0  1.985815  0  0  -0.541445  0  2.208238  0  0  -0.561688  0  2.197963  0  0  -0.303734  -0.52757  0  2.215212  0
O  O57  1  0.34847160  0.98336460  0.81168532  1  0  -0.591571  0  1.984773  0  0  -0.541271  0  2.207109  0  0  -0.561499  0  2.196852  0  0  -0.303233  -0.527407  0  2.214071  0
