# generated using pymatgen
data_Na2UH8C8(NO7)2
_symmetry_space_group_name_H-M   'P 1'
_cell_length_a   5.52823976
_cell_length_b   6.59035077
_cell_length_c   10.36395208
_cell_angle_alpha   78.13916947
_cell_angle_beta   87.23893611
_cell_angle_gamma   81.81947219
_symmetry_Int_Tables_number   1
_chemical_formula_structural   Na2UH8C8(NO7)2
_chemical_formula_sum   'Na2 U1 H8 C8 N2 O14'
_cell_volume   365.69872191
_cell_formula_units_Z   1
loop_
 _symmetry_equiv_pos_site_id
 _symmetry_equiv_pos_as_xyz
  1  'x, y, z'
loop_
 _atom_site_type_symbol
 _atom_site_label
 _atom_site_symmetry_multiplicity
 _atom_site_fract_x
 _atom_site_fract_y
 _atom_site_fract_z
 _atom_site_occupancy
 _atom_site_hle17_bader_spin_density
 _atom_site_hle17_ddec_charge
 _atom_site_hle17_ddec_spin_density
 _atom_site_hle17_ddec_sum_bond_order
 _atom_site_hle17_magmom
 _atom_site_hse06_10hf_bader_spin_density
 _atom_site_hse06_10hf_ddec_charge
 _atom_site_hse06_10hf_ddec_spin_density
 _atom_site_hse06_10hf_ddec_sum_bond_order
 _atom_site_hse06_10hf_magmom
 _atom_site_hse06_bader_spin_density
 _atom_site_hse06_ddec_charge
 _atom_site_hse06_ddec_spin_density
 _atom_site_hse06_ddec_sum_bond_order
 _atom_site_hse06_magmom
 _atom_site_pbe_bader_spin_density
 _atom_site_pbe_cm5_charge
 _atom_site_pbe_ddec_charge
 _atom_site_pbe_ddec_spin_density
 _atom_site_pbe_ddec_sum_bond_order
 _atom_site_pbe_magmom
Na  Na0  1  0.78408507  0.33165617  0.01366467  1  0  0.910784  0  0.361213  0  0  0.875177  0  0.502972  0  0  0.885116  0  0.480503  0  0  0.679313  0.867339  0  0.519812  0
Na  Na1  1  0.21589890  0.66833576  0.98634128  1  0  0.910787  0  0.361127  0  0  0.875188  0  0.502879  0  0  0.885131  0  0.480411  0  0  0.679261  0.867355  0  0.519717  0
U  U2  1  0.99999286  0.50000407  0.50000382  1  0  2.376009  0  4.195251  0  0  2.406192  0  4.865628  0  0  2.518235  0  4.831823  0  0  2.161298  2.326963  0  4.890636  0
H  H3  1  0.30800422  0.28760418  0.87769675  1  0  0.433782  0  0.863151  0  0  0.407436  0  0.918996  0  0  0.416919  0  0.905017  0  0  0.29602  0.400715  0  0.9289  0
H  H4  1  0.69198086  0.71239218  0.12229985  1  0  0.43375  0  0.86319  0  0  0.407398  0  0.919048  0  0  0.416882  0  0.905068  0  0  0.296026  0.400671  0  0.928957  0
H  H5  1  0.07943358  0.43392681  0.80866003  1  0  0.415803  0  0.888841  0  0  0.385841  0  0.953462  0  0  0.395383  0  0.939218  0  0  0.299612  0.379155  0  0.963447  0
H  H6  1  0.92053460  0.56607288  0.19134617  1  0  0.415869  0  0.888781  0  0  0.385872  0  0.953433  0  0  0.395414  0  0.939192  0  0  0.299614  0.379186  0  0.96342  0
H  H7  1  0.71019384  0.17982444  0.78878309  1  0  0.429252  0  0.865561  0  0  0.397327  0  0.934425  0  0  0.408507  0  0.917818  0  0  0.299797  0.389372  0  0.946243  0
H  H8  1  0.28981754  0.82017695  0.21121698  1  0  0.429328  0  0.865267  0  0  0.397326  0  0.934402  0  0  0.408513  0  0.917783  0  0  0.299737  0.389373  0  0.946217  0
H  H9  1  0.60245811  0.99256258  0.87787232  1  0  0.427047  0  0.856872  0  0  0.400414  0  0.920244  0  0  0.409136  0  0.907508  0  0  0.307738  0.39419  0  0.929357  0
H  H10  1  0.39752949  0.00745115  0.12212560  1  0  0.427081  0  0.856864  0  0  0.400391  0  0.920276  0  0  0.409112  0  0.907543  0  0  0.307758  0.394175  0  0.929374  0
C  C11  1  0.66874878  0.99591468  0.39980495  1  0  0.102529  0  3.612887  0  0  0.100403  0  3.861636  0  0  0.103646  0  3.873036  0  0  0.158751  0.097664  0  3.854787  0
C  C12  1  0.33127275  0.00406945  0.60019444  1  0  0.102664  0  3.613318  0  0  0.100574  0  3.861888  0  0  0.103819  0  3.873281  0  0  0.158825  0.097833  0  3.855043  0
C  C13  1  0.88841435  0.98362054  0.30666738  1  0  0.642425  0  3.90369  0  0  0.595793  0  4.210005  0  0  0.630165  0  4.200598  0  0  0.233941  0.572242  0  4.215803  0
C  C14  1  0.11161324  0.01639208  0.69333551  1  0  0.642049  0  3.903901  0  0  0.595592  0  4.209902  0  0  0.62996  0  4.200496  0  0  0.233918  0.572037  0  4.215703  0
C  C15  1  0.45678265  0.14429830  0.38523869  1  0  0.115926  0  3.601353  0  0  0.117037  0  3.843117  0  0  0.12089  0  3.853786  0  0  0.163373  0.113863  0  3.836797  0
C  C16  1  0.54324578  0.85573125  0.61475212  1  0  0.116008  0  3.601551  0  0  0.117074  0  3.843195  0  0  0.120935  0  3.85386  0  0  0.163377  0.113897  0  3.836875  0
C  C17  1  0.36852329  0.30915396  0.26552006  1  0  0.678064  0  3.85904  0  0  0.631301  0  4.156589  0  0  0.667111  0  4.144729  0  0  0.246012  0.606941  0  4.163848  0
C  C18  1  0.63148812  0.69081469  0.73448951  1  0  0.678026  0  3.859352  0  0  0.631381  0  4.156648  0  0  0.667184  0  4.144801  0  0  0.246095  0.607021  0  4.163902  0
N  N19  1  0.70176978  0.85508509  0.51289936  1  0  -0.321774  0  3.243952  0  0  -0.306467  0  3.524697  0  0  -0.320649  0  3.545128  0  0  -0.313217  -0.296471  0  3.510968  0
N  N20  1  0.29825104  0.14491367  0.48711437  1  0  -0.321745  0  3.243751  0  0  -0.306472  0  3.524482  0  0  -0.320647  0  3.544909  0  0  -0.313177  -0.296478  0  3.510756  0
O  O21  1  0.73876153  0.45882206  0.41459615  1  0  -0.688659  0  1.617401  0  0  -0.695025  0  1.927327  0  0  -0.718123  0  1.917159  0  0  -0.748814  -0.680487  0  1.934881  0
O  O22  1  0.26121558  0.54122164  0.58540644  1  0  -0.688741  0  1.617541  0  0  -0.695011  0  1.927285  0  0  -0.718124  0  1.917137  0  0  -0.748742  -0.680455  0  1.934799  0
O  O23  1  0.04699473  0.81931489  0.34462186  1  0  -0.676786  0  2.108621  0  0  -0.650842  0  2.376876  0  0  -0.686491  0  2.373713  0  0  -0.363133  -0.625002  0  2.377806  0
O  O24  1  0.95299997  0.18067824  0.65537015  1  0  -0.676542  0  2.108493  0  0  -0.650687  0  2.376685  0  0  -0.68637  0  2.373618  0  0  -0.363118  -0.624851  0  2.37763  0
O  O25  1  0.91620318  0.12413754  0.21030081  1  0  -0.585694  0  1.977345  0  0  -0.551615  0  2.211893  0  0  -0.572701  0  2.202355  0  0  -0.342756  -0.53652  0  2.218199  0
O  O26  1  0.08381311  0.87583504  0.78968299  1  0  -0.585576  0  1.977456  0  0  -0.551614  0  2.211987  0  0  -0.572705  0  2.202459  0  0  -0.34278  -0.536518  0  2.21829  0
O  O27  1  0.21592106  0.45820376  0.29693252  1  0  -0.663598  0  2.11903  0  0  -0.632585  0  2.383975  0  0  -0.667741  0  2.379446  0  0  -0.352798  -0.607185  0  2.385818  0
O  O28  1  0.78405285  0.54179427  0.70306990  1  0  -0.663697  0  2.119714  0  0  -0.632599  0  2.384448  0  0  -0.667743  0  2.379918  0  0  -0.35288  -0.607205  0  2.38629  0
O  O29  1  0.42929465  0.29299148  0.15031181  1  0  -0.633455  0  1.978313  0  0  -0.594754  0  2.214512  0  0  -0.616215  0  2.201871  0  0  -0.343687  -0.579536  0  2.222789  0
O  O30  1  0.57072559  0.70700042  0.84968457  1  0  -0.63333  0  1.9785  0  0  -0.59476  0  2.214769  0  0  -0.616186  0  2.202058  0  0  -0.343644  -0.57954  0  2.223044  0
O  O31  1  0.15191672  0.37356889  0.89479752  1  0  -0.917795  0  1.788395  0  0  -0.879273  0  1.961282  0  0  -0.893453  0  1.928095  0  0  -0.697758  -0.86912  0  1.984695  0
O  O32  1  0.84805668  0.62642134  0.10520700  1  0  -0.917879  0  1.788309  0  0  -0.879291  0  1.961285  0  0  -0.893477  0  1.928094  0  0  -0.697797  -0.869127  0  1.984719  0
O  O33  1  0.60206485  0.14452681  0.86686939  1  0  -0.855919  0  1.80017  0  0  -0.803373  0  1.962844  0  0  -0.820726  0  1.930922  0  0  -0.6031  -0.790759  0  1.985572  0
O  O34  1  0.39794321  0.85549467  0.13312017  1  0  -0.855991  0  1.79977  0  0  -0.803347  0  1.962771  0  0  -0.820706  0  1.930844  0  0  -0.603065  -0.790735  0  1.985489  0
