# generated using pymatgen
data_Co3H26C40(N2O5)2
_symmetry_space_group_name_H-M   'P 1'
_cell_length_a   8.07333179
_cell_length_b   10.38765196
_cell_length_c   10.98769495
_cell_angle_alpha   111.50355173
_cell_angle_beta   90.67029669
_cell_angle_gamma   91.63672419
_symmetry_Int_Tables_number   1
_chemical_formula_structural   Co3H26C40(N2O5)2
_chemical_formula_sum   'Co3 H26 C40 N4 O10'
_cell_volume   856.72895297
_cell_formula_units_Z   1
loop_
 _symmetry_equiv_pos_site_id
 _symmetry_equiv_pos_as_xyz
  1  'x, y, z'
loop_
 _atom_site_type_symbol
 _atom_site_label
 _atom_site_symmetry_multiplicity
 _atom_site_fract_x
 _atom_site_fract_y
 _atom_site_fract_z
 _atom_site_occupancy
 _atom_site_pbe_cm5_charge
 _atom_site_pbe_ddec_charge
 _atom_site_pbe_ddec_spin_density
 _atom_site_pbe_ddec_sum_bond_order
 _atom_site_pbe_magmom
Co  Co0  1  0.49916024  0.99950423  0.49999985  1  0.562947  0.758272  1.10127  2.886162  0.997
Co  Co1  1  0.73533291  0.75518890  0.50572103  1  0.672157  0.716366  1.066788  2.947383  0.963
Co  Co2  1  0.26439350  0.24521576  0.49478809  1  0.672928  0.720492  -1.156671  2.937986  -0.957
H  H3  1  0.73408165  0.89629650  0.38223923  1  0.292435  0.36524  0.000461  0.956615  0.001
H  H4  1  0.26540241  0.10418745  0.61836680  1  0.292888  0.365743  -0.000709  0.955896  0.0
H  H5  1  0.90561833  0.04118768  0.64102180  1  0.125904  0.109754  0.0  0.98596  0.0
H  H6  1  0.09423734  0.95918206  0.35924857  1  0.126062  0.109831  0.000143  0.986359  0.0
H  H7  1  0.09912273  0.13444912  0.83551953  1  0.106924  0.126749  0.000142  1.035437  0.0
H  H8  1  0.90127238  0.86568604  0.16439687  1  0.106821  0.126534  -9.2e-05  1.035898  0.0
H  H9  1  0.18590586  0.97931202  0.95303437  1  0.104211  0.10527  -6e-05  1.029305  0.0
H  H10  1  0.81457953  0.02080625  0.04680734  1  0.104072  0.104782  1.1e-05  1.029609  0.0
H  H11  1  0.16770976  0.73066108  0.95966125  1  0.105967  0.113352  -2.4e-05  0.998826  0.0
H  H12  1  0.83228486  0.26949587  0.04041296  1  0.106007  0.113256  -1.4e-05  0.999052  0.0
H  H13  1  0.05985003  0.48823114  0.85805430  1  0.106493  0.116137  0.000115  1.025546  0.0
H  H14  1  0.93978526  0.51205614  0.14217380  1  0.106389  0.116196  -6.2e-05  1.025499  0.0
H  H15  1  0.89531313  0.30109550  0.66837814  1  0.113699  0.121595  -0.000544  0.993084  0.0
H  H16  1  0.10414034  0.69918995  0.33180686  1  0.113925  0.121939  0.000345  0.992558  0.0
H  H17  1  0.70422246  0.25322141  0.47265539  1  0.110247  0.115751  -0.000508  1.026889  0.0
H  H18  1  0.29566269  0.74708130  0.52727828  1  0.110149  0.115528  -0.000596  1.029029  0.0
H  H19  1  0.63680474  0.44321362  0.39579075  1  0.124901  0.106014  -0.000175  0.991803  0.0
H  H20  1  0.36353396  0.55714800  0.60402547  1  0.125195  0.106285  0.000224  0.991866  0.0
H  H21  1  0.48990279  0.17994078  0.90138830  1  0.101177  0.107377  -3e-06  1.03532  0.0
H  H22  1  0.51081061  0.81907990  0.09824204  1  0.101205  0.107085  -0.000104  1.036538  0.0
H  H23  1  0.53418428  0.75354213  0.85556432  1  0.101263  0.107468  2.9e-05  1.023218  0.0
H  H24  1  0.46685974  0.24544373  0.14403475  1  0.101098  0.10722  -6e-05  1.023387  0.0
H  H25  1  0.77137489  0.62132358  0.00487895  1  0.098965  0.097273  1.5e-05  1.03455  0.0
H  H26  1  0.22877216  0.37893162  0.99530214  1  0.098939  0.097309  -2.1e-05  1.034565  0.0
H  H27  1  0.37613067  0.51001918  0.20904843  1  0.099977  0.103722  -2.3e-05  1.044888  0.0
H  H28  1  0.62410491  0.49019235  0.79111242  1  0.100151  0.103817  3e-05  1.044761  0.0
C  C29  1  0.94837819  0.97612950  0.69257034  1  0.054447  0.105376  -0.006372  3.868392  -0.007
C  C30  1  0.05159418  0.02417671  0.30760688  1  0.055152  0.106351  0.006021  3.867433  0.007
C  C31  1  0.05493984  0.02677676  0.80308095  1  -0.08638  -0.131012  0.00024  3.959637  0.001
C  C32  1  0.94536489  0.97338757  0.19684794  1  -0.086256  -0.130519  -0.000836  3.958128  -0.002
C  C33  1  0.10420709  0.94048139  0.86677268  1  -0.070658  -0.08436  -0.008307  3.939516  -0.009
C  C34  1  0.89615020  0.05964145  0.13315080  1  -0.06978  -0.083149  0.007052  3.93885  0.008
C  C35  1  0.04768354  0.80062464  0.81762174  1  -0.001988  0.049461  0.000193  4.017211  0.001
C  C36  1  0.95245723  0.19957225  0.18239263  1  -0.001909  0.04963  -0.000527  4.016131  -0.001
C  C37  1  0.08756904  0.69901056  0.87227229  1  -0.083015  -0.122067  4.1e-05  3.962812  0.0
C  C38  1  0.91245084  0.30117837  0.12778051  1  -0.08242  -0.12139  -0.000114  3.962564  0.0
C  C39  1  0.02817580  0.56475652  0.81620921  1  -0.081241  -0.11633  0.000273  3.958871  0.0
C  C40  1  0.97162446  0.43548987  0.18391416  1  -0.081346  -0.116424  -0.000394  3.958288  0.0
C  C41  1  0.92567716  0.51937380  0.69954184  1  0.000475  0.051692  -0.000311  4.012637  0.001
C  C42  1  0.07418825  0.48085165  0.30052512  1  0.00033  0.050736  0.000425  4.012959  0.0
C  C43  1  0.86321495  0.38255974  0.63292014  1  -0.065327  -0.095563  -0.009978  3.927096  -0.009
C  C44  1  0.13651468  0.61770428  0.36716012  1  -0.064293  -0.094055  0.007685  3.925708  0.007
C  C45  1  0.76017470  0.35577326  0.52399422  1  -0.076486  -0.105446  -0.000801  3.9592  0.0
C  C46  1  0.23974000  0.64453154  0.47597059  1  -0.076529  -0.105599  -4.6e-05  3.959571  -0.001
C  C47  1  0.72015436  0.46207866  0.47955378  1  0.059443  0.107876  -0.007672  3.859451  -0.008
C  C48  1  0.28002404  0.53820685  0.52032599  1  0.059905  0.108665  0.005828  3.859702  0.007
C  C49  1  0.94234463  0.75800717  0.70541894  1  0.109144  0.10559  -0.004672  4.006668  -0.005
C  C50  1  0.05763150  0.24223786  0.29470266  1  0.109933  0.106388  0.003746  4.005578  0.004
C  C51  1  0.88191559  0.61939542  0.64717599  1  0.108832  0.102881  -0.004175  3.999568  -0.004
C  C52  1  0.11807465  0.38087638  0.35289495  1  0.108915  0.103696  0.003738  3.999158  0.004
C  C53  1  0.49513243  0.10193711  0.94561710  1  -0.088639  -0.104031  -0.000609  3.975466  0.0
C  C54  1  0.50593368  0.89704666  0.05399521  1  -0.088113  -0.102876  -0.00137  3.975563  -0.001
C  C55  1  0.51397792  0.96301962  0.86440378  1  -0.01882  -0.035942  -0.0011  3.986867  0.0
C  C56  1  0.48700947  0.03594562  0.13518289  1  -0.019773  -0.036992  -0.005025  3.986959  -0.005
C  C57  1  0.52004457  0.86091990  0.91972415  1  -0.08806  -0.10486  -0.00166  3.977497  -0.002
C  C58  1  0.48114819  0.13807090  0.07989318  1  -0.087462  -0.103987  -0.001406  3.979214  -0.001
C  C59  1  0.52341201  0.92233719  0.71994491  1  0.207999  0.548238  -0.002011  4.168221  -0.002
C  C60  1  0.47593898  0.07652656  0.27963868  1  0.208751  0.549985  -0.010031  4.168105  -0.01
C  C61  1  0.65279671  0.56733411  0.00194279  1  -0.084917  -0.097584  -0.000219  3.973641  0.0
C  C62  1  0.34741924  0.43280295  0.99821306  1  -0.084888  -0.097624  0.000134  3.973477  0.0
C  C63  1  0.58255720  0.57291987  0.11994795  1  -0.014243  -0.028701  -0.000702  3.968749  -0.001
C  C64  1  0.41766957  0.42723684  0.88021117  1  -0.014728  -0.028817  0.000401  3.967476  0.0
C  C65  1  0.42933132  0.50481342  0.11695867  1  -0.08602  -0.093828  -0.000292  3.959017  0.0
C  C66  1  0.57090022  0.49533913  0.88319818  1  -0.085718  -0.093654  0.000201  3.957969  0.0
C  C67  1  0.67066513  0.65345675  0.24681781  1  0.204344  0.543091  0.000294  4.20373  0.0
C  C68  1  0.32946240  0.34695150  0.75331746  1  0.204492  0.542793  -0.001024  4.203776  0.0
N  N69  1  0.89173318  0.84405110  0.64424518  1  -0.341754  -0.233475  -0.003433  3.662547  -0.006
N  N70  1  0.10802848  0.15626599  0.35600306  1  -0.341265  -0.233903  0.003482  3.662146  0.007
N  N71  1  0.78129803  0.59205081  0.53864976  1  -0.337973  -0.233816  -0.006948  3.654636  -0.01
N  N72  1  0.21889595  0.40826171  0.46129596  1  -0.337509  -0.2347  0.006972  3.6549  0.011
O  O73  1  0.50108771  0.02053285  0.67658389  1  -0.308217  -0.497539  0.000693  2.493102  0.003
O  O74  1  0.49675669  0.97823447  0.32305379  1  -0.30788  -0.49769  -0.00987  2.489181  -0.015
O  O75  1  0.55057609  0.79728725  0.65046128  1  -0.297877  -0.528931  0.024614  2.351452  0.042
O  O76  1  0.44835638  0.20160737  0.34870051  1  -0.296885  -0.52868  -0.033132  2.346797  -0.05
O  O77  1  0.60280705  0.65062901  0.35201497  1  -0.300998  -0.498379  -0.00499  2.399896  -0.009
O  O78  1  0.39743044  0.34967251  0.64813595  1  -0.300851  -0.498576  0.003647  2.40016  0.008
O  O79  1  0.80455653  0.71961713  0.24733526  1  -0.314954  -0.567296  0.010689  2.202432  0.014
O  O80  1  0.19524954  0.28111001  0.75263258  1  -0.314565  -0.566522  -0.011457  2.202503  -0.014
O  O81  1  0.70570490  0.92289206  0.47480612  1  -0.547222  -0.731403  0.020011  2.413915  0.022
O  O82  1  0.29330738  0.07742599  0.52571552  1  -0.548302  -0.733091  0.023196  2.413156  0.032
