# generated using pymatgen
data_NiH26C28S2(NO5)2
_symmetry_space_group_name_H-M   'P 1'
_cell_length_a   4.76544819
_cell_length_b   10.93453041
_cell_length_c   12.99240726
_cell_angle_alpha   86.06741218
_cell_angle_beta   89.21151280
_cell_angle_gamma   98.67940997
_symmetry_Int_Tables_number   1
_chemical_formula_structural   NiH26C28S2(NO5)2
_chemical_formula_sum   'Ni1 H26 C28 S2 N2 O10'
_cell_volume   667.47921876
_cell_formula_units_Z   1
loop_
 _symmetry_equiv_pos_site_id
 _symmetry_equiv_pos_as_xyz
  1  'x, y, z'
loop_
 _atom_site_type_symbol
 _atom_site_label
 _atom_site_symmetry_multiplicity
 _atom_site_fract_x
 _atom_site_fract_y
 _atom_site_fract_z
 _atom_site_occupancy
 _atom_site_hle17_bader_spin_density
 _atom_site_hle17_ddec_charge
 _atom_site_hle17_ddec_spin_density
 _atom_site_hle17_ddec_sum_bond_order
 _atom_site_hle17_magmom
 _atom_site_hse06_10hf_bader_spin_density
 _atom_site_hse06_10hf_ddec_charge
 _atom_site_hse06_10hf_ddec_spin_density
 _atom_site_hse06_10hf_ddec_sum_bond_order
 _atom_site_hse06_10hf_magmom
 _atom_site_hse06_bader_spin_density
 _atom_site_hse06_ddec_charge
 _atom_site_hse06_ddec_spin_density
 _atom_site_hse06_ddec_sum_bond_order
 _atom_site_hse06_magmom
 _atom_site_pbe_bader_spin_density
 _atom_site_pbe_cm5_charge
 _atom_site_pbe_ddec_charge
 _atom_site_pbe_ddec_spin_density
 _atom_site_pbe_ddec_sum_bond_order
 _atom_site_pbe_magmom
Ni  Ni0  1  0.49999653  0.49999842  0.50000145  1  0  0.626001  0  2.157701  0  0  0.581423  0  2.627149  0  0  0.668402  0  2.537717  0  0  0.59112  0.530099  0  2.685502  0
H  H1  1  0.36649165  0.69707965  0.10003489  1  0  0.408605  0  0.867235  0  0  0.380492  0  0.943255  0  0  0.392393  0  0.930087  0  0  0.308532  0.372056  0  0.952523  0
H  H2  1  0.63351122  0.30291931  0.89996348  1  0  0.408676  0  0.867332  0  0  0.380513  0  0.943423  0  0  0.392434  0  0.930227  0  0  0.308575  0.372078  0  0.952687  0
H  H3  1  0.20347845  0.50695995  0.66029218  1  0  0.418687  0  0.83854  0  0  0.390153  0  0.918356  0  0  0.40137  0  0.90688  0  0  0.303684  0.382019  0  0.926887  0
H  H4  1  0.79651259  0.49304172  0.33970832  1  0  0.418727  0  0.838512  0  0  0.390186  0  0.918341  0  0  0.401405  0  0.906863  0  0  0.303696  0.382052  0  0.926874  0
H  H5  1  0.54766071  0.49307370  0.68567852  1  0  0.412588  0  0.900032  0  0  0.378604  0  0.976121  0  0  0.39308  0  0.956179  0  0  0.282928  0.368498  0  0.9896  0
H  H6  1  0.45232156  0.50692079  0.31431964  1  0  0.412627  0  0.900124  0  0  0.378625  0  0.97613  0  0  0.393104  0  0.956182  0  0  0.282943  0.368519  0  0.989719  0
H  H7  1  0.72715495  0.85378038  0.27615189  1  0  0.097172  0  0.963715  0  0  0.106435  0  1.026727  0  0  0.109801  0  1.024471  0  0  0.100678  0.104051  0  1.028349  0
H  H8  1  0.27286408  0.14622296  0.72384818  1  0  0.097139  0  0.963697  0  0  0.106379  0  1.026752  0  0  0.109747  0  1.024493  0  0  0.100647  0.103996  0  1.028373  0
H  H9  1  0.55848770  0.05714424  0.29013757  1  0  0.077561  0  1.010243  0  0  0.08859  0  1.076312  0  0  0.090704  0  1.076921  0  0  0.087611  0.087204  0  1.075824  0
H  H10  1  0.44152338  0.94285685  0.70986860  1  0  0.077497  0  1.010265  0  0  0.088538  0  1.076313  0  0  0.090652  0  1.076923  0  0  0.087577  0.087142  0  1.075854  0
H  H11  1  0.19887349  0.22576950  0.06429271  1  0  0.102516  0  0.962312  0  0  0.111398  0  1.024623  0  0  0.114901  0  1.022877  0  0  0.101411  0.108829  0  1.02608  0
H  H12  1  0.80112765  0.77422965  0.93570332  1  0  0.102414  0  0.962425  0  0  0.111321  0  1.02472  0  0  0.114819  0  1.022981  0  0  0.101413  0.108754  0  1.026171  0
H  H13  1  0.35616855  0.02503037  0.04957743  1  0  0.103053  0  0.95225  0  0  0.11334  0  1.013716  0  0  0.116237  0  1.011655  0  0  0.106197  0.111225  0  1.015283  0
H  H14  1  0.64381606  0.97496346  0.95041692  1  0  0.103073  0  0.952198  0  0  0.113391  0  1.01363  0  0  0.11629  0  1.011567  0  0  0.106191  0.111275  0  1.015199  0
H  H15  1  0.99057081  0.38467644  0.04635280  1  0  0.137399  0  0.934451  0  0  0.149994  0  0.993458  0  0  0.152213  0  0.992547  0  0  0.111622  0.148408  0  0.994233  0
H  H16  1  0.00942795  0.61531628  0.95364252  1  0  0.13748  0  0.934277  0  0  0.150028  0  0.993342  0  0  0.152245  0  0.992432  0  0  0.111638  0.148442  0  0.994118  0
H  H17  1  0.78556718  0.48212086  0.10630173  1  0  0.161066  0  0.935072  0  0  0.171769  0  0.995617  0  0  0.175425  0  0.993152  0  0  0.115569  0.169141  0  0.997493  0
H  H18  1  0.21443463  0.51787381  0.89369205  1  0  0.161155  0  0.935036  0  0  0.171887  0  0.995541  0  0  0.175547  0  0.993067  0  0  0.11559  0.169257  0  0.997422  0
H  H19  1  0.18963521  0.67338384  0.38843765  1  0  0.116271  0  0.93953  0  0  0.120635  0  1.004695  0  0  0.123345  0  1.001386  0  0  0.130633  0.118196  0  1.007897  0
H  H20  1  0.81036621  0.32662402  0.61156599  1  0  0.116319  0  0.939458  0  0  0.12068  0  1.004643  0  0  0.12339  0  1.001335  0  0  0.130669  0.118242  0  1.007845  0
H  H21  1  0.17189814  0.89428874  0.38543000  1  0  0.109167  0  0.973814  0  0  0.117097  0  1.038572  0  0  0.119318  0  1.039376  0  0  0.110599  0.115471  0  1.038157  0
H  H22  1  0.82810059  0.10571809  0.61457516  1  0  0.109139  0  0.973833  0  0  0.117071  0  1.038591  0  0  0.119291  0  1.039396  0  0  0.110588  0.115446  0  1.038172  0
H  H23  1  0.83644960  0.92116001  0.61255520  1  0  0.11028  0  0.963585  0  0  0.119322  0  1.025725  0  0  0.121578  0  1.02646  0  0  0.109  0.117629  0  1.025476  0
H  H24  1  0.16354623  0.07884169  0.38745694  1  0  0.110316  0  0.96354  0  0  0.11935  0  1.025684  0  0  0.121605  0  1.026419  0  0  0.109048  0.117664  0  1.025412  0
H  H25  1  0.80297530  0.69509179  0.61578025  1  0  0.102287  0  0.967239  0  0  0.102079  0  1.042408  0  0  0.105461  0  1.038454  0  0  0.121755  0.099227  0  1.045828  0
H  H26  1  0.19701345  0.30490579  0.38422568  1  0  0.102228  0  0.967197  0  0  0.102095  0  1.042284  0  0  0.105479  0  1.038329  0  0  0.121748  0.099236  0  1.045713  0
C  C27  1  0.05484708  0.92570050  0.16356959  1  0  -0.103255  0  3.795473  0  0  -0.082746  0  4.033074  0  0  -0.092666  0  4.05646  0  0  -0.032863  -0.076289  0  4.017235  0
C  C28  1  0.94514793  0.07429801  0.83642328  1  0  -0.103319  0  3.795658  0  0  -0.082793  0  4.033264  0  0  -0.092713  0  4.056654  0  0  -0.032869  -0.076336  0  4.017421  0
C  C29  1  0.83007623  0.93697312  0.23167889  1  0  -0.075035  0  3.790944  0  0  -0.099624  0  4.043001  0  0  -0.097142  0  4.061327  0  0  -0.095389  -0.100908  0  4.030169  0
C  C30  1  0.16993141  0.06302760  0.76832029  1  0  -0.074861  0  3.790702  0  0  -0.099433  0  4.04274  0  0  -0.096955  0  4.06107  0  0  -0.0953  -0.100714  0  4.029903  0
C  C31  1  0.73788392  0.04996039  0.23954957  1  0  -0.148635  0  3.80639  0  0  -0.16467  0  4.056278  0  0  -0.170464  0  4.078074  0  0  -0.111482  -0.160676  0  4.041255  0
C  C32  1  0.26212668  0.95003896  0.76045508  1  0  -0.148593  0  3.806207  0  0  -0.164649  0  4.056105  0  0  -0.170443  0  4.077905  0  0  -0.111458  -0.160655  0  4.041072  0
C  C33  1  0.86842888  0.15657550  0.17985647  1  0  0.053567  0  3.784822  0  0  0.071797  0  4.040348  0  0  0.076883  0  4.061258  0  0  -0.005387  0.068277  0  4.026031  0
C  C34  1  0.13156152  0.84341730  0.82013873  1  0  0.053409  0  3.784761  0  0  0.071707  0  4.040228  0  0  0.076794  0  4.061136  0  0  -0.005409  0.068189  0  4.025908  0
C  C35  1  0.09256152  0.14571963  0.11141464  1  0  -0.126472  0  3.748177  0  0  -0.150021  0  4.007966  0  0  -0.154838  0  4.027995  0  0  -0.097679  -0.147004  0  3.994716  0
C  C36  1  0.90743079  0.85427785  0.88857976  1  0  -0.126282  0  3.748067  0  0  -0.149902  0  4.007906  0  0  -0.154716  0  4.027934  0  0  -0.097685  -0.146885  0  3.994659  0
C  C37  1  0.18240515  0.03110144  0.10318013  1  0  -0.03393  0  3.720936  0  0  -0.058061  0  3.97326  0  0  -0.055227  0  3.992797  0  0  -0.075143  -0.059724  0  3.960035  0
C  C38  1  0.81759425  0.96889941  0.89681817  1  0  -0.033964  0  3.720816  0  0  -0.058119  0  3.973192  0  0  -0.055282  0  3.992717  0  0  -0.075117  -0.059783  0  3.959968  0
C  C39  1  0.13998568  0.80109801  0.16298069  1  0  0.632677  0  3.837749  0  0  0.586054  0  4.133806  0  0  0.618994  0  4.125547  0  0  0.220077  0.563621  0  4.138991  0
C  C40  1  0.86002578  0.19890175  0.83701856  1  0  0.632884  0  3.837428  0  0  0.586231  0  4.13352  0  0  0.61917  0  4.125262  0  0  0.220183  0.563798  0  4.138707  0
C  C41  1  0.93152554  0.41391724  0.12156396  1  0  -0.333631  0  3.636674  0  0  -0.366141  0  3.893478  0  0  -0.37107  0  3.898229  0  0  -0.156043  -0.362894  0  3.890162  0
C  C42  1  0.06846557  0.58607740  0.87843123  1  0  -0.333824  0  3.636966  0  0  -0.36628  0  3.893654  0  0  -0.371206  0  3.898395  0  0  -0.15607  -0.363034  0  3.890339  0
C  C43  1  0.18989639  0.47929753  0.17420920  1  0  0.728351  0  3.838104  0  0  0.673909  0  4.149618  0  0  0.708319  0  4.140359  0  0  0.214829  0.650494  0  4.155016  0
C  C44  1  0.81009634  0.52070645  0.82578511  1  0  0.728459  0  3.838131  0  0  0.674036  0  4.149605  0  0  0.708446  0  4.140345  0  0  0.214887  0.650622  0  4.155005  0
C  C45  1  0.32326347  0.72999573  0.44013363  1  0  0.134605  0  3.61571  0  0  0.104469  0  3.86539  0  0  0.113716  0  3.882967  0  0  0.061254  0.097962  0  3.854884  0
C  C46  1  0.67675000  0.27001027  0.55986865  1  0  0.134417  0  3.615587  0  0  0.104249  0  3.865319  0  0  0.113497  0  3.882894  0  0  0.061125  0.097742  0  3.854818  0
C  C47  1  0.31894818  0.85697695  0.43788572  1  0  -0.137469  0  3.673643  0  0  -0.155022  0  3.919058  0  0  -0.162918  0  3.941063  0  0  -0.070722  -0.149934  0  3.904515  0
C  C48  1  0.68105353  0.14302626  0.56211799  1  0  -0.137366  0  3.673674  0  0  -0.154854  0  3.919114  0  0  -0.162753  0  3.941119  0  0  -0.070641  -0.149768  0  3.90457  0
C  C49  1  0.50119013  0.93200967  0.49992235  1  0  0.089722  0  3.727166  0  0  0.100742  0  3.958  0  0  0.105407  0  3.977847  0  0  0.015006  0.097573  0  3.944642  0
C  C50  1  0.49881511  0.06799646  0.50007905  1  0  0.089755  0  3.727311  0  0  0.10058  0  3.958311  0  0  0.105253  0  3.978157  0  0  0.014963  0.097413  0  3.944953  0
C  C51  1  0.68435276  0.87171793  0.56226836  1  0  -0.145457  0  3.68802  0  0  -0.162257  0  3.934041  0  0  -0.1694  0  3.953908  0  0  -0.075357  -0.157711  0  3.920969  0
C  C52  1  0.31564698  0.12828610  0.43773686  1  0  -0.145437  0  3.687818  0  0  -0.16219  0  3.93387  0  0  -0.169331  0  3.953728  0  0  -0.07538  -0.157646  0  3.920812  0
C  C53  1  0.67197573  0.74376449  0.56386862  1  0  0.113589  0  3.672567  0  0  0.081105  0  3.929733  0  0  0.090224  0  3.948195  0  0  0.05074  0.074949  0  3.918179  0
C  C54  1  0.32801139  0.25623636  0.43614342  1  0  0.113572  0  3.672441  0  0  0.081075  0  3.929539  0  0  0.090192  0  3.948002  0  0  0.050781  0.074925  0  3.917991  0
S  S55  1  0.71463272  0.28940478  0.19574739  1  0  0.044701  0  2.505119  0  0  0.04683  0  2.848672  0  0  0.040041  0  2.852173  0  0  0.025019  0.052366  0  2.845816  0
S  S56  1  0.28536602  0.71058945  0.80425254  1  0  0.044748  0  2.505273  0  0  0.04684  0  2.848785  0  0  0.040052  0  2.852281  0  0  0.025023  0.05238  0  2.845925  0
N  N57  1  0.49410825  0.67396002  0.50364641  1  0  -0.234562  0  3.377756  0  0  -0.176221  0  3.662649  0  0  -0.206641  0  3.681089  0  0  -0.33396  -0.158101  0  3.651687  0
N  N58  1  0.50589542  0.32604386  0.49636040  1  0  -0.234434  0  3.377786  0  0  -0.17614  0  3.662751  0  0  -0.206559  0  3.68119  0  0  -0.333966  -0.158022  0  3.651793  0
O  O59  1  0.19598528  0.46370832  0.27337503  1  0  -0.665957  0  2.068175  0  0  -0.605866  0  2.309165  0  0  -0.634224  0  2.294733  0  0  -0.325338  -0.58565  0  2.318473  0
O  O60  1  0.80400852  0.53628735  0.72661863  1  0  -0.665949  0  2.068192  0  0  -0.605895  0  2.309216  0  0  -0.634252  0  2.294783  0  0  -0.325305  -0.58568  0  2.318494  0
O  O61  1  0.37646855  0.54638746  0.11774998  1  0  -0.620572  0  1.949445  0  0  -0.569265  0  2.173157  0  0  -0.593398  0  2.162653  0  0  -0.316907  -0.552129  0  2.179731  0
O  O62  1  0.62353379  0.45361452  0.88224526  1  0  -0.620655  0  1.949198  0  0  -0.569328  0  2.172905  0  0  -0.593469  0  2.162401  0  0  -0.316985  -0.552195  0  2.179486  0
O  O63  1  0.04135077  0.71650587  0.22719960  1  0  -0.558417  0  1.962022  0  0  -0.514852  0  2.182132  0  0  -0.533803  0  2.173963  0  0  -0.300341  -0.501806  0  2.187481  0
O  O64  1  0.95868874  0.28350188  0.77280144  1  0  -0.558564  0  1.961616  0  0  -0.514969  0  2.181719  0  0  -0.533919  0  2.173547  0  0  -0.300433  -0.501925  0  2.187072  0
O  O65  1  0.32962329  0.78595711  0.08910171  1  0  -0.545568  0  2.055723  0  0  -0.496123  0  2.27118  0  0  -0.518302  0  2.258426  0  0  -0.333449  -0.480594  0  2.279628  0
O  O66  1  0.67037792  0.21404685  0.91089195  1  0  -0.545752  0  2.055839  0  0  -0.496275  0  2.271373  0  0  -0.518466  0  2.258583  0  0  -0.333558  -0.480738  0  2.279815  0
O  O67  1  0.36304577  0.46660333  0.63783944  1  0  -0.737924  0  2.021915  0  0  -0.70462  0  2.286248  0  0  -0.743495  0  2.252325  0  0  -0.54265  -0.67879  0  2.309205  0
O  O68  1  0.63693966  0.53339468  0.36216103  1  0  -0.738013  0  2.021909  0  0  -0.704702  0  2.286201  0  0  -0.743579  0  2.252273  0  0  -0.542667  -0.678872  0  2.309235  0
