# generated using pymatgen
data_Y3H13C10S2O13
_symmetry_space_group_name_H-M   'P 1'
_cell_length_a   7.20921227
_cell_length_b   9.22380511
_cell_length_c   14.33528437
_cell_angle_alpha   76.83721669
_cell_angle_beta   76.90182306
_cell_angle_gamma   79.30951079
_symmetry_Int_Tables_number   1
_chemical_formula_structural   Y3H13C10S2O13
_chemical_formula_sum   'Y6 H26 C20 S4 O26'
_cell_volume   894.99546154
_cell_formula_units_Z   2
loop_
 _symmetry_equiv_pos_site_id
 _symmetry_equiv_pos_as_xyz
  1  'x, y, z'
loop_
 _atom_site_type_symbol
 _atom_site_label
 _atom_site_symmetry_multiplicity
 _atom_site_fract_x
 _atom_site_fract_y
 _atom_site_fract_z
 _atom_site_occupancy
 _atom_site_hle17_bader_spin_density
 _atom_site_hle17_ddec_charge
 _atom_site_hle17_ddec_spin_density
 _atom_site_hle17_ddec_sum_bond_order
 _atom_site_hle17_magmom
 _atom_site_hse06_10hf_bader_spin_density
 _atom_site_hse06_10hf_ddec_charge
 _atom_site_hse06_10hf_ddec_spin_density
 _atom_site_hse06_10hf_ddec_sum_bond_order
 _atom_site_hse06_10hf_magmom
 _atom_site_hse06_bader_spin_density
 _atom_site_hse06_ddec_charge
 _atom_site_hse06_ddec_spin_density
 _atom_site_hse06_ddec_sum_bond_order
 _atom_site_hse06_magmom
 _atom_site_pbe_bader_spin_density
 _atom_site_pbe_cm5_charge
 _atom_site_pbe_ddec_charge
 _atom_site_pbe_ddec_spin_density
 _atom_site_pbe_ddec_sum_bond_order
 _atom_site_pbe_magmom
Y  Y0  1  0.05698570  0.64857109  0.55713189  1  0  2.095136  0  1.860082  0  0  1.934506  0  2.295429  0  0  2.000199  0  2.23873  0  0  1.249902  1.887119  0  2.335346  0
Y  Y1  1  0.94301381  0.35143019  0.44286653  1  0  2.095151  0  1.860084  0  0  1.934573  0  2.295332  0  0  2.000267  0  2.238626  0  0  1.249907  1.887186  0  2.33525  0
Y  Y2  1  0.73302223  0.98581127  0.54882404  1  0  2.11755  0  1.89874  0  0  1.955831  0  2.345314  0  0  2.021846  0  2.28642  0  0  1.260272  1.908002  0  2.386507  0
Y  Y3  1  0.26697871  0.01419000  0.45117421  1  0  2.117607  0  1.898685  0  0  1.95585  0  2.345334  0  0  2.021868  0  2.286433  0  0  1.260289  1.908035  0  2.386499  0
Y  Y4  1  0.57233059  0.64774932  0.55619708  1  0  2.110352  0  1.829182  0  0  1.948093  0  2.265048  0  0  2.015293  0  2.206044  0  0  1.249334  1.900314  0  2.305368  0
Y  Y5  1  0.42767035  0.35225194  0.44380257  1  0  2.110376  0  1.829178  0  0  1.948126  0  2.265042  0  0  2.015273  0  2.206139  0  0  1.249339  1.900344  0  2.305364  0
H  H6  1  0.04872895  0.89754917  0.64634927  1  0  0.428251  0  0.870611  0  0  0.399066  0  0.932967  0  0  0.40965  0  0.917398  0  0  0.306361  0.39155  0  0.943991  0
H  H7  1  0.95126914  0.10245210  0.35364930  1  0  0.428222  0  0.870652  0  0  0.399037  0  0.933009  0  0  0.409622  0  0.917439  0  0  0.306351  0.39152  0  0.944033  0
H  H8  1  0.36492221  0.89568421  0.64739773  1  0  0.420273  0  0.877225  0  0  0.393397  0  0.934986  0  0  0.403669  0  0.919902  0  0  0.305233  0.386039  0  0.945788  0
H  H9  1  0.63507709  0.10431819  0.35259985  1  0  0.420217  0  0.877297  0  0  0.393347  0  0.935048  0  0  0.403619  0  0.919965  0  0  0.305209  0.385988  0  0.945849  0
H  H10  1  0.38466331  0.72310980  0.39871538  1  0  0.405577  0  0.919243  0  0  0.374915  0  0.986278  0  0  0.386014  0  0.969829  0  0  0.297945  0.367116  0  0.997798  0
H  H11  1  0.61533479  0.27689145  0.60128530  1  0  0.405624  0  0.919164  0  0  0.374968  0  0.986191  0  0  0.386068  0  0.96974  0  0  0.297966  0.367169  0  0.997708  0
H  H12  1  0.66435631  0.58691303  0.35639052  1  0  0.437919  0  0.847383  0  0  0.415235  0  0.896598  0  0  0.42527  0  0.881976  0  0  0.311995  0.407983  0  0.907228  0
H  H13  1  0.33564036  0.41308824  0.64360822  1  0  0.437912  0  0.847322  0  0  0.415231  0  0.896593  0  0  0.425265  0  0.881972  0  0  0.312003  0.407977  0  0.907225  0
H  H14  1  0.84683994  0.39251344  0.64002865  1  0  0.431264  0  0.868813  0  0  0.403015  0  0.928881  0  0  0.414062  0  0.912684  0  0  0.300632  0.394922  0  0.94077  0
H  H15  1  0.15315957  0.60748783  0.35997046  1  0  0.43126  0  0.868812  0  0  0.402994  0  0.928906  0  0  0.414042  0  0.912708  0  0  0.30061  0.394902  0  0.940795  0
H  H16  1  0.87058931  0.80006332  0.39294846  1  0  0.446151  0  0.830962  0  0  0.423438  0  0.878496  0  0  0.433504  0  0.863941  0  0  0.319688  0.416156  0  0.889104  0
H  H17  1  0.12940878  0.19993795  0.60705081  1  0  0.446144  0  0.830979  0  0  0.423443  0  0.878492  0  0  0.43351  0  0.863935  0  0  0.319695  0.41616  0  0.889102  0
H  H18  1  0.72046211  0.71709044  0.71173530  1  0  0.443119  0  0.826398  0  0  0.425079  0  0.870758  0  0  0.433827  0  0.858305  0  0  0.320076  0.418867  0  0.879646  0
H  H19  1  0.27953598  0.28291083  0.28826327  1  0  0.443056  0  0.826486  0  0  0.425044  0  0.870802  0  0  0.433791  0  0.858351  0  0  0.320072  0.41883  0  0.879689  0
H  H20  1  0.48831942  0.45750989  0.86531537  1  0  0.11645  0  0.940887  0  0  0.124045  0  1.002466  0  0  0.127508  0  1.000198  0  0  0.112327  0.121453  0  1.004383  0
H  H21  1  0.51167703  0.54249250  0.13468323  1  0  0.116399  0  0.940932  0  0  0.124054  0  1.00245  0  0  0.127517  0  1.000182  0  0  0.112346  0.121462  0  1.004367  0
H  H22  1  0.46628234  0.29376583  0.03066584  1  0  0.088823  0  0.987684  0  0  0.098068  0  1.050534  0  0  0.099315  0  1.053044  0  0  0.098777  0.09729  0  1.048588  0
H  H23  1  0.53371452  0.70623433  0.96933234  1  0  0.088851  0  0.987718  0  0  0.09809  0  1.050568  0  0  0.099337  0  1.05308  0  0  0.098792  0.097311  0  1.048624  0
H  H24  1  0.15371369  0.28018576  0.14262958  1  0  0.108439  0  0.960208  0  0  0.115165  0  1.025826  0  0  0.119275  0  1.022331  0  0  0.108431  0.112148  0  1.028558  0
H  H25  1  0.84628603  0.71981440  0.85736897  1  0  0.108485  0  0.960198  0  0  0.115227  0  1.0258  0  0  0.119315  0  1.02233  0  0  0.108453  0.112211  0  1.028536  0
H  H26  1  0.91406064  0.18833264  0.88443152  1  0  0.116484  0  0.936123  0  0  0.127219  0  0.990673  0  0  0.130785  0  0.988601  0  0  0.111166  0.124455  0  0.992636  0
H  H27  1  0.08594541  0.81166411  0.11557028  1  0  0.116472  0  0.936066  0  0  0.127169  0  0.99066  0  0  0.130733  0  0.98859  0  0  0.111177  0.124407  0  0.992621  0
H  H28  1  0.88667172  0.12870108  0.06601400  1  0  0.103457  0  0.960324  0  0  0.110245  0  1.024237  0  0  0.11276  0  1.024492  0  0  0.102028  0.108206  0  1.02471  0
H  H29  1  0.11333312  0.87129454  0.93398810  1  0  0.103515  0  0.960237  0  0  0.110321  0  1.024129  0  0  0.112834  0  1.024386  0  0  0.102035  0.108283  0  1.024603  0
H  H30  1  0.62570972  0.99810661  0.17123321  1  0  0.112479  0  0.952749  0  0  0.120403  0  1.014738  0  0  0.124696  0  1.010919  0  0  0.10768  0.117201  0  1.017692  0
H  H31  1  0.37429164  0.00189238  0.82876880  1  0  0.112484  0  0.952688  0  0  0.12039  0  1.014702  0  0  0.124682  0  1.010888  0  0  0.107662  0.117194  0  1.017659  0
C  C32  1  0.18966812  0.54722343  0.88955180  1  0  -0.168681  0  3.717894  0  0  -0.149241  0  3.969608  0  0  -0.158016  0  3.991682  0  0  -0.01616  -0.143852  0  3.955129  0
C  C33  1  0.81033160  0.45277672  0.11044675  1  0  -0.168697  0  3.717867  0  0  -0.149247  0  3.969589  0  0  -0.15802  0  3.991661  0  0  -0.016128  -0.143846  0  3.955116  0
C  C34  1  0.35192261  0.45793767  0.91670661  1  0  -0.032028  0  3.729321  0  0  -0.062972  0  3.98666  0  0  -0.06  0  4.004661  0  0  -0.073635  -0.064713  0  3.974517  0
C  C35  1  0.64807447  0.54206134  0.08329310  1  0  -0.032038  0  3.729248  0  0  -0.063042  0  3.986609  0  0  -0.060071  0  4.004612  0  0  -0.073686  -0.064781  0  3.974463  0
C  C36  1  0.33778967  0.36387087  0.00960618  1  0  -0.056544  0  3.761679  0  0  -0.069347  0  4.016623  0  0  -0.073041  0  4.039355  0  0  -0.086476  -0.06655  0  4.000687  0
C  C37  1  0.66220599  0.63612814  0.99039369  1  0  -0.056548  0  3.761654  0  0  -0.06934  0  4.016619  0  0  -0.073034  0  4.039346  0  0  -0.086471  -0.066543  0  4.000688  0
C  C38  1  0.16306334  0.35815662  0.07270792  1  0  -0.092372  0  3.696563  0  0  -0.117748  0  3.950003  0  0  -0.117966  0  3.967571  0  0  -0.082155  -0.117576  0  3.938037  0
C  C39  1  0.83693211  0.64184352  0.92729112  1  0  -0.092391  0  3.696565  0  0  -0.117794  0  3.950005  0  0  -0.117995  0  3.967583  0  0  -0.082172  -0.117632  0  3.938033  0
C  C40  1  0.00580501  0.54928928  0.95301640  1  0  0.063288  0  3.74706  0  0  0.073474  0  3.970732  0  0  0.073675  0  3.995803  0  0  0.002627  0.073715  0  3.953662  0
C  C41  1  0.99419328  0.45071088  0.04698161  1  0  0.063375  0  3.747078  0  0  0.073548  0  3.970737  0  0  0.073747  0  3.995817  0  0  0.002638  0.073747  0  3.953703  0
C  C42  1  0.66345776  0.09205634  0.88927950  1  0  -0.154821  0  3.680278  0  0  -0.134636  0  3.929469  0  0  -0.142693  0  3.952314  0  0  -0.011644  -0.129736  0  3.914509  0
C  C43  1  0.33654891  0.90793704  0.11072270  1  0  -0.154855  0  3.680263  0  0  -0.134704  0  3.929472  0  0  -0.14276  0  3.952315  0  0  -0.011651  -0.129803  0  3.914515  0
C  C44  1  0.79701669  0.13122935  0.93114159  1  0  -0.057127  0  3.749551  0  0  -0.084004  0  4.000073  0  0  -0.082314  0  4.019053  0  0  -0.080342  -0.084969  0  3.987637  0
C  C45  1  0.20298794  0.86876740  0.06886037  1  0  -0.056894  0  3.749291  0  0  -0.083721  0  3.999803  0  0  -0.082029  0  4.018779  0  0  -0.080283  -0.084686  0  3.987371  0
C  C46  1  0.78174416  0.09683915  0.03334833  1  0  -0.062431  0  3.760864  0  0  -0.07543  0  4.020487  0  0  -0.078598  0  4.041238  0  0  -0.087982  -0.07329  0  4.006962  0
C  C47  1  0.21825947  0.90315532  0.96665616  1  0  -0.062674  0  3.760984  0  0  -0.075721  0  4.020645  0  0  -0.07889  0  4.041394  0  0  -0.088063  -0.07358  0  4.007127  0
C  C48  1  0.63482555  0.02328716  0.09257139  1  0  -0.090312  0  3.694462  0  0  -0.116002  0  3.949327  0  0  -0.115745  0  3.965681  0  0  -0.082665  -0.116191  0  3.938509  0
C  C49  1  0.36517523  0.97670733  0.90743133  1  0  -0.090267  0  3.694458  0  0  -0.115913  0  3.949341  0  0  -0.115656  0  3.965695  0  0  -0.082619  -0.116107  0  3.938523  0
C  C50  1  0.50642199  0.01760750  0.94768092  1  0  0.05405  0  3.740377  0  0  0.062708  0  3.971579  0  0  0.062698  0  3.997096  0  0  0.001369  0.06277  0  3.954147  0
C  C51  1  0.49358121  0.98238925  0.05232051  1  0  0.054052  0  3.740346  0  0  0.062775  0  3.971474  0  0  0.062763  0  3.99699  0  0  0.001444  0.062836  0  3.95404  0
S  S52  1  0.21155738  0.65320612  0.76936189  1  0  1.330667  0  5.593097  0  0  1.227388  0  6.111717  0  0  1.276464  0  6.08751  0  0  0.543219  1.1936  0  6.127366  0
S  S53  1  0.78843949  0.34679402  0.23063768  1  0  1.330817  0  5.592931  0  0  1.227558  0  6.11154  0  0  1.276632  0  6.087331  0  0  0.543282  1.19377  0  6.127187  0
S  S54  1  0.69215630  0.14607598  0.75931369  1  0  1.301743  0  5.606801  0  0  1.20558  0  6.125401  0  0  1.252789  0  6.102902  0  0  0.525514  1.173148  0  6.139694  0
S  S55  1  0.30785341  0.85392414  0.24068790  1  0  1.301645  0  5.606914  0  0  1.205439  0  6.125547  0  0  1.252641  0  6.10305  0  0  0.525457  1.173008  0  6.13984  0
O  O56  1  0.07838459  0.59777315  0.72482722  1  0  -0.722778  0  2.016876  0  0  -0.65944  0  2.271941  0  0  -0.68297  0  2.256372  0  0  -0.370147  -0.642756  0  2.282334  0
O  O57  1  0.92161513  0.40222700  0.27517133  1  0  -0.722851  0  2.016863  0  0  -0.659495  0  2.271906  0  0  -0.683022  0  2.256336  0  0  -0.370155  -0.642816  0  2.282304  0
O  O58  1  0.41441452  0.61529416  0.72257946  1  0  -0.722954  0  2.067085  0  0  -0.659706  0  2.332049  0  0  -0.682972  0  2.315973  0  0  -0.366149  -0.643359  0  2.342801  0
O  O59  1  0.58558235  0.38470598  0.27742012  1  0  -0.723007  0  2.067035  0  0  -0.659776  0  2.332003  0  0  -0.683035  0  2.315927  0  0  -0.366179  -0.643429  0  2.342754  0
O  O60  1  0.15960913  0.81409647  0.77119379  1  0  -0.642278  0  1.924931  0  0  -0.586021  0  2.158172  0  0  -0.60663  0  2.143134  0  0  -0.311187  -0.571526  0  2.168237  0
O  O61  1  0.84038653  0.18590253  0.22880679  1  0  -0.642281  0  1.924858  0  0  -0.586077  0  2.158138  0  0  -0.606694  0  2.143105  0  0  -0.311215  -0.571581  0  2.168199  0
O  O62  1  0.69536635  0.00845963  0.72092863  1  0  -0.72042  0  1.968789  0  0  -0.66161  0  2.228458  0  0  -0.684492  0  2.21302  0  0  -0.361585  -0.645285  0  2.238566  0
O  O63  1  0.30463702  0.99154390  0.27906971  1  0  -0.720327  0  1.968738  0  0  -0.661542  0  2.228461  0  0  -0.684421  0  2.213019  0  0  -0.361605  -0.645218  0  2.238565  0
O  O64  1  0.87572272  0.20745610  0.72518676  1  0  -0.665486  0  1.935451  0  0  -0.611562  0  2.168171  0  0  -0.630614  0  2.151132  0  0  -0.323662  -0.598171  0  2.179851  0
O  O65  1  0.12428455  0.79254177  0.27481543  1  0  -0.665597  0  1.93543  0  0  -0.611535  0  2.168064  0  0  -0.630587  0  2.151028  0  0  -0.323627  -0.598143  0  2.179745  0
O  O66  1  0.52559749  0.25909618  0.73895219  1  0  -0.668155  0  1.929146  0  0  -0.61619  0  2.1667  0  0  -0.636983  0  2.152452  0  0  -0.32951  -0.601508  0  2.176292  0
O  O67  1  0.47441324  0.74090617  0.26105106  1  0  -0.668042  0  1.929295  0  0  -0.61609  0  2.166864  0  0  -0.636874  0  2.152614  0  0  -0.329425  -0.601407  0  2.176455  0
O  O68  1  0.04431186  0.90162236  0.57808364  1  0  -1.130967  0  1.810679  0  0  -1.054649  0  2.043302  0  0  -1.088595  0  2.017604  0  0  -0.73215  -1.029898  0  2.060726  0
O  O69  1  0.95568765  0.09837892  0.42191478  1  0  -1.130968  0  1.810734  0  0  -1.054634  0  2.043332  0  0  -1.08858  0  2.017632  0  0  -0.732131  -1.029882  0  2.060755  0
O  O70  1  0.43641552  0.90753620  0.58021842  1  0  -1.117085  0  1.780895  0  0  -1.040261  0  2.007927  0  0  -1.073636  0  1.981743  0  0  -0.715781  -1.016141  0  2.025766  0
O  O71  1  0.56358642  0.09246735  0.41977799  1  0  -1.117025  0  1.780922  0  0  -1.040145  0  2.007851  0  0  -1.073513  0  1.981669  0  0  -0.715746  -1.016029  0  2.025689  0
O  O72  1  0.33691710  0.75754147  0.46092049  1  0  -1.138075  0  1.810865  0  0  -1.058057  0  2.043006  0  0  -1.092518  0  2.016505  0  0  -0.728215  -1.033428  0  2.061198  0
O  O73  1  0.66307836  0.24245865  0.53908064  1  0  -1.138086  0  1.81082  0  0  -1.058107  0  2.042963  0  0  -1.092562  0  2.016463  0  0  -0.728247  -1.033476  0  2.061158  0
O  O74  1  0.65685084  0.52404244  0.42149579  1  0  -1.134189  0  1.76718  0  0  -1.05665  0  1.989526  0  0  -1.090577  0  1.963779  0  0  -0.70671  -1.032402  0  2.007467  0
O  O75  1  0.34314868  0.47595883  0.57850332  1  0  -1.134168  0  1.767104  0  0  -1.056643  0  1.98952  0  0  -1.090566  0  1.963772  0  0  -0.706711  -1.032395  0  2.007462  0
O  O76  1  0.85127505  0.46720007  0.57850348  1  0  -1.126953  0  1.741209  0  0  -1.045774  0  1.966646  0  0  -1.079939  0  1.939666  0  0  -0.723961  -1.021608  0  1.985682  0
O  O77  1  0.14872304  0.53280119  0.42149579  1  0  -1.126941  0  1.741204  0  0  -1.045768  0  1.966678  0  0  -1.079926  0  1.939699  0  0  -0.723942  -1.0216  0  1.985713  0
O  O78  1  0.82390158  0.78267559  0.46341246  1  0  -1.101441  0  1.718356  0  0  -1.022193  0  1.943863  0  0  -1.055989  0  1.9175  0  0  -0.698963  -0.997691  0  1.961962  0
O  O79  1  0.17609651  0.21732568  0.53658681  1  0  -1.101477  0  1.718389  0  0  -1.022224  0  1.943878  0  0  -1.056015  0  1.917517  0  0  -0.698969  -0.997722  0  1.961978  0
O  O80  1  0.75292017  0.73418765  0.64114574  1  0  -1.126482  0  1.860999  0  0  -1.055524  0  2.091276  0  0  -1.089151  0  2.067557  0  0  -0.745594  -1.031535  0  2.107693  0
O  O81  1  0.24707792  0.26581362  0.35885283  1  0  -1.12642  0  1.861052  0  0  -1.055517  0  2.09133  0  0  -1.089136  0  2.067613  0  0  -0.74561  -1.031531  0  2.107748  0
