# generated using pymatgen
data_NiH25C12N4Cl3
_symmetry_space_group_name_H-M   'P 1'
_cell_length_a   7.31231073
_cell_length_b   7.32240118
_cell_length_c   7.21556650
_cell_angle_alpha   91.74824469
_cell_angle_beta   91.68093994
_cell_angle_gamma   92.45525926
_symmetry_Int_Tables_number   1
_chemical_formula_structural   NiH25C12N4Cl3
_chemical_formula_sum   'Ni1 H25 C12 N4 Cl3'
_cell_volume   385.63193010
_cell_formula_units_Z   1
loop_
 _symmetry_equiv_pos_site_id
 _symmetry_equiv_pos_as_xyz
  1  'x, y, z'
loop_
 _atom_site_type_symbol
 _atom_site_label
 _atom_site_symmetry_multiplicity
 _atom_site_fract_x
 _atom_site_fract_y
 _atom_site_fract_z
 _atom_site_occupancy
 _atom_site_hle17_ddec_charge
 _atom_site_hle17_ddec_spin_density
 _atom_site_hle17_ddec_sum_bond_order
 _atom_site_hle17_magmom
 _atom_site_hse06_10hf_ddec_charge
 _atom_site_hse06_10hf_ddec_spin_density
 _atom_site_hse06_10hf_ddec_sum_bond_order
 _atom_site_hse06_10hf_magmom
 _atom_site_hse06_ddec_charge
 _atom_site_hse06_ddec_spin_density
 _atom_site_hse06_ddec_sum_bond_order
 _atom_site_hse06_magmom
 _atom_site_pbe_cm5_charge
 _atom_site_pbe_ddec_charge
 _atom_site_pbe_ddec_spin_density
 _atom_site_pbe_ddec_sum_bond_order
 _atom_site_pbe_magmom
Ni  Ni0  1  0.50292138  0.49744668  0.49962813  1  0.647525  1.674121  2.056112  1.407  0.663611  1.779443  2.460564  1.57  0.772609  1.852218  2.381651  1.685  0.452439  0.585117  1.71737  2.516987  1.477
H  H1  1  0.45397888  0.81523613  0.77857949  1  0.074503  0.000181  0.969481  0.001  0.084909  0.000193  1.040883  0.001  0.085975  6.5e-05  1.040318  0.0  0.092392  0.083971  0.000324  1.041549  0.001
H  H2  1  0.77869331  0.45388467  0.81939039  1  0.073972  0.000286  0.964308  0.001  0.082807  0.000272  1.037892  0.001  0.083492  0.000124  1.03775  0.0  0.09386  0.08213  0.000423  1.038249  0.001
H  H3  1  0.22142827  0.18249628  0.54959844  1  0.072775  0.000291  0.96245  0.001  0.082068  0.000316  1.036935  0.001  0.082846  0.000186  1.036666  0.0  0.094229  0.081323  0.000444  1.037416  0.001
H  H4  1  0.81797633  0.77860549  0.45035777  1  0.07293  0.000311  0.961801  0.001  0.082043  0.000333  1.036484  0.001  0.082787  0.000201  1.036265  0.0  0.094318  0.081324  0.000463  1.036932  0.001
H  H5  1  0.54646791  0.22131859  0.18033206  1  0.073928  0.000309  0.963184  0.001  0.082548  0.000294  1.037013  0.001  0.083245  0.000145  1.036861  0.0  0.093865  0.081887  0.000446  1.037324  0.001
H  H6  1  0.18457483  0.54570893  0.22137326  1  0.07466  0.00018  0.970144  0.001  0.085244  0.000188  1.04125  0.001  0.086305  6e-05  1.040654  0.0  0.092348  0.084337  0.000321  1.041914  0.001
H  H7  1  0.58021040  0.93237868  0.60696681  1  0.081415  -1.2e-05  0.969476  0.0  0.091848  8e-06  1.037107  0.0  0.092897  -3.9e-05  1.036717  0.0  0.094654  0.090978  7.3e-05  1.037486  0.0
H  H8  1  0.60817259  0.57633138  0.93749885  1  0.078038  -4e-06  0.966349  0.0  0.088978  5.1e-05  1.035557  0.0  0.090098  1e-05  1.035252  0.0  0.096005  0.088063  0.000103  1.035915  0.0
H  H9  1  0.39021895  0.06553989  0.42331273  1  0.08074  -0.000182  0.968493  0.0  0.091904  -0.00012  1.036398  0.0  0.093176  -0.000129  1.035728  0.0  0.095294  0.090769  -9.7e-05  1.037163  0.0
H  H10  1  0.93499739  0.60994280  0.57634429  1  0.080681  -0.000168  0.967876  0.0  0.091697  -0.000107  1.036048  0.0  0.09304  -0.000117  1.035349  0.0  0.09554  0.090563  -8.4e-05  1.036762  0.0
H  H11  1  0.42396753  0.39151959  0.06222127  1  0.078439  -1.7e-05  0.966243  0.0  0.08932  4.5e-05  1.035397  0.0  0.090517  8e-06  1.034994  0.0  0.096101  0.088322  9.5e-05  1.035853  0.0
H  H12  1  0.06737435  0.41985213  0.39317351  1  0.081548  1.2e-05  0.968442  0.0  0.092241  2.8e-05  1.035978  0.0  0.093261  -2.4e-05  1.035642  0.0  0.094993  0.091391  9.7e-05  1.036323  0.0
H  H13  1  0.71492771  0.10866569  0.85422209  1  0.078842  0.000331  0.931455  0.0  0.094026  0.000357  0.993037  0.0  0.094579  0.000202  0.993286  0.0  0.103092  0.093509  0.000519  0.992981  0.0
H  H14  1  0.85232597  0.71424672  0.11548244  1  0.080099  0.000168  0.929078  0.0  0.094594  0.000234  0.991403  0.0  0.0953  0.000122  0.991453  0.0  0.104898  0.093974  0.00035  0.991472  0.0
H  H15  1  0.14518523  0.89020294  0.28688714  1  0.079973  7.3e-05  0.933309  0.0  0.096135  0.000171  0.992961  0.0  0.097169  8.9e-05  0.992562  0.0  0.103239  0.095212  0.000252  0.993479  0.0
H  H16  1  0.11047522  0.85465126  0.71308204  1  0.080177  6.5e-05  0.933012  0.0  0.095959  0.000164  0.993126  0.0  0.096995  8.4e-05  0.992765  0.0  0.103351  0.095051  0.000242  0.993612  0.0
H  H17  1  0.28586513  0.14761261  0.88438799  1  0.080311  0.000153  0.929023  0.0  0.094963  0.000223  0.991027  0.0  0.095709  0.000116  0.991053  0.0  0.104954  0.094302  0.000334  0.991163  0.0
H  H18  1  0.89077956  0.28500298  0.14600114  1  0.078484  0.000338  0.931123  0.0  0.093288  0.000358  0.993094  0.0  0.093872  0.0002  0.993297  0.0  0.102982  0.09276  0.000524  0.993043  0.0
H  H19  1  0.64798889  0.94601080  0.02393616  1  0.076226  0.000843  0.95012  0.0  0.090007  0.000827  1.016227  0.0  0.091395  0.000579  1.015337  0.0  0.100597  0.088859  0.001062  1.017069  0.0
H  H20  1  0.01991724  0.64980399  0.95110497  1  0.078338  0.000636  0.948195  0.0  0.092285  0.000644  1.012868  0.0  0.093745  0.000455  1.011797  0.0  0.101697  0.090971  0.000814  1.014053  0.0
H  H21  1  0.97887529  0.05218530  0.35343955  1  0.076097  0.000171  0.956012  0.0  0.08914  0.00027  1.021432  0.0  0.090585  0.000172  1.02005  0.0  0.100399  0.087856  0.000363  1.02277  0.0
H  H22  1  0.94831286  0.02074040  0.64676518  1  0.076027  0.000115  0.955236  0.0  0.089082  0.000225  1.020527  0.0  0.090632  0.00014  1.018994  0.0  0.100298  0.08773  0.000307  1.021974  0.0
H  H23  1  0.35027937  0.98037434  0.04871929  1  0.078628  0.000566  0.948386  0.0  0.092442  0.000589  1.013122  0.0  0.093906  0.000415  1.01201  0.0  0.101783  0.091163  0.000748  1.014291  0.0
H  H24  1  0.05366298  0.35172507  0.97617743  1  0.076663  0.000862  0.94953  0.0  0.090217  0.000842  1.015707  0.0  0.091625  0.000591  1.014808  0.0  0.100882  0.089074  0.001079  1.016537  0.0
H  H25  1  0.99978504  0.00011244  0.99999853  1  0.190681  -4.3e-05  0.994874  0.0  0.166505  -5.9e-05  1.061583  0.0  0.175591  -7.6e-05  1.060173  0.0  0.280641  0.160375  -2.7e-05  1.062366  0.0
C  C26  1  0.59165943  0.85353357  0.73309573  1  -0.055111  -0.002512  3.596871  -0.003  -0.104966  -0.000491  3.841607  -0.001  -0.102295  -0.001176  3.857113  -0.001  -0.081803  -0.106596  0.0002  3.831003  -0.001
C  C27  1  0.73285902  0.59025810  0.85751092  1  -0.05021  -0.002476  3.593389  -0.003  -0.102315  -0.000353  3.842556  -0.001  -0.09972  -0.001038  3.858226  -0.002  -0.07993  -0.103909  0.000298  3.831887  -0.001
C  C28  1  0.26685864  0.14478737  0.41070673  1  -0.051761  -0.002604  3.594461  -0.003  -0.104965  -0.000478  3.845296  -0.001  -0.102347  -0.001104  3.86101  -0.002  -0.080915  -0.106561  0.000125  3.834598  -0.001
C  C29  1  0.85564548  0.73314449  0.58917358  1  -0.052383  -0.00255  3.594222  -0.003  -0.105659  -0.000428  3.845159  -0.001  -0.103134  -0.001054  3.86078  -0.002  -0.081074  -0.107179  0.000175  3.834493  -0.001
C  C30  1  0.40996659  0.26713788  0.14225480  1  -0.051437  -0.002446  3.592783  -0.003  -0.103161  -0.000318  3.841843  -0.001  -0.10066  -0.000998  3.857694  -0.002  -0.079828  -0.104703  0.000328  3.831083  -0.001
C  C31  1  0.14627105  0.40825874  0.26689273  1  -0.055955  -0.002494  3.596977  -0.003  -0.106385  -0.000472  3.842116  -0.001  -0.103612  -0.001171  3.857543  -0.001  -0.081891  -0.108117  0.000223  3.831548  -0.001
C  C32  1  0.70499527  0.96288843  0.88599524  1  -0.026707  0.004034  3.536479  0.005  -0.081184  0.002828  3.783281  0.003  -0.078269  0.001884  3.7939  0.002  -0.069891  -0.082921  0.003698  3.776006  0.004
C  C33  1  0.88376599  0.70502033  0.96772461  1  -0.028613  0.003792  3.534045  0.005  -0.081312  0.002572  3.778975  0.003  -0.078286  0.001702  3.789405  0.002  -0.069164  -0.083077  0.003344  3.771799  0.004
C  C34  1  0.11497829  0.03576177  0.29617577  1  -0.028848  0.003465  3.536916  0.004  -0.081303  0.002287  3.780693  0.003  -0.078214  0.001516  3.791007  0.002  -0.07014  -0.083178  0.002967  3.773707  0.003
C  C35  1  0.96472784  0.88481917  0.70384048  1  -0.028341  0.003426  3.536142  0.004  -0.080349  0.002246  3.779763  0.003  -0.077324  0.001484  3.790138  0.002  -0.069565  -0.082198  0.002913  3.772742  0.003
C  C36  1  0.29505523  0.11631444  0.03214961  1  -0.028733  0.003747  3.533228  0.005  -0.081672  0.002531  3.778298  0.003  -0.078604  0.001674  3.788616  0.002  -0.069296  -0.083481  0.003292  3.771115  0.004
C  C37  1  0.03678589  0.29488358  0.11413017  1  -0.026052  0.00405  3.536761  0.005  -0.079844  0.00283  3.782857  0.003  -0.076962  0.001884  3.793365  0.002  -0.06982  -0.081549  0.003705  3.775617  0.004
N  N38  1  0.68393750  0.68244805  0.68354050  1  -0.171458  0.059795  3.213352  0.092  -0.102878  0.04003  3.468731  0.064  -0.135821  0.030148  3.502849  0.052  -0.328722  -0.080286  0.046899  3.445196  0.071
N  N39  1  0.31759909  0.31619343  0.31628290  1  -0.170996  0.059839  3.21311  0.092  -0.102719  0.04004  3.46927  0.064  -0.135956  0.030154  3.503678  0.052  -0.32891  -0.079915  0.046913  3.445485  0.071
N  N40  1  0.89311676  0.89298656  0.89478855  1  -0.127123  -0.000688  3.255819  -0.001  -0.044366  -5.2e-05  3.477109  0.0  -0.058265  -0.000102  3.496484  0.0  -0.335413  -0.034942  9.3e-05  3.46382  0.0
N  N41  1  0.10680433  0.10706241  0.10523475  1  -0.127809  -0.000692  3.25597  -0.001  -0.044457  -5.3e-05  3.47631  0.0  -0.05835  -0.000101  3.495685  0.0  -0.335277  -0.035027  9.3e-05  3.462969  0.0
Cl  Cl42  1  0.72298447  0.27597389  0.50123181  1  -0.554392  0.05212  0.947726  0.069  -0.527736  0.036695  1.222846  0.047  -0.553023  0.025139  1.196276  0.033  -0.29104  -0.50788  0.047658  1.241965  0.059
Cl  Cl43  1  0.48781698  0.72595745  0.28544779  1  -0.533859  0.070344  0.970807  0.102  -0.526303  0.042105  1.254796  0.06  -0.555081  0.027541  1.229853  0.043  -0.286396  -0.504835  0.054885  1.272701  0.074
Cl  Cl44  1  0.27480836  0.51097484  0.71484929  1  -0.531916  0.072263  0.97248  0.105  -0.526291  0.04269  1.257284  0.062  -0.555426  0.027822  1.232472  0.044  -0.285779  -0.504659  0.055643  1.275001  0.076
