# generated using pymatgen
data_ZnH8C9N5O2
_symmetry_space_group_name_H-M   'P 1'
_cell_length_a   7.64951960
_cell_length_b   9.38246001
_cell_length_c   14.94839265
_cell_angle_alpha   105.25355904
_cell_angle_beta   90.00013157
_cell_angle_gamma   89.99989947
_symmetry_Int_Tables_number   1
_chemical_formula_structural   ZnH8C9N5O2
_chemical_formula_sum   'Zn4 H32 C36 N20 O8'
_cell_volume   1035.06974417
_cell_formula_units_Z   4
loop_
 _symmetry_equiv_pos_site_id
 _symmetry_equiv_pos_as_xyz
  1  'x, y, z'
loop_
 _atom_site_type_symbol
 _atom_site_label
 _atom_site_symmetry_multiplicity
 _atom_site_fract_x
 _atom_site_fract_y
 _atom_site_fract_z
 _atom_site_occupancy
 _atom_site_hle17_bader_spin_density
 _atom_site_hle17_ddec_charge
 _atom_site_hle17_ddec_spin_density
 _atom_site_hle17_ddec_sum_bond_order
 _atom_site_hle17_magmom
 _atom_site_hse06_10hf_bader_spin_density
 _atom_site_hse06_10hf_ddec_charge
 _atom_site_hse06_10hf_ddec_spin_density
 _atom_site_hse06_10hf_ddec_sum_bond_order
 _atom_site_hse06_10hf_magmom
 _atom_site_hse06_bader_spin_density
 _atom_site_hse06_ddec_charge
 _atom_site_hse06_ddec_spin_density
 _atom_site_hse06_ddec_sum_bond_order
 _atom_site_hse06_magmom
 _atom_site_pbe_bader_spin_density
 _atom_site_pbe_cm5_charge
 _atom_site_pbe_ddec_charge
 _atom_site_pbe_ddec_spin_density
 _atom_site_pbe_ddec_sum_bond_order
 _atom_site_pbe_magmom
Zn  Zn0  1  0.48962503  0.89655119  0.21461905  1  0  0.939525  0  1.909521  0  0  0.736827  0  2.38592  0  0  0.781118  0  2.336672  0  0  0.72537  0.706281  0  2.419179  0
Zn  Zn1  1  0.98962666  0.60345001  0.78538091  1  0  0.939532  0  1.909543  0  0  0.736807  0  2.385966  0  0  0.781099  0  2.336718  0  0  0.72535  0.706266  0  2.419228  0
Zn  Zn2  1  0.51037488  0.10344781  0.78537963  1  0  0.939524  0  1.909557  0  0  0.736819  0  2.385973  0  0  0.781114  0  2.336722  0  0  0.725374  0.706277  0  2.419236  0
Zn  Zn3  1  0.01037587  0.39655009  0.21461863  1  0  0.939532  0  1.909542  0  0  0.736824  0  2.385957  0  0  0.781121  0  2.336705  0  0  0.725381  0.706275  0  2.419215  0
H  H4  1  0.52555855  0.14038093  0.09320781  1  0  0.102454  0  0.948699  0  0  0.118407  0  1.00722  0  0  0.119631  0  1.007278  0  0  0.105506  0.11753  0  1.007085  0
H  H5  1  0.02555881  0.35962027  0.90679034  1  0  0.102473  0  0.948659  0  0  0.118464  0  1.007158  0  0  0.119688  0  1.007232  0  0  0.105522  0.117588  0  1.007027  0
H  H6  1  0.47444528  0.85962028  0.90679057  1  0  0.102511  0  0.948616  0  0  0.118528  0  1.007096  0  0  0.119712  0  1.007196  0  0  0.105523  0.117648  0  1.006967  0
H  H7  1  0.97444633  0.64038094  0.09320938  1  0  0.10251  0  0.94864  0  0  0.118515  0  1.00714  0  0  0.119682  0  1.007256  0  0  0.105524  0.117641  0  1.007002  0
H  H8  1  0.67519917  0.28472096  0.09773690  1  0  0.097607  0  0.930867  0  0  0.113449  0  0.99055  0  0  0.11506  0  0.989589  0  0  0.103934  0.111887  0  0.991894  0
H  H9  1  0.17520103  0.21527898  0.90226190  1  0  0.097591  0  0.930863  0  0  0.113441  0  0.990554  0  0  0.115066  0  0.989591  0  0  0.103933  0.111883  0  0.991899  0
H  H10  1  0.32480466  0.71527804  0.90226179  1  0  0.097621  0  0.930862  0  0  0.113475  0  0.990545  0  0  0.115088  0  0.989574  0  0  0.103939  0.111913  0  0.991888  0
H  H11  1  0.82480672  0.78472443  0.09773886  1  0  0.097606  0  0.930863  0  0  0.113465  0  0.990557  0  0  0.115072  0  0.989587  0  0  0.103925  0.111902  0  0.991902  0
H  H12  1  0.77646739  0.95595550  0.02791584  1  0  0.103259  0  0.939241  0  0  0.118742  0  1.000048  0  0  0.120685  0  0.999538  0  0  0.101095  0.117121  0  1.000839  0
H  H13  1  0.27646732  0.54404481  0.97208373  1  0  0.103249  0  0.939222  0  0  0.118732  0  1.00004  0  0  0.120677  0  0.99953  0  0  0.101091  0.117111  0  1.00083  0
H  H14  1  0.22353513  0.04404350  0.97208218  1  0  0.103229  0  0.939279  0  0  0.118748  0  1.000034  0  0  0.120687  0  0.999525  0  0  0.10109  0.117127  0  1.000827  0
H  H15  1  0.72353520  0.45595972  0.02791721  1  0  0.10321  0  0.939262  0  0  0.118707  0  1.000045  0  0  0.120646  0  0.999539  0  0  0.101067  0.117086  0  1.000837  0
H  H16  1  0.90659935  0.10928780  0.02402602  1  0  0.120575  0  0.932296  0  0  0.135503  0  0.992755  0  0  0.138029  0  0.991817  0  0  0.107226  0.133656  0  0.99358  0
H  H17  1  0.40659985  0.39071191  0.97597367  1  0  0.120528  0  0.932348  0  0  0.135491  0  0.992775  0  0  0.138019  0  0.991836  0  0  0.107217  0.133643  0  0.9936  0
H  H18  1  0.09340448  0.89071120  0.97597199  1  0  0.120578  0  0.932288  0  0  0.135513  0  0.992744  0  0  0.138039  0  0.991802  0  0  0.107208  0.133665  0  0.993567  0
H  H19  1  0.59340398  0.60929261  0.02402727  1  0  0.120529  0  0.932357  0  0  0.135486  0  0.992774  0  0  0.138012  0  0.991834  0  0  0.107224  0.133639  0  0.993598  0
H  H20  1  0.14597489  0.77393415  0.24284945  1  0  0.094197  0  0.938955  0  0  0.10253  0  1.002747  0  0  0.105075  0  1.000464  0  0  0.121615  0.100582  0  1.00446  0
H  H21  1  0.64597089  0.72607181  0.75715090  1  0  0.094136  0  0.939082  0  0  0.102478  0  1.002838  0  0  0.105024  0  1.000555  0  0  0.121621  0.100532  0  1.004546  0
H  H22  1  0.85402764  0.22606374  0.75715039  1  0  0.094187  0  0.938982  0  0  0.102532  0  1.002744  0  0  0.105078  0  1.000463  0  0  0.121624  0.100586  0  1.004457  0
H  H23  1  0.35403163  0.27393050  0.24284901  1  0  0.094176  0  0.939014  0  0  0.102516  0  1.002789  0  0  0.105062  0  1.000507  0  0  0.121623  0.100572  0  1.004499  0
H  H24  1  0.91563913  0.82118001  0.36385903  1  0  0.100199  0  0.998742  0  0  0.106358  0  1.067139  0  0  0.108499  0  1.067863  0  0  0.108383  0.104783  0  1.066936  0
H  H25  1  0.41563202  0.67881905  0.63614183  1  0  0.10021  0  0.998771  0  0  0.106379  0  1.067168  0  0  0.108519  0  1.067891  0  0  0.108375  0.104797  0  1.066962  0
H  H26  1  0.08436471  0.17881678  0.63614196  1  0  0.10024  0  0.998737  0  0  0.106382  0  1.067167  0  0  0.108524  0  1.067889  0  0  0.108388  0.104803  0  1.066962  0
H  H27  1  0.58436527  0.32117994  0.36386154  1  0  0.100187  0  0.998742  0  0  0.106345  0  1.067136  0  0  0.108484  0  1.067861  0  0  0.108406  0.104768  0  1.066937  0
H  H28  1  0.26822706  0.13492592  0.53966019  1  0  0.106958  0  0.986954  0  0  0.110008  0  1.05931  0  0  0.113555  0  1.057612  0  0  0.10668  0.107498  0  1.060491  0
H  H29  1  0.76822143  0.36507172  0.46034301  1  0  0.107013  0  0.986934  0  0  0.110048  0  1.059319  0  0  0.113592  0  1.057622  0  0  0.1067  0.107538  0  1.0605  0
H  H30  1  0.73177677  0.86507640  0.46033838  1  0  0.106987  0  0.986911  0  0  0.110049  0  1.05927  0  0  0.113596  0  1.057569  0  0  0.106662  0.107537  0  1.060451  0
H  H31  1  0.23176933  0.63492396  0.53965980  1  0  0.106968  0  0.986951  0  0  0.110028  0  1.05931  0  0  0.113574  0  1.057611  0  0  0.10669  0.107517  0  1.060488  0
H  H32  1  0.47845703  0.07881274  0.41077003  1  0  0.076425  0  0.955439  0  0  0.081948  0  1.025254  0  0  0.084331  0  1.023505  0  0  0.115746  0.079791  0  1.027431  0
H  H33  1  0.97845316  0.42118469  0.58923339  1  0  0.076351  0  0.955238  0  0  0.081879  0  1.025069  0  0  0.084254  0  1.023347  0  0  0.115701  0.079718  0  1.027255  0
H  H34  1  0.52154680  0.92118626  0.58922866  1  0  0.076351  0  0.95539  0  0  0.081884  0  1.025194  0  0  0.084259  0  1.023472  0  0  0.115706  0.079723  0  1.02738  0
H  H35  1  0.02154021  0.57880878  0.41076773  1  0  0.076386  0  0.955445  0  0  0.081923  0  1.025221  0  0  0.08431  0  1.023474  0  0  0.115748  0.079755  0  1.02743  0
C  C36  1  0.72779237  0.15638997  0.19177414  1  0  0.358989  0  3.714404  0  0  0.333202  0  3.980291  0  0  0.346612  0  3.996573  0  0  0.232878  0.324414  0  3.969135  0
C  C37  1  0.22779353  0.34360992  0.80822471  1  0  0.358959  0  3.714364  0  0  0.33317  0  3.980274  0  0  0.346589  0  3.996565  0  0  0.232833  0.324384  0  3.96912  0
C  C38  1  0.27221015  0.84360903  0.80822455  1  0  0.358989  0  3.714271  0  0  0.333223  0  3.980188  0  0  0.346625  0  3.996456  0  0  0.232895  0.324435  0  3.969034  0
C  C39  1  0.77221030  0.65639239  0.19177520  1  0  0.358971  0  3.714375  0  0  0.333245  0  3.980218  0  0  0.34665  0  3.99648  0  0  0.232877  0.324456  0  3.969064  0
C  C40  1  0.66471106  0.16903851  0.10011331  1  0  -0.175801  0  3.709571  0  0  -0.220812  0  3.964111  0  0  -0.221799  0  3.973256  0  0  -0.152047  -0.219944  0  3.957946  0
C  C41  1  0.16471397  0.33096365  0.89988650  1  0  -0.175803  0  3.709641  0  0  -0.220879  0  3.964264  0  0  -0.221911  0  3.973473  0  0  -0.152073  -0.220026  0  3.958118  0
C  C42  1  0.33529015  0.83096270  0.89988641  1  0  -0.175885  0  3.709523  0  0  -0.221003  0  3.964166  0  0  -0.221959  0  3.973302  0  0  -0.152089  -0.22014  0  3.958002  0
C  C43  1  0.83529117  0.66903976  0.10011359  1  0  -0.175858  0  3.709523  0  0  -0.221031  0  3.964195  0  0  -0.221958  0  3.973316  0  0  -0.152087  -0.220167  0  3.958023  0
C  C44  1  0.77082615  0.06949403  0.02077295  1  0  -0.246913  0  3.647309  0  0  -0.286668  0  3.895095  0  0  -0.292909  0  3.903406  0  0  -0.160948  -0.282223  0  3.889257  0
C  C45  1  0.27082528  0.43050693  0.97922679  1  0  -0.246822  0  3.647314  0  0  -0.286631  0  3.895167  0  0  -0.292864  0  3.903494  0  0  -0.160921  -0.282177  0  3.889324  0
C  C46  1  0.22917768  0.93050608  0.97922592  1  0  -0.246872  0  3.647298  0  0  -0.286648  0  3.895096  0  0  -0.292878  0  3.903377  0  0  -0.160922  -0.282197  0  3.88925  0
C  C47  1  0.72917855  0.56949759  0.02077415  1  0  -0.246837  0  3.647217  0  0  -0.286551  0  3.894958  0  0  -0.292781  0  3.903233  0  0  -0.160904  -0.282104  0  3.889115  0
C  C48  1  0.70120945  0.05875285  0.92414519  1  0  0.678889  0  3.868221  0  0  0.637966  0  4.15911  0  0  0.67055  0  4.153408  0  0  0.196181  0.615902  0  4.161878  0
C  C49  1  0.20120971  0.44124707  0.07585295  1  0  0.678832  0  3.868245  0  0  0.637921  0  4.159127  0  0  0.670509  0  4.15342  0  0  0.196152  0.615857  0  4.161895  0
C  C50  1  0.29879308  0.94124836  0.07585453  1  0  0.678863  0  3.868518  0  0  0.637986  0  4.159326  0  0  0.670564  0  4.153634  0  0  0.196155  0.615921  0  4.162093  0
C  C51  1  0.79879543  0.55875303  0.92414525  1  0  0.678979  0  3.868342  0  0  0.638041  0  4.15922  0  0  0.67062  0  4.153524  0  0  0.196163  0.615978  0  4.161989  0
C  C52  1  0.16462187  0.85539430  0.30922478  1  0  0.14836  0  3.656473  0  0  0.114192  0  3.905954  0  0  0.121762  0  3.922749  0  0  0.055599  0.109241  0  3.89487  0
C  C53  1  0.66462168  0.64460832  0.69077972  1  0  0.148509  0  3.656468  0  0  0.11433  0  3.905936  0  0  0.121902  0  3.922727  0  0  0.05564  0.109379  0  3.894856  0
C  C54  1  0.83537542  0.14460690  0.69077829  1  0  0.148451  0  3.656396  0  0  0.114302  0  3.905857  0  0  0.121876  0  3.922648  0  0  0.055644  0.109352  0  3.894776  0
C  C55  1  0.33537954  0.35539288  0.30922401  1  0  0.148326  0  3.656578  0  0  0.114141  0  3.906076  0  0  0.121711  0  3.922872  0  0  0.055587  0.109185  0  3.894997  0
C  C56  1  0.03815785  0.88099370  0.37799652  1  0  -0.142882  0  3.699504  0  0  -0.164835  0  3.9539  0  0  -0.172387  0  3.975938  0  0  -0.07697  -0.159935  0  3.939836  0
C  C57  1  0.53815086  0.61900684  0.62200548  1  0  -0.142845  0  3.699349  0  0  -0.164802  0  3.953688  0  0  -0.172352  0  3.97572  0  0  -0.076925  -0.159894  0  3.939623  0
C  C58  1  0.96184599  0.11900308  0.62200314  1  0  -0.142959  0  3.699426  0  0  -0.164897  0  3.953797  0  0  -0.172446  0  3.975828  0  0  -0.076986  -0.159993  0  3.939735  0
C  C59  1  0.46183990  0.38099105  0.37799503  1  0  -0.142812  0  3.6995  0  0  -0.164717  0  3.953864  0  0  -0.172267  0  3.975904  0  0  -0.076959  -0.159819  0  3.939806  0
C  C60  1  0.06769704  0.98419331  0.46340560  1  0  0.109019  0  3.714494  0  0  0.119375  0  3.942909  0  0  0.123884  0  3.962757  0  0  0.02213  0.116423  0  3.929312  0
C  C61  1  0.56768989  0.51580610  0.53659691  1  0  0.108966  0  3.714452  0  0  0.119342  0  3.942879  0  0  0.123853  0  3.962725  0  0  0.022104  0.116389  0  3.929281  0
C  C62  1  0.93230810  0.01580458  0.53659357  1  0  0.109022  0  3.714558  0  0  0.119351  0  3.943007  0  0  0.123859  0  3.962853  0  0  0.022122  0.116398  0  3.929409  0
C  C63  1  0.43230610  0.48419290  0.46340511  1  0  0.109021  0  3.714288  0  0  0.119323  0  3.942772  0  0  0.123832  0  3.962616  0  0  0.02211  0.116372  0  3.929175  0
C  C64  1  0.23094231  0.05538715  0.47542492  1  0  -0.142006  0  3.676329  0  0  -0.158287  0  3.919792  0  0  -0.165803  0  3.940626  0  0  -0.074948  -0.153065  0  3.905505  0
C  C65  1  0.73093941  0.44461052  0.52457824  1  0  -0.142065  0  3.676286  0  0  -0.158384  0  3.91982  0  0  -0.165899  0  3.940656  0  0  -0.074973  -0.153158  0  3.905519  0
C  C66  1  0.76906021  0.94461295  0.52457461  1  0  -0.142053  0  3.676374  0  0  -0.158364  0  3.919869  0  0  -0.165879  0  3.940703  0  0  -0.074938  -0.153139  0  3.905575  0
C  C67  1  0.26905658  0.55538516  0.47542324  1  0  -0.142087  0  3.676309  0  0  -0.158396  0  3.919851  0  0  -0.165911  0  3.940685  0  0  -0.075005  -0.153172  0  3.905563  0
C  C68  1  0.35093272  0.02497984  0.40330013  1  0  0.131308  0  3.692795  0  0  0.100546  0  3.938016  0  0  0.107107  0  3.957383  0  0  0.049677  0.096159  0  3.925488  0
C  C69  1  0.85093008  0.47502435  0.59670157  1  0  0.131487  0  3.69264  0  0  0.10072  0  3.937875  0  0  0.107276  0  3.957243  0  0  0.049752  0.096335  0  3.925347  0
C  C70  1  0.64907111  0.97502026  0.59669874  1  0  0.131497  0  3.692815  0  0  0.100751  0  3.938034  0  0  0.107305  0  3.957402  0  0  0.049803  0.096366  0  3.925507  0
C  C71  1  0.14906591  0.52497465  0.40330046  1  0  0.131395  0  3.692784  0  0  0.100646  0  3.938011  0  0  0.107203  0  3.957382  0  0  0.049693  0.096251  0  3.925477  0
N  N72  1  0.66537428  0.06488154  0.23993112  1  0  -0.368152  0  3.205404  0  0  -0.297061  0  3.513821  0  0  -0.316256  0  3.52496  0  0  -0.250112  -0.284057  0  3.506221  0
N  N73  1  0.16537502  0.43511841  0.76006766  1  0  -0.368069  0  3.205211  0  0  -0.296966  0  3.513617  0  0  -0.316158  0  3.524753  0  0  -0.250054  -0.283963  0  3.506014  0
N  N74  1  0.33462694  0.93511746  0.76006756  1  0  -0.368073  0  3.205191  0  0  -0.296979  0  3.513594  0  0  -0.316176  0  3.52474  0  0  -0.250083  -0.283973  0  3.505987  0
N  N75  1  0.83462750  0.56488279  0.23993139  1  0  -0.368149  0  3.205316  0  0  -0.297059  0  3.513691  0  0  -0.316258  0  3.524842  0  0  -0.250112  -0.284051  0  3.506081  0
N  N76  1  0.76215175  0.08826234  0.31890631  1  0  -0.096222  0  2.977884  0  0  -0.090385  0  3.280769  0  0  -0.089753  0  3.292352  0  0  -0.10014  -0.090692  0  3.272924  0
N  N77  1  0.26215088  0.41173641  0.68109172  1  0  -0.096269  0  2.977802  0  0  -0.090433  0  3.280687  0  0  -0.089804  0  3.292274  0  0  -0.100147  -0.090739  0  3.272841  0
N  N78  1  0.23784816  0.91173666  0.68109171  1  0  -0.09628  0  2.9778  0  0  -0.090448  0  3.28069  0  0  -0.089816  0  3.292275  0  0  -0.10015  -0.090754  0  3.272844  0
N  N79  1  0.73784903  0.58826148  0.31890678  1  0  -0.096168  0  2.977808  0  0  -0.090328  0  3.28069  0  0  -0.089698  0  3.292276  0  0  -0.100114  -0.090634  0  3.272844  0
N  N80  1  0.87900604  0.18934108  0.31877343  1  0  -0.06964  0  2.951095  0  0  -0.066964  0  3.246954  0  0  -0.064134  0  3.257002  0  0  -0.093536  -0.068507  0  3.23961  0
N  N81  1  0.37900539  0.31065756  0.68122472  1  0  -0.069592  0  2.951026  0  0  -0.066918  0  3.24687  0  0  -0.064093  0  3.256919  0  0  -0.093528  -0.068462  0  3.239527  0
N  N82  1  0.12099518  0.81065792  0.68122526  1  0  -0.069552  0  2.950999  0  0  -0.06686  0  3.246852  0  0  -0.064035  0  3.256896  0  0  -0.093506  -0.068403  0  3.239508  0
N  N83  1  0.62099452  0.68934144  0.31877330  1  0  -0.069675  0  2.951083  0  0  -0.067018  0  3.246957  0  0  -0.064192  0  3.257006  0  0  -0.093553  -0.068561  0  3.239614  0
N  N84  1  0.86067263  0.23339001  0.23988396  1  0  -0.339023  0  3.197877  0  0  -0.268277  0  3.503716  0  0  -0.286845  0  3.51335  0  0  -0.24125  -0.255691  0  3.496844  0
N  N85  1  0.36067374  0.26660864  0.76011484  1  0  -0.339091  0  3.197884  0  0  -0.268315  0  3.503692  0  0  -0.286877  0  3.513318  0  0  -0.241263  -0.255732  0  3.496823  0
N  N86  1  0.13932858  0.76660899  0.76011540  1  0  -0.3391  0  3.197829  0  0  -0.268371  0  3.503679  0  0  -0.286922  0  3.5133  0  0  -0.24129  -0.255788  0  3.496811  0
N  N87  1  0.63932878  0.73339256  0.23988421  1  0  -0.339035  0  3.197871  0  0  -0.268278  0  3.503661  0  0  -0.286839  0  3.513296  0  0  -0.241235  -0.255693  0  3.496791  0
N  N88  1  0.31824584  0.92796914  0.32105548  1  0  -0.311946  0  3.326337  0  0  -0.223401  0  3.601548  0  0  -0.241678  0  3.614596  0  0  -0.328018  -0.21141  0  3.592456  0
N  N89  1  0.81824183  0.57203113  0.67894546  1  0  -0.312121  0  3.326654  0  0  -0.223536  0  3.60184  0  0  -0.241814  0  3.614888  0  0  -0.328076  -0.211553  0  3.59276  0
N  N90  1  0.68175668  0.07202986  0.67894387  1  0  -0.31206  0  3.326522  0  0  -0.223549  0  3.601791  0  0  -0.241827  0  3.61484  0  0  -0.32811  -0.211562  0  3.592702  0
N  N91  1  0.18175285  0.42796676  0.32105505  1  0  -0.311915  0  3.326275  0  0  -0.223363  0  3.601471  0  0  -0.241643  0  3.614523  0  0  -0.327987  -0.211366  0  3.59238  0
O  O92  1  0.58102792  0.15345606  0.91653869  1  0  -0.642197  0  1.996691  0  0  -0.558172  0  2.256445  0  0  -0.587165  0  2.243027  0  0  -0.336891  -0.537846  0  2.264637  0
O  O93  1  0.08102712  0.34654509  0.08345952  1  0  -0.642187  0  1.996692  0  0  -0.558171  0  2.256451  0  0  -0.587164  0  2.243028  0  0  -0.336898  -0.537844  0  2.264641  0
O  O94  1  0.41897460  0.84654294  0.08345933  1  0  -0.642184  0  1.996647  0  0  -0.558187  0  2.256392  0  0  -0.587182  0  2.242978  0  0  -0.336897  -0.537858  0  2.264581  0
O  O95  1  0.91897671  0.65345833  0.91654056  1  0  -0.642225  0  1.996587  0  0  -0.558196  0  2.256341  0  0  -0.587193  0  2.242925  0  0  -0.33689  -0.53787  0  2.264532  0
O  O96  1  0.75778834  0.96035901  0.85669303  1  0  -0.632991  0  1.882803  0  0  -0.594202  0  2.107749  0  0  -0.617173  0  2.099685  0  0  -0.337178  -0.577905  0  2.112444  0
O  O97  1  0.25778717  0.53964021  0.14330633  1  0  -0.632994  0  1.882878  0  0  -0.594187  0  2.107798  0  0  -0.617158  0  2.09973  0  0  -0.337155  -0.57789  0  2.112494  0
O  O98  1  0.24221549  0.03963889  0.14330413  1  0  -0.632991  0  1.883154  0  0  -0.594212  0  2.108056  0  0  -0.617183  0  2.100001  0  0  -0.337142  -0.577915  0  2.11275  0
O  O99  1  0.74221666  0.46036320  0.85669576  1  0  -0.633047  0  1.883171  0  0  -0.594259  0  2.10811  0  0  -0.61723  0  2.100053  0  0  -0.337152  -0.577962  0  2.112804  0
