# generated using pymatgen
data_ZnH13C20N8ClO
_symmetry_space_group_name_H-M   'P 1'
_cell_length_a   7.99666136
_cell_length_b   9.44599207
_cell_length_c   12.90183112
_cell_angle_alpha   95.90339491
_cell_angle_beta   99.90428548
_cell_angle_gamma   109.63882809
_symmetry_Int_Tables_number   1
_chemical_formula_structural   ZnH13C20N8ClO
_chemical_formula_sum   'Zn2 H26 C40 N16 Cl2 O2'
_cell_volume   890.52879902
_cell_formula_units_Z   2
loop_
 _symmetry_equiv_pos_site_id
 _symmetry_equiv_pos_as_xyz
  1  'x, y, z'
loop_
 _atom_site_type_symbol
 _atom_site_label
 _atom_site_symmetry_multiplicity
 _atom_site_fract_x
 _atom_site_fract_y
 _atom_site_fract_z
 _atom_site_occupancy
 _atom_site_pbe_bader_spin_density
 _atom_site_pbe_cm5_charge
 _atom_site_pbe_ddec_charge
 _atom_site_pbe_ddec_spin_density
 _atom_site_pbe_ddec_sum_bond_order
 _atom_site_pbe_magmom
Zn  Zn0  1  0.25129459  0.43914503  0.15432884  1  0  0.651812  0.68742  0  2.414614  0
Zn  Zn1  1  0.74870315  0.56085144  0.84567050  1  0  0.651807  0.687437  0  2.414572  0
H  H2  1  0.90647603  0.35760886  0.01540914  1  0  0.279537  0.332708  0  1.038879  0
H  H3  1  0.09352221  0.64238877  0.98459189  1  0  0.279507  0.332662  0  1.038947  0
H  H4  1  0.05420770  0.37552820  0.94567453  1  0  0.301824  0.38475  0  0.921896  0
H  H5  1  0.94578701  0.62446716  0.05432596  1  0  0.301792  0.384754  0  0.921914  0
H  H6  1  0.80348214  0.46470917  0.55471528  1  0  0.09903  0.10898  0  1.021385  0
H  H7  1  0.19651908  0.53529526  0.44528342  1  0  0.099059  0.10908  0  1.021408  0
H  H8  1  0.15582188  0.79776446  0.63291508  1  0  0.101215  0.104574  0  1.013255  0
H  H9  1  0.84417306  0.20223438  0.36708877  1  0  0.101185  0.104556  0  1.013241  0
H  H10  1  0.68823533  0.65583406  0.27143642  1  0  0.111656  0.072904  0  1.045602  0
H  H11  1  0.31176285  0.34416921  0.72856033  1  0  0.111669  0.072929  0  1.045573  0
H  H12  1  0.17512208  0.65627020  0.78397880  1  0  0.08696  0.102326  0  1.059767  0
H  H13  1  0.82487892  0.34373088  0.21602508  1  0  0.086972  0.102391  0  1.059809  0
H  H14  1  0.68539768  0.01166879  0.94137161  1  0  0.103203  0.105888  0  1.014205  0
H  H15  1  0.31460228  0.98833570  0.05863084  1  0  0.10319  0.10588  0  1.014222  0
H  H16  1  0.99696244  0.87121915  0.33210831  1  0  0.11023  0.114234  0  0.994623  0
H  H17  1  0.00303552  0.12878077  0.66789283  1  0  0.110234  0.114249  0  0.994602  0
H  H18  1  0.96772095  0.11585992  0.06778906  1  0  0.119307  0.09736  0  1.014255  0
H  H19  1  0.03227603  0.88413770  0.93221105  1  0  0.119301  0.097329  0  1.014257  0
H  H20  1  0.66727906  0.15192273  0.79176478  1  0  0.091231  0.094875  0  1.051878  0
H  H21  1  0.33272171  0.84807486  0.20823419  1  0  0.091223  0.09486  0  1.051886  0
H  H22  1  0.90380091  0.66454421  0.44133179  1  0  0.108139  0.115102  0  1.002116  0
H  H23  1  0.09619674  0.33546373  0.55867064  1  0  0.108115  0.115095  0  1.002069  0
H  H24  1  0.85048215  0.87727226  0.14218216  1  0  0.108287  0.113175  0  1.079773  0
H  H25  1  0.14951278  0.12272653  0.85781859  1  0  0.1083  0.113223  0  1.07972  0
H  H26  1  0.64404966  0.25666007  0.65042931  1  0  0.28597  0.269999  0  1.010452  0
H  H27  1  0.35595260  0.74334094  0.34957005  1  0  0.285972  0.269959  0  1.010549  0
C  C28  1  0.40954610  0.98297349  0.70095924  1  0  -0.00983  0.00364  0  4.025238  0
C  C29  1  0.59045367  0.01702180  0.29903869  1  0  -0.009868  0.003546  0  4.025303  0
C  C30  1  0.54214957  0.34598951  0.44449402  1  0  0.002179  -0.011212  0  4.006386  0
C  C31  1  0.45784988  0.65401380  0.55550519  1  0  0.002159  -0.011261  0  4.00644  0
C  C32  1  0.29819301  0.10421267  0.45431356  1  0  0.086106  0.09025  0  4.102619  0
C  C33  1  0.70181256  0.89578717  0.54568531  1  0  0.086192  0.090364  0  4.102476  0
C  C34  1  0.44929194  0.73957664  0.95939364  1  0  0.21331  0.23152  0  4.076583  0
C  C35  1  0.55070752  0.26042670  0.04060790  1  0  0.213342  0.231646  0  4.076466  0
C  C36  1  0.71534341  0.46281090  0.47942424  1  0  -0.068049  -0.063843  0  3.910019  0
C  C37  1  0.28465224  0.53719244  0.52057612  1  0  -0.068139  -0.064034  0  3.910236  0
C  C38  1  0.19734666  0.09724484  0.35005050  1  0  0.003901  -0.00314  0  3.998551  0
C  C39  1  0.80265841  0.90275384  0.64994746  1  0  0.003792  -0.003352  0  3.998562  0
C  C40  1  0.43222744  0.82470681  0.87268594  1  0  -0.003917  0.031497  0  4.005956  0
C  C41  1  0.56777329  0.17529654  0.12731651  1  0  -0.003951  0.031422  0  4.006079  0
C  C42  1  0.27082429  0.84381557  0.70124148  1  0  -0.086908  -0.103072  0  3.983568  0
C  C43  1  0.72917571  0.15618320  0.29875981  1  0  -0.086895  -0.103012  0  3.983416  0
C  C44  1  0.26193656  0.22392501  0.29834322  1  0  0.116167  0.111541  0  3.97417  0
C  C45  1  0.73806574  0.77607023  0.70165266  1  0  0.116176  0.111604  0  3.974184  0
C  C46  1  0.39600631  0.05699305  0.60807715  1  0  0.219154  0.29536  0  4.009335  0
C  C47  1  0.60399722  0.94300794  0.39192157  1  0  0.219184  0.295442  0  4.009248  0
C  C48  1  0.65100708  0.57043905  0.32248431  1  0  0.052359  0.108791  0  3.940918  0
C  C49  1  0.34899238  0.42956427  0.67751568  1  0  0.052366  0.108835  0  3.940966  0
C  C50  1  0.46533969  0.22358081  0.49836170  1  0  0.093363  0.083896  0  4.020733  0
C  C51  1  0.53466334  0.77641907  0.50163845  1  0  0.093357  0.083862  0  4.020862  0
C  C52  1  0.43251965  0.34851671  0.34542747  1  0  0.113277  0.115168  0  3.9885  0
C  C53  1  0.56748867  0.65148656  0.65457271  1  0  0.113278  0.115189  0  3.988523  0
C  C54  1  0.28153888  0.76577270  0.78594497  1  0  -0.092549  -0.115999  0  3.967086  0
C  C55  1  0.71846135  0.23422952  0.21405813  1  0  -0.092547  -0.116104  0  3.967164  0
C  C56  1  0.56936770  0.96501519  0.87370721  1  0  -0.087656  -0.104919  0  3.961344  0
C  C57  1  0.43063076  0.03498586  0.12629329  1  0  -0.087622  -0.104896  0  3.961384  0
C  C58  1  0.04528454  0.97027935  0.29388467  1  0  -0.055511  -0.042895  0  3.896227  0
C  C59  1  0.95471849  0.02972051  0.70611470  1  0  -0.055449  -0.042746  0  3.896167  0
C  C60  1  0.03030664  0.10587934  0.14719995  1  0  0.056664  0.110205  0  3.903924  0
C  C61  1  0.96969413  0.89411826  0.85279980  1  0  0.056729  0.110362  0  3.903716  0
C  C62  1  0.55833959  0.04359397  0.78908781  1  0  -0.09269  -0.107329  0  3.959344  0
C  C63  1  0.44166218  0.95640591  0.21091220  1  0  -0.092663  -0.107266  0  3.959312  0
C  C64  1  0.77032943  0.57362240  0.41728665  1  0  -0.082449  -0.121558  0  3.963066  0
C  C65  1  0.22967174  0.42638777  0.58271399  1  0  -0.0824  -0.121474  0  3.963202  0
C  C66  1  0.96512860  0.97313063  0.19078002  1  0  -0.079641  -0.118085  0  3.952293  0
C  C67  1  0.03487140  0.02686811  0.80921972  1  0  -0.079681  -0.118248  0  3.952316  0
N  N68  1  0.17253504  0.22821206  0.19984467  1  0  -0.326835  -0.245277  0  3.582504  0
N  N69  1  0.82746600  0.77178319  0.80015107  1  0  -0.326873  -0.245359  0  3.582439  0
N  N70  1  0.52525880  0.19067704  0.59596416  1  0  -0.373595  -0.285058  0  3.590684  0
N  N71  1  0.47473866  0.80932169  0.40403375  1  0  -0.373603  -0.285005  0  3.590679  0
N  N72  1  0.25728928  0.00195139  0.52240713  1  0  -0.337587  -0.397745  0  3.198709  0
N  N73  1  0.74271248  0.99804845  0.47759054  1  0  -0.337609  -0.397762  0  3.198619  0
N  N74  1  0.48639138  0.46187880  0.28831717  1  0  -0.312401  -0.269753  0  3.50143  0
N  N75  1  0.51361088  0.53812220  0.71168142  1  0  -0.312387  -0.269824  0  3.501425  0
N  N76  1  0.39000028  0.58998189  0.07108428  1  0  -0.128933  -0.060782  0  3.612511  0
N  N77  1  0.60999796  0.41001575  0.92891675  1  0  -0.1289  -0.060655  0  3.612414  0
N  N78  1  0.61034867  0.75002920  0.01996178  1  0  -0.213962  -0.272692  0  3.249763  0
N  N79  1  0.38964753  0.24996960  0.98004065  1  0  -0.213964  -0.272696  0  3.249488  0
N  N80  1  0.56948205  0.65561884  0.08946186  1  0  -0.096619  -0.072586  0  3.264503  0
N  N81  1  0.43051492  0.34437878  0.91053825  1  0  -0.09657  -0.072591  0  3.264279  0
N  N82  1  0.30962477  0.63969885  0.98998243  1  0  -0.213376  -0.263245  0  3.293762  0
N  N83  1  0.69037243  0.36030220  0.01001793  1  0  -0.213463  -0.263422  0  3.293959  0
Cl  Cl84  1  0.11104582  0.58108534  0.24346150  1  0  -0.278457  -0.498496  0  1.199765  0
Cl  Cl85  1  0.88895495  0.41891227  0.75653902  1  0  -0.278449  -0.498493  0  1.199748  0
O  O86  1  0.02455131  0.34226945  0.01169945  1  0  -0.573916  -0.728486  0  2.202254  0
O  O87  1  0.97544494  0.65772360  0.98829949  1  0  -0.573859  -0.728465  0  2.20226  0
