# generated using pymatgen
data_Zn2H41C39I3N2O13
_symmetry_space_group_name_H-M   'P 1'
_cell_length_a   9.70022330
_cell_length_b   10.93510168
_cell_length_c   14.03498467
_cell_angle_alpha   91.75957535
_cell_angle_beta   103.05033298
_cell_angle_gamma   81.89720579
_symmetry_Int_Tables_number   1
_chemical_formula_structural   Zn2H41C39I3N2O13
_chemical_formula_sum   'Zn2 H41 C39 I3 N2 O13'
_cell_volume   1435.80162281
_cell_formula_units_Z   1
loop_
 _symmetry_equiv_pos_site_id
 _symmetry_equiv_pos_as_xyz
  1  'x, y, z'
loop_
 _atom_site_type_symbol
 _atom_site_label
 _atom_site_symmetry_multiplicity
 _atom_site_fract_x
 _atom_site_fract_y
 _atom_site_fract_z
 _atom_site_occupancy
 _atom_site_pbe_bader_charge
 _atom_site_pbe_bader_spin_density
 _atom_site_pbe_cm5_charge
 _atom_site_pbe_ddec_charge
 _atom_site_pbe_ddec_spin_density
 _atom_site_pbe_ddec_sum_bond_order
 _atom_site_pbe_magmom
Zn  Zn0  1  0.35765882  0.52428662  0.48312604  1  1.288386  0  0.681371  0.81825  0  2.423475  0
Zn  Zn1  1  0.65832137  0.48475407  0.50987556  1  1.30692  0  0.681141  0.858511  0  2.376078  0
H  H2  1  0.16318110  0.61246943  0.61507068  1  0.172201  0  0.134374  0.133571  0  1.004765  0
H  H3  1  0.79344376  0.42745242  0.27642396  1  0.171101  0  0.096729  0.131221  0  1.042551  0
H  H4  1  0.69903735  0.10242316  0.45459007  1  0.131035  0  0.085881  0.100336  0  1.085556  0
H  H5  1  0.16447869  0.92127876  0.48923200  1  0.071076  0  0.087677  0.105078  0  1.016172  0
H  H6  1  0.26311983  0.90674254  0.61340848  1  0.035804  0  0.09663  0.116464  0  0.990981  0
H  H7  1  0.16320673  0.14859561  0.49545048  1  0.094971  0  0.100071  0.059257  0  0.998713  0
H  H8  1  0.08654219  0.53972553  0.95465783  1  0.059417  0  0.102842  0.068608  0  1.00511  0
H  H9  1  0.20402731  0.45114192  0.05141058  1  0.090281  0  0.099271  0.066709  0  1.027663  0
H  H10  1  0.16345856  0.37867388  0.83461498  1  0.025934  0  0.096356  0.093776  0  0.976165  0
H  H11  1  0.25970281  0.28610551  0.93528980  1  0.032582  0  0.090219  0.082142  0  0.994359  0
H  H12  1  0.02527280  0.28173845  0.99027644  1  0.037935  0  0.078749  0.101128  0  1.044673  0
H  H13  1  0.02078439  0.21767554  0.87191880  1  0.033495  0  0.089873  0.122634  0  0.992974  0
H  H14  1  0.93309446  0.36888485  0.88505382  1  0.042046  0  0.082796  0.112068  0  1.019692  0
H  H15  1  0.11157340  0.63235706  0.32326432  1  0.04835  0  0.099868  0.067922  0  1.021038  0
H  H16  1  0.92376679  0.65789792  0.26873469  1  0.054218  0  0.078308  0.045024  0  1.02186  0
H  H17  1  0.17097211  0.64663780  0.16432711  1  0.016612  0  0.091103  0.091251  0  0.987666  0
H  H18  1  0.98747433  0.66798595  0.10428768  1  0.001093  0  0.078134  0.068916  0  1.022996  0
H  H19  1  0.94773303  0.86503777  0.19949886  1  0.006943  0  0.076341  0.099139  0  1.03165  0
H  H20  1  0.08236881  0.87283574  0.13368915  1  0.037655  0  0.088235  0.119619  0  1.006283  0
H  H21  1  0.13082215  0.84305558  0.26133600  1  0.042334  0  0.086053  0.118572  0  1.004226  0
H  H22  1  0.19612076  0.32473179  0.17544794  1  0.063814  0  0.093285  0.057052  0  1.01238  0
H  H23  1  0.04346226  0.24740449  0.16920283  1  0.046429  0  0.084605  0.041523  0  1.017744  0
H  H24  1  0.34899877  0.14706542  0.27594996  1  0.035297  0  0.093782  0.097069  0  0.968141  0
H  H25  1  0.19775434  0.06887428  0.26018125  1  0.042325  0  0.087144  0.07899  0  0.998183  0
H  H26  1  0.17388685  0.07212111  0.07519461  1  0.017051  0  0.082704  0.105602  0  1.014964  0
H  H27  1  0.34198682  0.99403321  0.13685058  1  0.029883  0  0.088597  0.117075  0  1.000149  0
H  H28  1  0.32887529  0.14696960  0.09364347  1  0.014834  0  0.083508  0.107528  0  1.013472  0
H  H29  1  0.40191865  0.02851357  0.71301732  1  0.02204  0  0.09373  0.050641  0  1.004734  0
H  H30  1  0.28176690  0.09878558  0.78377167  1  0.022338  0  0.092482  0.052959  0  0.981809  0
H  H31  1  0.49539263  0.22895655  0.70627341  1  0.041202  0  0.088817  0.090511  0  0.992017  0
H  H32  1  0.37155033  0.30189326  0.77129906  1  0.03487  0  0.086917  0.081353  0  1.001202  0
H  H33  1  0.48676447  0.16118652  0.91709546  1  0.011226  0  0.078004  0.096191  0  1.027671  0
H  H34  1  0.61113830  0.24749699  0.88459357  1  0.038818  0  0.081278  0.113827  0  1.021217  0
H  H35  1  0.61235099  0.08932565  0.85134400  1  0.003927  0  0.081285  0.105229  0  1.005858  0
H  H36  1  0.83878381  0.76898385  0.69043276  1  0.06928  0  0.117935  0.098543  0  0.939544  0
H  H37  1  0.99020567  0.75927204  0.63756295  1  0.049199  0  0.1007  0.056264  0  1.018064  0
H  H38  1  0.97655952  0.63395504  0.82735877  1  0.030544  0  0.097603  0.094149  0  0.979851  0
H  H39  1  0.13145462  0.61943960  0.77912433  1  0.021339  0  0.096796  0.094274  0  0.988519  0
H  H40  1  0.13987662  0.84903479  0.79944654  1  0.018257  0  0.087863  0.11494  0  1.001844  0
H  H41  1  0.14699940  0.77664141  0.91200927  1  0.050462  0  0.092522  0.126821  0  1.001646  0
H  H42  1  0.98517498  0.86433022  0.84928606  1  0.033598  0  0.088097  0.111808  0  1.001619  0
C  C43  1  0.50965264  0.27261115  0.50833647  1  1.59411  0  0.219676  0.59762  0  4.17454  0
C  C44  1  0.45002399  0.48774398  0.20143566  1  0.216801  0  -0.019837  -0.117138  0  3.919046  0
C  C45  1  0.39296954  0.08070280  0.52358742  1  -0.035707  0  -0.007619  -0.020595  0  3.852742  0
C  C46  1  0.50369564  0.13712109  0.50368739  1  -0.02214  0  -0.006254  -0.031912  0  3.94607  0
C  C47  1  0.61271708  0.05953119  0.47160925  1  -0.027828  0  -0.096339  -0.146616  0  3.982272  0
C  C48  1  0.60987079  0.93285888  0.45955835  1  -0.236336  0  -0.039577  0.045992  0  3.868552  0
C  C49  1  0.49808404  0.87475385  0.47928957  1  0.0294  0  -0.014919  -0.095445  0  3.944778  0
C  C50  1  0.39144858  0.95378460  0.51122812  1  0.009918  0  -0.004818  0.07794  0  3.913795  0
C  C51  1  0.25248844  0.95362470  0.54338017  1  -0.057446  0  -0.162886  -0.284667  0  3.863531  0
C  C52  1  0.24784438  0.09972510  0.55256430  1  0.510434  0  0.012496  0.146634  0  3.853665  0
C  C53  1  0.92563062  0.44049359  0.42522406  1  0.492937  0  0.134881  0.226212  0  3.923164  0
C  C54  1  0.46979014  0.48851129  0.30653380  1  1.694307  0  0.219046  0.643691  0  4.261186  0
C  C55  1  0.95269258  0.55024106  0.56601687  1  1.120164  0  0.239861  0.372384  0  4.034227  0
C  C56  1  0.09230299  0.56685639  0.55804909  1  0.511051  0  0.058023  -0.065869  0  3.832267  0
C  C57  1  0.05842787  0.46272418  0.41497918  1  0.589956  0  0.118861  0.033296  0  3.884457  0
C  C58  1  0.04377534  0.40700753  0.31260032  1  1.131195  0  0.176927  0.36634  0  3.898971  0
C  C59  1  0.88734507  0.38012147  0.32704557  1  -0.198135  0  -0.109861  -0.221678  0  3.656947  0
C  C60  1  0.49435486  0.73895923  0.47826767  1  1.607192  0  0.212799  0.605995  0  4.180372  0
C  C61  1  0.53069629  0.52684710  0.68360619  1  1.66493  0  0.21641  0.655298  0  4.261111  0
C  C62  1  0.53846027  0.52748994  0.78719727  1  0.118805  0  -0.034164  -0.162323  0  3.907401  0
C  C63  1  0.54680141  0.51157284  0.97352327  1  -0.037955  0  -0.057695  -0.071042  0  4.015298  0
C  C64  1  0.42883002  0.51014427  0.01283171  1  0.62713  0  0.094706  0.243394  0  4.134309  0
C  C65  1  0.43983513  0.49549927  0.11355142  1  -0.453048  0  -0.045064  -0.121001  0  4.167241  0
C  C66  1  0.53962921  0.52175183  0.87428154  1  -0.385852  0  -0.04381  -0.018803  0  4.215243  0
C  C67  1  0.18253822  0.47096061  0.97268554  1  0.347813  0  -0.065169  0.022857  0  3.854563  0
C  C68  1  0.16507191  0.35540108  0.91063880  1  -0.016341  0  -0.168431  -0.133978  0  3.972565  0
C  C69  1  0.02862749  0.30303855  0.91490772  1  -0.087911  0  -0.245307  -0.354768  0  3.969693  0
C  C70  1  0.03023617  0.61940176  0.25662744  1  0.384595  0  -0.077597  0.036133  0  3.885049  0
C  C71  1  0.06343155  0.68543709  0.17277327  1  0.039496  0  -0.17147  -0.122686  0  3.957572  0
C  C72  1  0.05555090  0.82424927  0.19295316  1  -0.073891  0  -0.244813  -0.349516  0  3.952095  0
C  C73  1  0.15136710  0.25773462  0.21259871  1  0.364631  0  -0.074949  0.047047  0  3.888909  0
C  C74  1  0.24733648  0.13457114  0.22533731  1  -0.002963  0  -0.169558  -0.127629  0  3.963068  0
C  C75  1  0.27434793  0.08414297  0.12740384  1  -0.06092  0  -0.242572  -0.349113  0  3.973724  0
C  C76  1  0.33883255  0.11668137  0.72698439  1  0.412279  0  -0.073121  0.035725  0  3.928615  0
C  C77  1  0.43734254  0.21352601  0.76268449  1  -0.006203  0  -0.175604  -0.140713  0  3.978346  0
C  C78  1  0.54258175  0.17585670  0.85909475  1  -0.058072  0  -0.245587  -0.346363  0  3.982529  0
C  C79  1  0.93945225  0.71158712  0.68558394  1  0.38237  0  -0.054103  0.034149  0  3.83819  0
C  C80  1  0.03534988  0.68290580  0.78566414  1  0.022811  0  -0.167379  -0.140496  0  3.977457  0
C  C81  1  0.07884783  0.80004018  0.83944027  1  -0.071552  0  -0.240001  -0.348541  0  3.958937  0
I  I82  1  0.85706591  0.18823730  0.32457172  1  0.079597  0  0.077372  -0.010936  0  1.499878  0
I  I83  1  0.75291023  0.49738463  0.06678786  1  0.16455  0  0.130198  0.014831  0  1.659564  0
I  I84  1  0.77816106  0.83690398  0.40072849  1  0.085979  0  0.0776  -0.028131  0  1.548408  0
N  N85  1  0.86921005  0.48196254  0.50082043  1  -1.16671  0  -0.297242  -0.285649  0  3.38568  0
N  N86  1  0.14491573  0.52384611  0.48122093  1  -1.223812  0  -0.291498  -0.127199  0  3.531965  0
O  O87  1  0.39912758  0.34212280  0.52156055  1  -1.161774  0  -0.30646  -0.528111  0  2.338092  0
O  O88  1  0.62450138  0.30783841  0.49630117  1  -1.162538  0  -0.3174  -0.543952  0  2.369077  0
O  O89  1  0.36023776  0.47951836  0.34007458  1  -1.137123  0  -0.297118  -0.51089  0  2.306858  0
O  O90  1  0.59489836  0.49980122  0.35469180  1  -1.15328  0  -0.302196  -0.537332  0  2.301498  0
O  O91  1  0.37290735  0.70210724  0.44967999  1  -1.154769  0  -0.313249  -0.530137  0  2.287547  0
O  O92  1  0.61281975  0.67225015  0.51123994  1  -1.172231  0  -0.312075  -0.553973  0  2.431833  0
O  O93  1  0.41036270  0.57170382  0.62972039  1  -1.158691  0  -0.317656  -0.553592  0  2.27692  0
O  O94  1  0.64245349  0.48101685  0.65517105  1  -1.134061  0  -0.30845  -0.529379  0  2.260158  0
O  O95  1  0.29707936  0.53089220  0.95143122  1  -1.036318  0  -0.168941  -0.189204  0  2.512264  0
O  O96  1  0.03248630  0.48915733  0.23452670  1  -1.047222  0  -0.206743  -0.269725  0  2.494989  0
O  O97  1  0.14299057  0.30446070  0.30884422  1  -1.05769  0  -0.207089  -0.271599  0  2.539873  0
O  O98  1  0.23083614  0.15710079  0.64132780  1  -1.043398  0  -0.237942  -0.259456  0  2.447964  0
O  O99  1  0.89315715  0.59949386  0.63699749  1  -1.057655  0  -0.145969  -0.177921  0  2.572301  0
