# generated using pymatgen
data_Cu4H48C47(N2O9)2
_symmetry_space_group_name_H-M   'P 1'
_cell_length_a   9.73786751
_cell_length_b   14.45253581
_cell_length_c   20.95726899
_cell_angle_alpha   89.90709120
_cell_angle_beta   103.19405371
_cell_angle_gamma   90.01131161
_symmetry_Int_Tables_number   1
_chemical_formula_structural   Cu4H48C47(N2O9)2
_chemical_formula_sum   'Cu8 H96 C94 N8 O36'
_cell_volume   2871.59870532
_cell_formula_units_Z   2
loop_
 _symmetry_equiv_pos_site_id
 _symmetry_equiv_pos_as_xyz
  1  'x, y, z'
loop_
 _atom_site_type_symbol
 _atom_site_label
 _atom_site_symmetry_multiplicity
 _atom_site_fract_x
 _atom_site_fract_y
 _atom_site_fract_z
 _atom_site_occupancy
 _atom_site_pbe_bader_charge
 _atom_site_pbe_bader_spin_density
 _atom_site_pbe_cm5_charge
 _atom_site_pbe_ddec_charge
 _atom_site_pbe_ddec_spin_density
 _atom_site_pbe_ddec_sum_bond_order
 _atom_site_pbe_magmom
Cu  Cu0  1  0.93233662  0.33916146  0.06026039  1  1.089158  0.571296  0.703461  0.843916  0.732464  2.250511  0.571
Cu  Cu1  1  0.06678144  0.33779716  0.43869718  1  1.094389  0.548474  0.711224  0.857888  0.702513  2.262873  0.548
Cu  Cu2  1  0.06766147  0.66082544  0.93974005  1  1.089267  -0.571285  0.703394  0.843947  -0.728756  2.250405  -0.571
Cu  Cu3  1  0.93321461  0.66220219  0.56130639  1  1.094667  0.548431  0.711313  0.858059  0.702478  2.263275  0.548
Cu  Cu4  1  0.14319087  0.50051630  0.05102711  1  1.095311  -0.496121  0.712425  0.899719  -0.632356  2.228539  -0.496
Cu  Cu5  1  0.86017564  0.49962510  0.44952877  1  1.100237  -0.558821  0.710091  0.905024  -0.714836  2.207918  -0.558
Cu  Cu6  1  0.85678823  0.49949136  0.94897138  1  1.09541  0.496055  0.712489  0.899611  0.63548  2.229143  0.496
Cu  Cu7  1  0.13983396  0.50037495  0.55046807  1  1.100237  -0.558841  0.710093  0.904963  -0.714863  2.208243  -0.558
H  H8  1  0.05008218  0.36165572  0.97510461  1  0.639289  0.000438  0.278822  0.368321  0.000974  0.980154  0.0
H  H9  1  0.95000165  0.36106896  0.52505894  1  0.6366  0.000263  0.280319  0.372735  -0.000329  0.976121  -0.001
H  H10  1  0.94990307  0.63834849  0.02488496  1  0.639065  -0.000442  0.278829  0.368328  -0.000964  0.980159  0.0
H  H11  1  0.04998061  0.63892556  0.47493941  1  0.636671  0.000268  0.280282  0.37269  -0.000324  0.976286  -0.001
H  H12  1  0.09234870  0.62353455  0.15575948  1  0.140081  -0.00162  0.126502  0.098306  -0.000682  0.980662  -0.001
H  H13  1  0.90554808  0.62239646  0.34306702  1  0.113705  -0.001801  0.12607  0.097843  -0.000721  0.980891  -0.001
H  H14  1  0.90765779  0.37647657  0.84423989  1  0.140396  0.001614  0.126629  0.098638  0.000677  0.980532  0.001
H  H15  1  0.09444350  0.37759252  0.65692321  1  0.113998  -0.001796  0.125996  0.097824  -0.000711  0.980801  -0.001
H  H16  1  0.58457796  0.98444547  0.16393433  1  0.053435  2e-06  0.108777  0.079959  1.3e-05  0.98298  0.0
H  H17  1  0.41535313  0.98471917  0.33653770  1  0.04554  5e-06  0.108653  0.079968  1.6e-05  0.982706  0.0
H  H18  1  0.41541478  0.01555666  0.83606125  1  0.053319  2e-06  0.108733  0.079888  -7e-06  0.98311  0.0
H  H19  1  0.58465025  0.01526703  0.66346376  1  0.045571  -0.0  0.108627  0.079805  1.1e-05  0.982824  0.0
H  H20  1  0.44841625  0.06544143  0.16921146  1  0.07604  -8.5e-05  0.11014  0.079766  -5.2e-05  1.004456  0.0
H  H21  1  0.55218852  0.06528108  0.33134039  1  0.083693  -9.7e-05  0.110269  0.079066  -6.1e-05  1.004626  0.0
H  H22  1  0.55156926  0.93455930  0.83079198  1  0.075998  8.2e-05  0.11014  0.079742  5.5e-05  1.004504  0.0
H  H23  1  0.44780956  0.93471758  0.66865956  1  0.083432  -9.5e-05  0.110265  0.079015  -6.3e-05  1.004642  0.0
H  H24  1  0.58550477  0.09552513  0.09395625  1  0.0784  0.000838  0.111875  0.128677  0.00043  1.007969  0.0
H  H25  1  0.41521938  0.09617196  0.40616821  1  0.083237  0.000834  0.112165  0.128735  0.000429  1.007229  0.0
H  H26  1  0.41448390  0.90448114  0.90604703  1  0.078544  -0.000837  0.111891  0.128709  -0.000427  1.007848  0.0
H  H27  1  0.58478413  0.90382047  0.59384042  1  0.083335  0.000833  0.112053  0.128648  0.000428  1.007212  0.0
H  H28  1  0.34609307  0.86360776  0.25498946  1  0.073799  -2.2e-05  0.108257  0.079362  -2.1e-05  0.996795  0.0
H  H29  1  0.65243393  0.86285679  0.24541854  1  0.073978  -3.6e-05  0.108344  0.078792  -2.7e-05  0.997581  0.0
H  H30  1  0.65391983  0.13639506  0.74501487  1  0.073526  2.1e-05  0.1083  0.079338  2.1e-05  0.996845  0.0
H  H31  1  0.34758305  0.13714326  0.75457858  1  0.073966  -3.9e-05  0.10841  0.078875  -2.9e-05  0.997783  0.0
H  H32  1  0.28403002  0.94932877  0.19267878  1  0.089605  3.8e-05  0.104977  0.081963  2.3e-05  1.026649  0.0
H  H33  1  0.71641884  0.94805700  0.30759550  1  0.104278  1.5e-05  0.10519  0.08176  2e-06  1.024805  0.0
H  H34  1  0.71597541  0.05067267  0.80732050  1  0.089503  -5e-05  0.104926  0.081918  -2.9e-05  1.026664  0.0
H  H35  1  0.28359622  0.05194996  0.69241144  1  0.104478  2.4e-05  0.105194  0.081835  8e-06  1.02483  0.0
H  H36  1  0.18971654  0.77404391  0.20229823  1  0.096257  -0.000831  0.112611  0.131465  -0.000426  1.002769  0.0
H  H37  1  0.80830723  0.77339191  0.29733056  1  0.09562  -0.000964  0.113227  0.1323  -0.000486  1.003096  0.0
H  H38  1  0.81030708  0.22595958  0.79771626  1  0.096704  0.000841  0.112616  0.131435  0.000434  1.002757  0.0
H  H39  1  0.19168542  0.22659362  0.70266074  1  0.095768  -0.000973  0.113223  0.132307  -0.000493  1.002957  0.0
H  H40  1  0.92879876  0.33005990  0.19800489  1  0.136357  0.001568  0.12616  0.104369  0.000703  0.991834  0.001
H  H41  1  0.07155520  0.33038503  0.30132117  1  0.143398  0.001569  0.126452  0.105447  0.000693  0.989799  0.001
H  H42  1  0.07119613  0.66994015  0.80199331  1  0.13678  -0.001551  0.126213  0.104482  -0.000675  0.9918  -0.001
H  H43  1  0.92845436  0.66962610  0.69867375  1  0.14355  0.001553  0.126462  0.10542  0.000669  0.989988  0.001
H  H44  1  0.82266257  0.22797450  0.27127747  1  0.176304  0.000655  0.113426  0.14154  0.000369  1.039084  0.0
H  H45  1  0.17789777  0.22807471  0.22839725  1  0.16568  0.000657  0.113778  0.141791  0.000363  1.038413  0.0
H  H46  1  0.17733758  0.77202417  0.72872079  1  0.176206  -0.000652  0.1134  0.141507  -0.000316  1.039125  0.0
H  H47  1  0.82209916  0.77191497  0.77159734  1  0.165779  0.000651  0.113712  0.141641  0.000318  1.038572  0.0
H  H48  1  0.70559228  0.20146273  0.03078976  1  0.117665  0.001939  0.120432  0.092498  0.000907  1.013521  0.002
H  H49  1  0.29475385  0.20214017  0.46898836  1  0.121443  0.001948  0.120861  0.092652  0.000909  1.01213  0.002
H  H50  1  0.29438683  0.79854216  0.96920921  1  0.117653  -0.00194  0.120438  0.092444  -0.000903  1.013447  -0.002
H  H51  1  0.70524429  0.79786610  0.53101446  1  0.121536  0.001947  0.120902  0.092678  0.000908  1.012168  0.002
H  H52  1  0.51910326  0.74141178  0.09555469  1  0.11914  -0.000704  0.119175  0.14105  -0.000358  0.975445  0.0
H  H53  1  0.48172861  0.74042421  0.40573522  1  0.124571  -0.000781  0.118989  0.140983  -0.000385  0.976007  0.0
H  H54  1  0.48092747  0.25859449  0.90444621  1  0.11935  0.000704  0.119198  0.14106  0.00036  0.975562  0.0
H  H55  1  0.51828629  0.25957653  0.59426359  1  0.124423  -0.000781  0.119011  0.141048  -0.000386  0.976004  0.0
H  H56  1  0.77550174  0.91472603  0.93919473  1  0.06027  -4e-06  0.100688  0.100693  -4e-06  0.988436  0.0
H  H57  1  0.22485552  0.91473952  0.56123466  1  0.058449  1.1e-05  0.100806  0.100683  7e-06  0.988031  0.0
H  H58  1  0.22451654  0.08526916  0.06081540  1  0.060319  4e-06  0.100656  0.100632  4e-06  0.988478  0.0
H  H59  1  0.77514988  0.08526469  0.43876270  1  0.05846  1.2e-05  0.100708  0.100727  7e-06  0.987884  0.0
H  H60  1  0.40309507  0.59158674  0.05158209  1  0.191804  -0.001724  0.133799  0.125498  -0.000859  0.981325  -0.001
H  H61  1  0.59739147  0.59003632  0.44883762  1  0.177011  -0.00194  0.133571  0.124771  -0.000937  0.981267  -0.002
H  H62  1  0.59691122  0.40842440  0.94840677  1  0.191758  0.001722  0.133811  0.12548  0.000862  0.981408  0.001
H  H63  1  0.40261705  0.40996442  0.55115768  1  0.176913  -0.00194  0.133554  0.124927  -0.000937  0.981109  -0.002
H  H64  1  0.81207934  0.07416997  0.98640830  1  0.099798  0.000192  0.099661  0.100869  0.000164  1.018826  0.0
H  H65  1  0.18781978  0.07413078  0.51369679  1  0.102209  0.000173  0.099781  0.101278  0.000153  1.018225  0.0
H  H66  1  0.18793161  0.92582799  0.01360395  1  0.099771  -0.000192  0.099542  0.100643  -0.000163  1.018777  0.0
H  H67  1  0.81219079  0.92586651  0.48629537  1  0.102321  0.000173  0.099767  0.101286  0.000153  1.018299  0.0
H  H68  1  0.10732371  0.13241739  0.86820046  1  0.07669  -8e-06  0.096028  0.097408  -2.4e-05  1.016031  0.0
H  H69  1  0.89163707  0.13181921  0.63143423  1  0.065791  -3.4e-05  0.09601  0.097119  -3.8e-05  1.015924  0.0
H  H70  1  0.89266065  0.86759442  0.13179808  1  0.076451  -1e-06  0.095948  0.0973  1.8e-05  1.016045  0.0
H  H71  1  0.10837459  0.86816839  0.36856044  1  0.06531  -4.2e-05  0.095928  0.09709  -4.3e-05  1.01584  0.0
H  H72  1  0.38264366  0.22526517  0.18212584  1  0.040401  -0.002702  0.086497  0.134642  -0.001259  1.038886  -0.001
H  H73  1  0.61654376  0.22447167  0.31870174  1  0.036427  -0.003194  0.086238  0.134431  -0.001477  1.038893  -0.002
H  H74  1  0.61734932  0.77471550  0.81788268  1  0.040517  0.002697  0.086575  0.134705  0.00126  1.039141  0.001
H  H75  1  0.38346579  0.77553876  0.68129270  1  0.036304  -0.003192  0.08622  0.134421  -0.001476  1.038916  -0.002
H  H76  1  0.46296349  0.33738804  0.19430406  1  0.063574  0.000199  0.097912  0.151671  0.000149  0.996699  0.0
H  H77  1  0.53691266  0.33654208  0.30530155  1  0.069456  0.000252  0.097403  0.150335  0.000191  0.997834  0.0
H  H78  1  0.53700082  0.66259887  0.80569102  1  0.063724  -0.000205  0.097882  0.151601  -0.000135  0.996569  0.0
H  H79  1  0.46310429  0.66346282  0.69469460  1  0.069523  0.000261  0.097435  0.150444  0.000181  0.997712  0.0
H  H80  1  0.46353223  0.27662043  0.12163762  1  0.061397  0.000252  0.093537  0.149552  0.000149  1.009644  0.0
H  H81  1  0.53585809  0.27732238  0.37857686  1  0.052301  0.000198  0.092543  0.148175  0.000133  1.011945  0.0
H  H82  1  0.53645130  0.72338238  0.87837229  1  0.061113  -0.000254  0.093503  0.149495  -0.000148  1.009615  0.0
H  H83  1  0.46414393  0.72268391  0.62140870  1  0.051781  0.000199  0.092549  0.148212  0.000132  1.011809  0.0
H  H84  1  0.90619903  0.86350646  0.85773353  1  0.113359  1.8e-05  0.099895  0.104804  1.1e-05  1.035046  0.0
H  H85  1  0.09335678  0.86296430  0.64234569  1  0.112336  -3.4e-05  0.099933  0.104916  -1.5e-05  1.035571  0.0
H  H86  1  0.09380967  0.13649427  0.14227132  1  0.113265  2.4e-05  0.099887  0.104753  2.2e-05  1.035067  0.0
H  H87  1  0.90666546  0.13703644  0.35765148  1  0.112369  9e-06  0.099975  0.105038  1.9e-05  1.035305  0.0
H  H88  1  0.06961131  0.97322082  0.81932954  1  0.069202  0.000238  0.09046  0.08808  0.000128  1.028103  0.0
H  H89  1  0.92929187  0.97246095  0.68046924  1  0.070927  0.0002  0.090616  0.088466  9.8e-05  1.028637  0.0
H  H90  1  0.93037625  0.02679237  0.18067077  1  0.069164  -0.000233  0.09053  0.08819  -0.00012  1.027742  0.0
H  H91  1  0.07073862  0.02753704  0.31951876  1  0.070591  0.000193  0.090609  0.088381  9.5e-05  1.028373  0.0
H  H92  1  0.83947456  0.57197663  0.18536706  1  0.035729  -2e-05  0.086083  0.136224  2.1e-05  1.006338  0.0
H  H93  1  0.16128417  0.57174514  0.31378461  1  0.057047  9e-06  0.086159  0.136386  0.0  1.005873  0.0
H  H94  1  0.16050533  0.42803105  0.81461767  1  0.03565  -1e-05  0.086045  0.136244  -4.5e-05  1.006363  0.0
H  H95  1  0.83870962  0.42826183  0.68621157  1  0.0571  1.8e-05  0.08615  0.136331  1e-05  1.005944  0.0
H  H96  1  0.66052252  0.56718139  0.13872322  1  0.073157  0.001853  0.09517  0.149681  0.000895  1.003567  0.001
H  H97  1  0.33959027  0.56603412  0.36113842  1  0.070788  0.001888  0.095646  0.150512  0.000891  1.001723  0.001
H  H98  1  0.33946175  0.43282558  0.86127007  1  0.073288  -0.001853  0.095206  0.149721  -0.000889  1.003567  -0.001
H  H99  1  0.66039646  0.43396314  0.63887326  1  0.070804  0.001886  0.095586  0.150427  0.00089  1.001729  0.001
H  H100  1  0.78328736  0.64139020  0.11296607  1  0.092866  0.000127  0.096345  0.159979  -6e-06  1.01429  0.0
H  H101  1  0.21726367  0.64124576  0.38606960  1  0.092934  0.000354  0.095935  0.159136  0.000153  1.01237  0.0
H  H102  1  0.21670948  0.35861401  0.88702374  1  0.092095  -0.00013  0.096243  0.159742  6e-06  1.0145  0.0
H  H103  1  0.78273036  0.35875428  0.61393901  1  0.093125  0.000355  0.095953  0.159119  0.000154  1.012439  0.0
C  C104  1  0.18767721  0.65184445  0.14430719  1  0.458994  0.001361  0.055345  0.127657  0.000372  3.955529  0.001
C  C105  1  0.81096196  0.65075966  0.35520983  1  0.52109  0.000557  0.054674  0.126191  -0.000357  3.958228  0.0
C  C106  1  0.81234397  0.34815975  0.85568940  1  0.458823  -0.001355  0.055233  0.127251  -0.000354  3.955295  -0.001
C  C107  1  0.18904124  0.34923347  0.64478254  1  0.521278  0.000554  0.054683  0.126103  -0.000357  3.95837  0.0
C  C108  1  0.69934738  0.15078864  0.18839898  1  0.415272  -0.002868  0.104578  0.297622  -0.001932  4.056932  -0.002
C  C109  1  0.30148704  0.15122635  0.31154927  1  0.431836  -0.002791  0.105005  0.297991  -0.001885  4.055863  -0.002
C  C110  1  0.30064018  0.84921625  0.81160133  1  0.416082  0.002843  0.104643  0.297735  0.001912  4.056689  0.002
C  C111  1  0.69851633  0.84875847  0.68845171  1  0.431514  -0.002774  0.105148  0.298212  -0.001862  4.055691  -0.002
C  C112  1  0.54173705  0.02866222  0.19746409  1  0.410044  9.6e-05  -0.060042  -0.029968  4.7e-05  3.854673  0.0
C  C113  1  0.45880193  0.02873756  0.30302266  1  0.411305  8.6e-05  -0.060083  -0.029052  3.9e-05  3.852006  0.0
C  C114  1  0.45826208  0.97133852  0.80253549  1  0.410182  -0.000105  -0.059948  -0.029787  -5e-05  3.854813  0.0
C  C115  1  0.54119630  0.97126040  0.69698495  1  0.410603  8.9e-05  -0.060084  -0.028914  4.1e-05  3.851926  0.0
C  C116  1  0.50012588  0.96920399  0.25029569  1  0.062678  2.6e-05  -0.020407  0.047748  2.5e-05  3.833236  0.0
C  C117  1  0.49987540  0.03079744  0.74970650  1  0.063761  -1e-06  -0.020452  0.047759  1e-06  3.83317  0.0
C  C118  1  0.66261422  0.14483194  0.11985017  1  -0.027322  0.005199  -0.105172  -0.280774  0.003418  4.010407  0.004
C  C119  1  0.33804030  0.14538578  0.38011966  1  0.025652  0.005051  -0.104412  -0.27799  0.003378  4.009021  0.004
C  C120  1  0.33737235  0.85517433  0.88015386  1  -0.027241  -0.005194  -0.105208  -0.280928  -0.003393  4.01039  -0.004
C  C121  1  0.66196110  0.85460319  0.61988875  1  0.025749  0.005046  -0.104257  -0.277888  0.003369  4.009574  0.004
C  C122  1  0.37541441  0.90789513  0.21754834  1  0.393973  -0.00015  -0.061559  -0.032346  -8.8e-05  3.830468  0.0
C  C123  1  0.62415677  0.90726666  0.28296161  1  0.374505  -0.00017  -0.062331  -0.031362  -0.000107  3.827209  0.0
C  C124  1  0.62459430  0.09210699  0.78245699  1  0.394358  0.000138  -0.061499  -0.032142  8.2e-05  3.830208  0.0
C  C125  1  0.37584236  0.09273823  0.71703845  1  0.374447  -0.000164  -0.062445  -0.03167  -0.000105  3.827354  0.0
C  C126  1  0.24328448  0.73569207  0.17057223  1  0.027634  -0.004212  -0.103194  -0.265225  -0.002833  3.975432  -0.003
C  C127  1  0.75544160  0.73497003  0.32938787  1  -0.040341  -0.004673  -0.104211  -0.266509  -0.003108  3.97781  -0.004
C  C128  1  0.75672212  0.26430936  0.82943289  1  0.026839  0.004244  -0.103128  -0.265067  0.002869  3.975527  0.003
C  C129  1  0.24456169  0.26502448  0.67060928  1  -0.040997  -0.004704  -0.104188  -0.266407  -0.003132  3.977762  -0.004
C  C130  1  0.26324377  0.33604277  0.12421919  1  1.570131  -0.000468  0.20676  0.694074  -0.001326  4.126873  0.001
C  C131  1  0.73660310  0.33579429  0.37537990  1  1.573345  -0.000466  0.205841  0.696216  -0.001615  4.129397  0.001
C  C132  1  0.73675645  0.66395866  0.87578241  1  1.569835  0.000459  0.206683  0.693886  0.001349  4.127039  -0.001
C  C133  1  0.26339816  0.66420507  0.62462133  1  1.573307  -0.000458  0.206068  0.696621  -0.001615  4.128933  0.001
C  C134  1  0.98872343  0.20751770  0.96054008  1  1.558992  0.000665  0.203925  0.568514  0.001634  4.206588  -0.001
C  C135  1  0.01039407  0.20700806  0.53919133  1  1.552786  0.000919  0.204842  0.567059  0.001733  4.205023  0.0
C  C136  1  0.01127577  0.79248926  0.03946380  1  1.558644  -0.000666  0.204133  0.568695  -0.001611  4.20631  0.001
C  C137  1  0.98957557  0.79298715  0.46080763  1  1.551988  0.000927  0.204627  0.566897  0.001738  4.205991  0.0
C  C138  1  0.85421278  0.27543884  0.17821593  1  0.431511  -0.001157  0.052682  0.119779  -0.00034  3.92785  -0.001
C  C139  1  0.14622523  0.27579326  0.32121773  1  0.439603  -0.001085  0.053802  0.121122  -0.000288  3.926743  -0.001
C  C140  1  0.14577679  0.72456328  0.82177933  1  0.430677  0.001164  0.052572  0.119582  0.000366  3.928385  0.001
C  C141  1  0.85378560  0.72420955  0.67878830  1  0.43932  -0.00109  0.053885  0.121209  -0.000295  3.926868  -0.001
C  C142  1  0.79586990  0.21855438  0.21818466  1  0.007837  0.004477  -0.093421  -0.244931  0.003017  3.925521  0.004
C  C143  1  0.20488953  0.21890776  0.28151289  1  -0.019549  0.004504  -0.092926  -0.245734  0.003003  3.929119  0.004
C  C144  1  0.20411547  0.78144706  0.78181114  1  0.00747  -0.004492  -0.093421  -0.24489  -0.003013  3.925744  -0.004
C  C145  1  0.79510426  0.78108814  0.71848281  1  -0.019591  0.004509  -0.092901  -0.245581  0.003013  3.929879  0.004
C  C146  1  0.36231286  0.77001854  0.15154234  1  0.461193  0.003011  0.10437  0.304264  0.002005  4.064036  0.002
C  C147  1  0.63714429  0.76932230  0.34899785  1  0.508923  0.002083  0.102828  0.302078  0.001421  4.063077  0.001
C  C148  1  0.63770845  0.22998496  0.84846142  1  0.461194  -0.003  0.104432  0.304591  -0.001986  4.063821  -0.002
C  C149  1  0.36286110  0.23067222  0.65099904  1  0.508762  0.002072  0.102706  0.301708  0.001412  4.063442  0.001
C  C150  1  0.72763621  0.20454849  0.08404497  1  0.545731  -0.000751  0.052723  0.125203  0.000351  3.964435  0.0
C  C151  1  0.27280762  0.20507068  0.41571616  1  0.488049  -0.00064  0.052667  0.123625  0.000374  3.964357  0.0
C  C152  1  0.27234074  0.79545848  0.91595091  1  0.545137  0.000734  0.052688  0.125369  -0.000339  3.964524  0.0
C  C153  1  0.72719257  0.79494044  0.58428448  1  0.488165  -0.00063  0.052675  0.123649  0.000382  3.964315  0.0
C  C154  1  0.42436731  0.71704298  0.10963144  1  -0.011594  -0.003908  -0.094652  -0.244447  -0.002598  3.958561  -0.003
C  C155  1  0.57594630  0.71606292  0.39119321  1  -0.071796  -0.004522  -0.094743  -0.245118  -0.002958  3.96042  -0.004
C  C156  1  0.57565911  0.28296122  0.89036425  1  -0.011792  0.003903  -0.0946  -0.244512  0.002609  3.95923  0.003
C  C157  1  0.42406854  0.28393160  0.60880273  1  -0.071323  -0.004521  -0.094728  -0.245098  -0.002957  3.960267  -0.004
C  C158  1  0.84586830  0.96317557  0.92243387  1  -0.116244  4.7e-05  -0.094027  -0.089015  -7e-06  4.009739  0.0
C  C159  1  0.15399075  0.96296670  0.57776290  1  -0.150911  -2e-05  -0.094358  -0.089018  -4.4e-05  4.0094  0.0
C  C160  1  0.15415416  0.03682516  0.07757478  1  -0.116804  -4.1e-05  -0.093993  -0.088849  1e-05  4.009167  0.0
C  C161  1  0.84601571  0.03703889  0.42223505  1  -0.151073  -1.2e-05  -0.094265  -0.089115  -4e-05  4.008081  0.0
C  C162  1  0.96136208  0.11297923  0.92980153  1  -0.021871  0.007377  -0.024471  -0.045212  0.005159  3.976656  0.006
C  C163  1  0.03809857  0.11257043  0.57012203  1  -0.018782  0.005747  -0.023847  -0.043663  0.004048  3.978011  0.004
C  C164  1  0.03864242  0.88702427  0.07020433  1  -0.021521  -0.007365  -0.024465  -0.045294  -0.005128  3.976806  -0.006
C  C165  1  0.96189530  0.88741577  0.42987798  1  -0.018382  0.005746  -0.023853  -0.043835  0.004048  3.978721  0.004
C  C166  1  0.36199934  0.63436366  0.08578438  1  0.42961  0.00178  0.054763  0.108433  0.000831  3.944245  0.001
C  C167  1  0.63817721  0.63298359  0.41452437  1  0.482376  0.000393  0.054682  0.10967  -0.000313  3.941716  0.001
C  C168  1  0.63800184  0.36563916  0.91421207  1  0.429363  -0.001777  0.054658  0.108404  -0.000813  3.944392  -0.001
C  C169  1  0.36183977  0.36701577  0.58547322  1  0.483158  0.000392  0.054666  0.109495  -0.000316  3.941705  0.001
C  C170  1  0.80675687  0.49806427  0.09258783  1  1.556023  -0.001923  0.19245  0.682342  -0.000893  4.139783  -0.004
C  C171  1  0.19171702  0.49828334  0.40700814  1  1.555661  0.00033  0.194204  0.682266  0.001274  4.138332  -0.002
C  C172  1  0.19324543  0.50194131  0.90741303  1  1.557049  0.001923  0.19239  0.682113  0.000925  4.139794  0.004
C  C173  1  0.80828439  0.50173122  0.59300122  1  1.555309  0.000335  0.194021  0.681848  0.001274  4.138969  -0.002
C  C174  1  0.86600503  0.05196909  0.94888906  1  -0.018677  -0.000189  -0.086967  -0.090958  -6.8e-05  3.970394  0.0
C  C175  1  0.13375470  0.05176650  0.55116634  1  -0.009374  -0.000178  -0.087396  -0.092416  -6.2e-05  3.971077  0.0
C  C176  1  0.13399428  0.94802887  0.05112057  1  -0.01784  0.00019  -0.086909  -0.090836  7.1e-05  3.970283  0.0
C  C177  1  0.86624329  0.94822318  0.44882836  1  -0.009713  -0.000179  -0.087523  -0.092549  -6.3e-05  3.97068  0.0
C  C178  1  0.03358589  0.08417852  0.88255397  1  -0.030884  0.001102  -0.094174  -0.111903  0.000727  4.003602  0.001
C  C179  1  0.96561645  0.08362564  0.61727076  1  -0.040506  0.001093  -0.094604  -0.112403  0.000723  4.004945  0.001
C  C180  1  0.96640485  0.91583190  0.11744761  1  -0.030675  -0.001103  -0.094042  -0.111627  -0.000726  4.003743  -0.001
C  C181  1  0.03439008  0.91635227  0.38273055  1  -0.039327  0.00109  -0.094357  -0.112087  0.000719  4.00482  0.001
C  C182  1  0.40092842  0.28993420  0.15804043  1  -0.09463  -0.010529  -0.250332  -0.512002  -0.007489  3.885394  -0.008
C  C183  1  0.59872186  0.28962700  0.34215670  1  -0.093337  -0.012844  -0.251759  -0.512744  -0.009108  3.889484  -0.01
C  C184  1  0.59904350  0.71005061  0.84196784  1  -0.094446  0.010521  -0.250309  -0.511856  0.007511  3.885564  0.008
C  C185  1  0.40129294  0.71037998  0.65783685  1  -0.092868  -0.012843  -0.251784  -0.512935  -0.009097  3.88897  -0.01
C  C186  1  0.91969991  0.93421532  0.87612202  1  -0.061915  -0.000284  -0.089431  -0.068078  -0.000179  3.971417  0.0
C  C187  1  0.07974712  0.93373936  0.62391609  1  -0.040454  -0.000282  -0.088518  -0.066898  -0.000194  3.969316  0.0
C  C188  1  0.08029939  0.06578679  0.12388712  1  -0.061206  0.000313  -0.089339  -0.067856  0.000207  3.971061  0.0
C  C189  1  0.92027613  0.06624894  0.37607880  1  -0.039709  -0.000254  -0.088462  -0.066922  -0.000168  3.968824  0.0
C  C190  1  0.01244408  0.99545661  0.85572408  1  -0.122301  0.000667  -0.103519  -0.102945  0.000425  4.038595  0.001
C  C191  1  0.98668939  0.99482836  0.64414415  1  -0.098574  0.000602  -0.102805  -0.102417  0.000385  4.038149  0.0
C  C192  1  0.98755616  0.00454066  0.14427848  1  -0.122604  -0.000658  -0.103643  -0.103326  -0.000416  4.038778  0.0
C  C193  1  0.01332859  0.00515024  0.35585069  1  -0.099277  0.000604  -0.102964  -0.102553  0.000385  4.037887  0.0
C  C194  1  0.77125119  0.57428521  0.13592328  1  -0.124574  0.010783  -0.250306  -0.511694  0.007671  3.879427  0.008
C  C195  1  0.22866726  0.57391370  0.36341712  1  -0.141333  0.010676  -0.249141  -0.510491  0.007565  3.87641  0.008
C  C196  1  0.22872559  0.42572246  0.86406399  1  -0.123815  -0.0108  -0.25012  -0.511385  -0.007646  3.879445  -0.008
C  C197  1  0.77132339  0.42609119  0.63657968  1  -0.141543  0.010673  -0.249109  -0.510288  0.007563  3.876603  0.008
N  N198  1  0.24359635  0.60322180  0.10197119  1  -1.212708  -0.064113  -0.364835  -0.263448  -0.042537  3.669448  -0.056
N  N199  1  0.75577619  0.60162841  0.39768144  1  -1.215254  -0.075504  -0.361684  -0.26065  -0.050398  3.650162  -0.064
N  N200  1  0.75641750  0.39678517  0.89802751  1  -1.212107  0.064125  -0.364863  -0.263356  0.042766  3.669106  0.056
N  N201  1  0.24423337  0.39836265  0.60231349  1  -1.216157  -0.075521  -0.361635  -0.260557  -0.050405  3.650234  -0.064
N  N202  1  0.82285139  0.26784525  0.11236176  1  -1.210229  0.075523  -0.359017  -0.244204  0.050579  3.621191  0.065
N  N203  1  0.17735777  0.26816180  0.38709292  1  -1.198748  0.074681  -0.36118  -0.246626  0.049918  3.629091  0.064
N  N204  1  0.17713504  0.73215619  0.88763414  1  -1.209867  -0.075513  -0.358927  -0.244283  -0.050321  3.621243  -0.065
N  N205  1  0.82265509  0.73184862  0.61290902  1  -1.198843  0.07469  -0.361263  -0.246805  0.049922  3.628697  0.064
O  O206  1  0.01104920  0.41352269  0.99846550  1  -1.111881  0.088467  -0.580372  -0.826057  0.057746  2.480118  0.078
O  O207  1  0.99165214  0.41098096  0.50099952  1  -1.118069  -0.077191  -0.58926  -0.844674  -0.050073  2.501694  -0.07
O  O208  1  0.98893827  0.58647667  0.00153051  1  -1.111552  -0.088458  -0.580386  -0.826058  -0.057333  2.480212  -0.079
O  O209  1  0.00833986  0.58902945  0.49901317  1  -1.118208  -0.07726  -0.589102  -0.844581  -0.050114  2.501922  -0.07
O  O210  1  0.64618123  0.09438029  0.22863235  1  -1.072433  -0.001066  -0.167171  -0.185937  -0.000632  2.56117  -0.001
O  O211  1  0.35492688  0.09478846  0.27156911  1  -1.077561  -0.001032  -0.166313  -0.185677  -0.00061  2.560409  -0.001
O  O212  1  0.35381058  0.90562252  0.77137030  1  -1.072358  0.000784  -0.167216  -0.18597  0.000456  2.561077  0.001
O  O213  1  0.64507345  0.90520743  0.72843871  1  -1.077621  -0.000795  -0.166529  -0.185925  -0.000459  2.559485  -0.001
O  O214  1  0.42443407  0.85234707  0.17033302  1  -1.088518  0.001001  -0.171575  -0.195883  0.000596  2.584015  0.001
O  O215  1  0.57508650  0.85188235  0.33038585  1  -1.084452  0.000582  -0.172056  -0.196791  0.000338  2.579418  0.0
O  O216  1  0.57557260  0.14765020  0.82967592  1  -1.088619  -0.001002  -0.171676  -0.196194  -0.000586  2.583364  -0.001
O  O217  1  0.42492100  0.14811770  0.66961125  1  -1.084433  0.000579  -0.171903  -0.196441  0.000332  2.579554  0.0
O  O218  1  0.28209776  0.41173624  0.09506761  1  -1.111889  -0.08854  -0.337764  -0.558366  -0.056594  2.310569  -0.08
O  O219  1  0.71870449  0.41082391  0.40522297  1  -1.1195  -0.107822  -0.338897  -0.563605  -0.068971  2.301642  -0.097
O  O220  1  0.71789834  0.58825826  0.90493882  1  -1.111633  0.088635  -0.337787  -0.558351  0.056943  2.310387  0.08
O  O221  1  0.28128524  0.58916991  0.59478090  1  -1.119404  -0.107843  -0.338952  -0.563725  -0.068987  2.301695  -0.097
O  O222  1  0.91245520  0.22818557  0.00117920  1  -1.131986  0.085567  -0.328049  -0.567174  0.055363  2.406184  0.078
O  O223  1  0.08531622  0.22713630  0.49780545  1  -1.123684  0.079908  -0.32676  -0.563634  0.051583  2.402807  0.073
O  O224  1  0.08752178  0.77182348  0.99881811  1  -1.13237  -0.085555  -0.328168  -0.567246  -0.055071  2.405961  -0.078
O  O225  1  0.91465331  0.77284023  0.50218778  1  -1.123942  0.079885  -0.326569  -0.563359  0.051573  2.403147  0.073
O  O226  1  0.92098163  0.45124965  0.11633902  1  -1.124067  0.123502  -0.340321  -0.602728  0.079509  2.287559  0.11
O  O227  1  0.07800720  0.45106070  0.38306263  1  -1.127026  0.121966  -0.34031  -0.605205  0.078565  2.2834  0.108
O  O228  1  0.07902265  0.54875456  0.88365489  1  -1.124974  -0.123551  -0.340323  -0.602618  -0.079141  2.287544  -0.11
O  O229  1  0.92199725  0.54896425  0.61694034  1  -1.126641  0.121936  -0.340174  -0.604953  0.078549  2.283673  0.108
O  O230  1  0.14733972  0.29905483  0.12675499  1  -1.188981  -0.001954  -0.329609  -0.593647  -0.000756  2.224351  -0.001
O  O231  1  0.85221951  0.29923310  0.37163034  1  -1.191224  -0.005468  -0.332522  -0.599833  -0.003013  2.225789  -0.004
O  O232  1  0.85266379  0.70092307  0.87325317  1  -1.189009  0.002189  -0.329487  -0.59347  0.000914  2.225032  0.001
O  O233  1  0.14778168  0.70076072  0.62836708  1  -1.191236  -0.005726  -0.332683  -0.6001  -0.003172  2.225968  -0.004
O  O234  1  0.08021503  0.25956211  0.94499378  1  -1.180414  -7.1e-05  -0.323511  -0.54707  -0.000424  2.155526  0.0
O  O235  1  0.91983681  0.25931106  0.55516689  1  -1.17599  -0.006418  -0.321142  -0.54215  -0.004338  2.153041  -0.006
O  O236  1  0.91980429  0.74043585  0.05501597  1  -1.180589  7.5e-05  -0.323645  -0.547165  0.000435  2.155592  0.0
O  O237  1  0.08012343  0.74068413  0.44483588  1  -1.175559  -0.006413  -0.321056  -0.542022  -0.004334  2.153505  -0.006
O  O238  1  0.72816577  0.48451308  0.03704778  1  -1.194494  -0.000408  -0.337696  -0.607949  -0.000467  2.176232  0.002
O  O239  1  0.26903182  0.48561365  0.46297601  1  -1.192069  0.002857  -0.336801  -0.60661  0.001306  2.179663  0.002
O  O240  1  0.27183543  0.51550288  0.96295058  1  -1.194619  0.000405  -0.337668  -0.607911  0.000481  2.176134  -0.002
O  O241  1  0.73096538  0.51437601  0.53703293  1  -1.192123  0.002856  -0.33678  -0.606432  0.001304  2.179808  0.002
