# generated using pymatgen
data_CdH8C9N3ClO3
_symmetry_space_group_name_H-M   'P 1'
_cell_length_a   6.70732480
_cell_length_b   9.85535933
_cell_length_c   9.83053630
_cell_angle_alpha   118.49842819
_cell_angle_beta   102.19501751
_cell_angle_gamma   96.96069057
_symmetry_Int_Tables_number   1
_chemical_formula_structural   CdH8C9N3ClO3
_chemical_formula_sum   'Cd2 H16 C18 N6 Cl2 O6'
_cell_volume   539.24230456
_cell_formula_units_Z   2
loop_
 _symmetry_equiv_pos_site_id
 _symmetry_equiv_pos_as_xyz
  1  'x, y, z'
loop_
 _atom_site_type_symbol
 _atom_site_label
 _atom_site_symmetry_multiplicity
 _atom_site_fract_x
 _atom_site_fract_y
 _atom_site_fract_z
 _atom_site_occupancy
 _atom_site_hle17_bader_spin_density
 _atom_site_hle17_ddec_charge
 _atom_site_hle17_ddec_spin_density
 _atom_site_hle17_ddec_sum_bond_order
 _atom_site_hle17_magmom
 _atom_site_hse06_10hf_bader_spin_density
 _atom_site_hse06_10hf_ddec_charge
 _atom_site_hse06_10hf_ddec_spin_density
 _atom_site_hse06_10hf_ddec_sum_bond_order
 _atom_site_hse06_10hf_magmom
 _atom_site_hse06_bader_spin_density
 _atom_site_hse06_ddec_charge
 _atom_site_hse06_ddec_spin_density
 _atom_site_hse06_ddec_sum_bond_order
 _atom_site_hse06_magmom
 _atom_site_pbe_bader_spin_density
 _atom_site_pbe_cm5_charge
 _atom_site_pbe_ddec_charge
 _atom_site_pbe_ddec_spin_density
 _atom_site_pbe_ddec_sum_bond_order
 _atom_site_pbe_magmom
Cd  Cd0  1  0.80636723  0.99243852  0.81536376  1  0  1.054442  0  1.832142  0  0  0.878718  0  2.285077  0  0  0.926735  0  2.241226  0  0  0.691215  0.844762  0  2.317004  0
Cd  Cd1  1  0.19363384  0.00756286  0.18463871  1  0  1.054453  0  1.832152  0  0  0.878733  0  2.285094  0  0  0.926752  0  2.241243  0  0  0.69121  0.844777  0  2.31702  0
H  H2  1  0.37505991  0.83357499  0.59209861  1  0  0.422548  0  0.885233  0  0  0.387859  0  0.954816  0  0  0.400846  0  0.936096  0  0  0.280489  0.378674  0  0.96799  0
H  H3  1  0.62494009  0.16642757  0.40790222  1  0  0.422519  0  0.885264  0  0  0.387821  0  0.954865  0  0  0.40081  0  0.936142  0  0  0.280473  0.378636  0  0.968038  0
H  H4  1  0.35315838  0.95210587  0.77226246  1  0  0.403786  0  0.894299  0  0  0.373293  0  0.960344  0  0  0.383062  0  0.946083  0  0  0.267086  0.366275  0  0.970607  0
H  H5  1  0.64684119  0.04789550  0.22773875  1  0  0.403798  0  0.894284  0  0  0.373306  0  0.960326  0  0  0.383075  0  0.946065  0  0  0.2671  0.366287  0  0.97059  0
H  H6  1  0.74052308  0.60338487  0.69194178  1  0  0.098858  0  0.973856  0  0  0.104634  0  1.043817  0  0  0.107295  0  1.042  0  0  0.111651  0.103597  0  1.043372  0
H  H7  1  0.25947613  0.39661530  0.30805779  1  0  0.098856  0  0.97386  0  0  0.104633  0  1.04383  0  0  0.107294  0  1.042011  0  0  0.111645  0.103596  0  1.043385  0
H  H8  1  0.68657305  0.36671454  0.37651043  1  0  0.128443  0  0.992007  0  0  0.13718  0  1.05259  0  0  0.140609  0  1.050042  0  0  0.122903  0.134459  0  1.054643  0
H  H9  1  0.31342543  0.63328324  0.62348687  1  0  0.128443  0  0.992049  0  0  0.137167  0  1.052647  0  0  0.140595  0  1.050099  0  0  0.122898  0.134447  0  1.054699  0
H  H10  1  0.89262228  0.82400213  0.43693015  1  0  0.111724  0  0.93472  0  0  0.119631  0  0.999129  0  0  0.122576  0  0.994968  0  0  0.139516  0.116611  0  1.003555  0
H  H11  1  0.10737882  0.17599925  0.56307131  1  0  0.111744  0  0.93471  0  0  0.119653  0  0.999118  0  0  0.122599  0  0.994955  0  0  0.139521  0.116634  0  1.003545  0
H  H12  1  0.75201372  0.69548096  0.15788977  1  0  0.119784  0  0.936501  0  0  0.128904  0  0.998299  0  0  0.131984  0  0.996508  0  0  0.110756  0.12615  0  1.000554  0
H  H13  1  0.24798735  0.30452042  0.84211271  1  0  0.119788  0  0.936508  0  0  0.128922  0  0.998306  0  0  0.131991  0  0.996526  0  0  0.11076  0.126166  0  1.000561  0
H  H14  1  0.72341969  0.54026967  0.86568680  1  0  0.112938  0  0.956809  0  0  0.118984  0  1.025194  0  0  0.122719  0  1.022842  0  0  0.106022  0.116552  0  1.026751  0
H  H15  1  0.27658336  0.45973292  0.13431452  1  0  0.112961  0  0.956768  0  0  0.119006  0  1.025151  0  0  0.122738  0  1.022795  0  0  0.106027  0.116576  0  1.026703  0
H  H16  1  0.79799236  0.26770016  0.17394190  1  0  0.098002  0  0.950579  0  0  0.10225  0  1.022487  0  0  0.105193  0  1.019837  0  0  0.119889  0.09934  0  1.025543  0
H  H17  1  0.20200490  0.73229880  0.82605780  1  0  0.098023  0  0.950575  0  0  0.102268  0  1.022482  0  0  0.10521  0  1.019833  0  0  0.119891  0.099352  0  1.025551  0
C  C18  1  0.76770422  0.61403048  0.59254625  1  0  0.016064  0  3.748124  0  0  -0.018664  0  4.018364  0  0  -0.017333  0  4.039598  0  0  -0.001188  -0.020182  0  4.004615  0
C  C19  1  0.23229387  0.38596610  0.40745042  1  0  0.016021  0  3.748093  0  0  -0.018713  0  4.018351  0  0  -0.01738  0  4.039581  0  0  -0.001197  -0.020231  0  4.004601  0
C  C20  1  0.74174841  0.49549811  0.43735922  1  0  -0.049486  0  3.63841  0  0  -0.090612  0  3.89669  0  0  -0.089097  0  3.915073  0  0  0.004031  -0.091256  0  3.884077  0
C  C21  1  0.25825198  0.50450088  0.56263896  1  0  -0.049387  0  3.63838  0  0  -0.090506  0  3.896654  0  0  -0.08899  0  3.915034  0  0  0.004069  -0.091151  0  3.884037  0
C  C22  1  0.84277969  0.73386804  0.46486739  1  0  0.201311  0  3.587319  0  0  0.13778  0  3.855035  0  0  0.153328  0  3.865766  0  0  0.153599  0.127191  0  3.849277  0
C  C23  1  0.15722145  0.26613334  0.53513306  1  0  0.201304  0  3.587396  0  0  0.137767  0  3.855116  0  0  0.153316  0  3.865845  0  0  0.153614  0.127177  0  3.849361  0
C  C24  1  0.77815153  0.49426665  0.19079523  1  0  0.159484  0  3.742178  0  0  0.153636  0  3.988037  0  0  0.157264  0  4.009327  0  0  0.114717  0.150299  0  3.973627  0
C  C25  1  0.22184804  0.50573471  0.80920598  1  0  0.159544  0  3.742219  0  0  0.153678  0  3.988104  0  0  0.157307  0  4.00939  0  0  0.114733  0.150342  0  3.973688  0
C  C26  1  0.75791894  0.57095650  0.10207632  1  0  -0.091928  0  3.69008  0  0  -0.117541  0  3.945817  0  0  -0.118244  0  3.964641  0  0  -0.067129  -0.116593  0  3.934338  0
C  C27  1  0.24208369  0.42904490  0.89792539  1  0  -0.09192  0  3.690075  0  0  -0.11756  0  3.945816  0  0  -0.118254  0  3.96464  0  0  -0.06713  -0.116609  0  3.934333  0
C  C28  1  0.74105823  0.48414670  0.93796227  1  0  -0.089613  0  3.724224  0  0  -0.113566  0  3.979595  0  0  -0.117023  0  4.000756  0  0  -0.077195  -0.11285  0  3.966991  0
C  C29  1  0.25894479  0.51585589  0.06204007  1  0  -0.089723  0  3.724258  0  0  -0.11363  0  3.979629  0  0  -0.117083  0  4.000787  0  0  -0.077199  -0.112914  0  3.967025  0
C  C30  1  0.74810550  0.32450614  0.86586228  1  0  0.084277  0  3.737852  0  0  0.086689  0  3.978011  0  0  0.087289  0  3.998161  0  0  0.105518  0.087416  0  3.964074  0
C  C31  1  0.25189710  0.67549525  0.13414044  1  0  0.08454  0  3.737741  0  0  0.08687  0  3.97798  0  0  0.087471  0  3.998127  0  0  0.105586  0.087597  0  3.964042  0
C  C32  1  0.74106389  0.22690385  0.68880740  1  0  0.6013  0  3.965775  0  0  0.549296  0  4.269905  0  0  0.582568  0  4.262625  0  0  0.197347  0.526668  0  4.273203  0
C  C33  1  0.25893683  0.77309633  0.31119343  1  0  0.601242  0  3.965821  0  0  0.549278  0  4.269928  0  0  0.582549  0  4.262651  0  0  0.197358  0.52665  0  4.273228  0
C  C34  1  0.78261565  0.33334344  0.11069261  1  0  0.063267  0  3.659611  0  0  0.025003  0  3.919495  0  0  0.030338  0  3.935192  0  0  0.053376  0.021433  0  3.909766  0
C  C35  1  0.21738354  0.66665673  0.88930797  1  0  0.063274  0  3.659611  0  0  0.025035  0  3.919479  0  0  0.03037  0  3.935176  0  0  0.053391  0.021463  0  3.909748  0
N  N36  1  0.83134223  0.76112499  0.60838751  1  0  -0.378131  0  3.250339  0  0  -0.298789  0  3.528927  0  0  -0.320481  0  3.547655  0  0  -0.359013  -0.286331  0  3.518975  0
N  N37  1  0.16865806  0.23887400  0.39161371  1  0  -0.378074  0  3.250366  0  0  -0.29874  0  3.528964  0  0  -0.320435  0  3.547699  0  0  -0.359021  -0.286284  0  3.519012  0
N  N38  1  0.78881759  0.57235560  0.35618043  1  0  -0.093167  0  3.597928  0  0  -0.005068  0  3.811575  0  0  -0.020655  0  3.83802  0  0  -0.222459  0.005178  0  3.793362  0
N  N39  1  0.21118006  0.42764456  0.64381990  1  0  -0.093314  0  3.598061  0  0  -0.005193  0  3.811709  0  0  -0.020781  0  3.838154  0  0  -0.222481  0.005055  0  3.793494  0
N  N40  1  0.76957177  0.25302082  0.95357672  1  0  -0.322975  0  3.322587  0  0  -0.249961  0  3.576211  0  0  -0.267453  0  3.597472  0  0  -0.323582  -0.238683  0  3.563118  0
N  N41  1  0.23042891  0.74697936  0.04642512  1  0  -0.323169  0  3.322593  0  0  -0.250154  0  3.576278  0  0  -0.267647  0  3.597539  0  0  -0.323681  -0.238876  0  3.563185  0
Cl  Cl42  1  0.77771096  0.89916538  0.02743354  1  0  -0.591173  0  0.917334  0  0  -0.523331  0  1.189137  0  0  -0.541558  0  1.16673  0  0  -0.289256  -0.507426  0  1.20542  0
Cl  Cl43  1  0.22229011  0.10083600  0.97256893  1  0  -0.591181  0  0.917343  0  0  -0.523348  0  1.18917  0  0  -0.541575  0  1.166759  0  0  -0.289261  -0.507443  0  1.205453  0
O  O44  1  0.68571181  0.28638701  0.60240388  1  0  -0.596741  0  1.976066  0  0  -0.543919  0  2.201109  0  0  -0.568853  0  2.194482  0  0  -0.310858  -0.525023  0  2.204006  0
O  O45  1  0.31429047  0.71361319  0.39759619  1  0  -0.596749  0  1.976096  0  0  -0.543945  0  2.201133  0  0  -0.568876  0  2.194508  0  0  -0.310872  -0.52505  0  2.20403  0
O  O46  1  0.79622778  0.09668234  0.64209644  1  0  -0.629329  0  1.981983  0  0  -0.573131  0  2.229239  0  0  -0.599567  0  2.21798  0  0  -0.337161  -0.553525  0  2.236262  0
O  O47  1  0.20376942  0.90331661  0.35790529  1  0  -0.629316  0  1.981983  0  0  -0.573126  0  2.229223  0  0  -0.599568  0  2.217981  0  0  -0.337164  -0.553518  0  2.236249  0
O  O48  1  0.43662825  0.88253425  0.71403578  1  0  -0.833691  0  1.924777  0  0  -0.769259  0  2.1177  0  0  -0.791524  0  2.084293  0  0  -0.590271  -0.752716  0  2.141278  0
O  O49  1  0.56337135  0.11746712  0.28596442  1  0  -0.833672  0  1.924767  0  0  -0.769238  0  2.117694  0  0  -0.791505  0  2.084285  0  0  -0.590272  -0.752697  0  2.141271  0
