# generated using pymatgen
data_UH10(C7O4)2
_symmetry_space_group_name_H-M   'P 1'
_cell_length_a   8.70995299
_cell_length_b   10.14112084
_cell_length_c   16.08738946
_cell_angle_alpha   96.13513875
_cell_angle_beta   89.99985699
_cell_angle_gamma   89.99967660
_symmetry_Int_Tables_number   1
_chemical_formula_structural   UH10(C7O4)2
_chemical_formula_sum   'U4 H40 C56 O32'
_cell_volume   1412.83944142
_cell_formula_units_Z   4
loop_
 _symmetry_equiv_pos_site_id
 _symmetry_equiv_pos_as_xyz
  1  'x, y, z'
loop_
 _atom_site_type_symbol
 _atom_site_label
 _atom_site_symmetry_multiplicity
 _atom_site_fract_x
 _atom_site_fract_y
 _atom_site_fract_z
 _atom_site_occupancy
 _atom_site_hle17_bader_spin_density
 _atom_site_hle17_ddec_charge
 _atom_site_hle17_ddec_spin_density
 _atom_site_hle17_ddec_sum_bond_order
 _atom_site_hle17_magmom
 _atom_site_hse06_10hf_bader_spin_density
 _atom_site_hse06_10hf_ddec_charge
 _atom_site_hse06_10hf_ddec_spin_density
 _atom_site_hse06_10hf_ddec_sum_bond_order
 _atom_site_hse06_10hf_magmom
 _atom_site_hse06_bader_spin_density
 _atom_site_hse06_ddec_charge
 _atom_site_hse06_ddec_spin_density
 _atom_site_hse06_ddec_sum_bond_order
 _atom_site_hse06_magmom
 _atom_site_pbe_bader_spin_density
 _atom_site_pbe_cm5_charge
 _atom_site_pbe_ddec_charge
 _atom_site_pbe_ddec_spin_density
 _atom_site_pbe_ddec_sum_bond_order
 _atom_site_pbe_magmom
U  U0  1  0.55258735  0.29323921  0.58632436  1  0  2.490599  0  4.113352  0  0  2.554445  0  4.76202  0  0  2.662894  0  4.727166  0  0  2.20114  2.478052  0  4.787018  0
U  U1  1  0.05259911  0.20675518  0.41367609  1  0  2.490621  0  4.11356  0  0  2.55451  0  4.762093  0  0  2.66292  0  4.727289  0  0  2.201128  2.478123  0  4.787074  0
U  U2  1  0.44739411  0.70675094  0.41367726  1  0  2.490539  0  4.113732  0  0  2.554505  0  4.762127  0  0  2.662947  0  4.727258  0  0  2.201097  2.477956  0  4.787366  0
U  U3  1  0.94741450  0.79323993  0.58632461  1  0  2.490685  0  4.113253  0  0  2.554559  0  4.761817  0  0  2.663004  0  4.726944  0  0  2.20113  2.478084  0  4.786952  0
H  H4  1  0.46433458  0.34272916  0.88665666  1  0  0.104646  0  0.945516  0  0  0.113531  0  1.006184  0  0  0.117124  0  1.003489  0  0  0.107769  0.110927  0  1.008168  0
H  H5  1  0.96433394  0.15726903  0.11334099  1  0  0.104641  0  0.945532  0  0  0.113516  0  1.006217  0  0  0.11711  0  1.003518  0  0  0.107747  0.110917  0  1.008188  0
H  H6  1  0.53566640  0.65726991  0.11334306  1  0  0.104637  0  0.945546  0  0  0.113528  0  1.006201  0  0  0.117121  0  1.003506  0  0  0.107772  0.110924  0  1.008184  0
H  H7  1  0.03566704  0.84272904  0.88665679  1  0  0.10463  0  0.945534  0  0  0.113512  0  1.006211  0  0  0.117105  0  1.003515  0  0  0.107752  0.110909  0  1.008193  0
H  H8  1  0.80367051  0.04914847  0.80404961  1  0  0.118711  0  0.940678  0  0  0.126556  0  1.002432  0  0  0.129912  0  1.000363  0  0  0.114051  0.124174  0  1.00387  0
H  H9  1  0.30366447  0.45084758  0.19594936  1  0  0.118734  0  0.94068  0  0  0.126591  0  1.002426  0  0  0.129948  0  1.000353  0  0  0.114062  0.124208  0  1.003866  0
H  H10  1  0.19633047  0.95084863  0.19595184  1  0  0.118709  0  0.940669  0  0  0.126559  0  1.00242  0  0  0.129916  0  1.00035  0  0  0.114044  0.124176  0  1.00386  0
H  H11  1  0.69633306  0.54915247  0.80404980  1  0  0.118733  0  0.940703  0  0  0.126591  0  1.00244  0  0  0.129948  0  1.000368  0  0  0.114053  0.124208  0  1.00388  0
H  H12  1  0.48044020  0.27743720  0.03161967  1  0  0.106314  0  0.987839  0  0  0.114908  0  1.051842  0  0  0.117177  0  1.053115  0  0  0.100526  0.113304  0  1.051015  0
H  H13  1  0.98043745  0.22256289  0.96837871  1  0  0.106287  0  0.987876  0  0  0.11488  0  1.051884  0  0  0.117149  0  1.053158  0  0  0.100505  0.113277  0  1.051055  0
H  H14  1  0.51956078  0.72256287  0.96838073  1  0  0.106282  0  0.987895  0  0  0.114878  0  1.051897  0  0  0.117147  0  1.05317  0  0  0.100527  0.113277  0  1.051071  0
H  H15  1  0.01956238  0.77743716  0.03161983  1  0  0.106329  0  0.987796  0  0  0.114922  0  1.051801  0  0  0.117191  0  1.053075  0  0  0.100524  0.113318  0  1.050973  0
H  H16  1  0.82412877  0.98667888  0.95006322  1  0  0.110339  0  0.965917  0  0  0.121039  0  1.026345  0  0  0.124024  0  1.025772  0  0  0.103661  0.118943  0  1.026817  0
H  H17  1  0.32412396  0.51331857  0.04993676  1  0  0.110358  0  0.965869  0  0  0.121022  0  1.026334  0  0  0.12402  0  1.025746  0  0  0.103679  0.118927  0  1.026804  0
H  H18  1  0.17586991  0.01331921  0.04993892  1  0  0.110323  0  0.965852  0  0  0.121026  0  1.026295  0  0  0.123981  0  1.025755  0  0  0.103645  0.118929  0  1.026771  0
H  H19  1  0.67587472  0.48668347  0.95006315  1  0  0.110356  0  0.965879  0  0  0.121021  0  1.026345  0  0  0.124019  0  1.025758  0  0  0.103682  0.118926  0  1.026815  0
H  H20  1  0.67407844  0.47707374  0.24875319  1  0  0.108399  0  0.954927  0  0  0.115967  0  1.018487  0  0  0.119103  0  1.01645  0  0  0.111509  0.113464  0  1.020546  0
H  H21  1  0.17407260  0.02292497  0.75124551  1  0  0.108378  0  0.95494  0  0  0.115986  0  1.018445  0  0  0.119123  0  1.016407  0  0  0.111527  0.113485  0  1.020502  0
H  H22  1  0.32592254  0.52292633  0.75124659  1  0  0.108439  0  0.954906  0  0  0.116011  0  1.018457  0  0  0.119148  0  1.016418  0  0  0.111522  0.113509  0  1.020515  0
H  H23  1  0.82592723  0.97707508  0.24875302  1  0  0.108423  0  0.954872  0  0  0.115999  0  1.018424  0  0  0.119137  0  1.016384  0  0  0.111539  0.113497  0  1.020483  0
H  H24  1  0.72876029  0.34946571  0.11131398  1  0  0.114779  0  0.96472  0  0  0.119589  0  1.033631  0  0  0.123358  0  1.032209  0  0  0.103715  0.116836  0  1.034846  0
H  H25  1  0.22875643  0.15053172  0.88868456  1  0  0.114768  0  0.964692  0  0  0.119594  0  1.033594  0  0  0.123365  0  1.032172  0  0  0.103701  0.116839  0  1.034811  0
H  H26  1  0.27124069  0.65053336  0.88868636  1  0  0.11472  0  0.964734  0  0  0.119564  0  1.033604  0  0  0.123335  0  1.032183  0  0  0.103687  0.116813  0  1.034816  0
H  H27  1  0.77124225  0.84946734  0.11131453  1  0  0.114713  0  0.964765  0  0  0.11958  0  1.033603  0  0  0.123349  0  1.032182  0  0  0.103696  0.116828  0  1.034814  0
H  H28  1  0.53394386  0.00014162  0.20062595  1  0  0.111495  0  0.976345  0  0  0.120913  0  1.037742  0  0  0.12319  0  1.038677  0  0  0.106669  0.119193  0  1.037433  0
H  H29  1  0.03394504  0.49986080  0.79937442  1  0  0.111572  0  0.976304  0  0  0.120974  0  1.037713  0  0  0.123236  0  1.038666  0  0  0.106678  0.119255  0  1.037401  0
H  H30  1  0.46605252  0.99985944  0.79937514  1  0  0.1116  0  0.976315  0  0  0.121001  0  1.037715  0  0  0.123266  0  1.038664  0  0  0.106703  0.119281  0  1.037404  0
H  H31  1  0.96605364  0.50013926  0.20062473  1  0  0.11164  0  0.976307  0  0  0.120994  0  1.037731  0  0  0.123253  0  1.038687  0  0  0.106712  0.119302  0  1.037389  0
H  H32  1  0.48135157  0.12827282  0.33925188  1  0  0.121946  0  0.935981  0  0  0.132284  0  0.991344  0  0  0.135254  0  0.989023  0  0  0.12212  0.130032  0  0.993376  0
H  H33  1  0.98135273  0.37173223  0.66074682  1  0  0.121969  0  0.936024  0  0  0.132333  0  0.991371  0  0  0.135305  0  0.989053  0  0  0.122162  0.13012  0  0.99335  0
H  H34  1  0.51864712  0.87172923  0.66074865  1  0  0.121931  0  0.935996  0  0  0.132268  0  0.991369  0  0  0.13524  0  0.989051  0  0  0.122132  0.130055  0  0.993349  0
H  H35  1  0.01864710  0.62826882  0.33925116  1  0  0.121928  0  0.935978  0  0  0.132275  0  0.991349  0  0  0.135242  0  0.989035  0  0  0.122154  0.130065  0  0.993326  0
H  H36  1  0.72499222  0.08936988  0.46148625  1  0  0.444736  0  0.828931  0  0  0.423576  0  0.884139  0  0  0.434342  0  0.868546  0  0  0.33161  0.415863  0  0.8953  0
H  H37  1  0.22498600  0.41063353  0.53851393  1  0  0.444644  0  0.82898  0  0  0.423475  0  0.884273  0  0  0.43424  0  0.868682  0  0  0.331581  0.415762  0  0.895436  0
H  H38  1  0.27500991  0.91062820  0.53851277  1  0  0.444664  0  0.828935  0  0  0.423499  0  0.884232  0  0  0.434263  0  0.868642  0  0  0.331585  0.415785  0  0.895396  0
H  H39  1  0.77501153  0.58936257  0.46148621  1  0  0.444641  0  0.828983  0  0  0.423479  0  0.884257  0  0  0.434245  0  0.868665  0  0  0.331562  0.415767  0  0.895417  0
H  H40  1  0.68632158  0.01383047  0.53907970  1  0  0.464774  0  0.819674  0  0  0.446437  0  0.86227  0  0  0.458605  0  0.844365  0  0  0.322496  0.437807  0  0.875001  0
H  H41  1  0.18632442  0.48617114  0.46091731  1  0  0.464764  0  0.819663  0  0  0.446405  0  0.862302  0  0  0.458572  0  0.844398  0  0  0.322484  0.437773  0  0.875036  0
H  H42  1  0.31367825  0.98617158  0.46092021  1  0  0.464783  0  0.819641  0  0  0.446437  0  0.862256  0  0  0.458604  0  0.844352  0  0  0.322514  0.437807  0  0.874986  0
H  H43  1  0.81367541  0.51383189  0.53908266  1  0  0.464926  0  0.81949  0  0  0.446583  0  0.862091  0  0  0.458752  0  0.844185  0  0  0.322558  0.437953  0  0.874822  0
C  C44  1  0.61491584  0.23693706  0.75073713  1  0  0.622678  0  3.908738  0  0  0.587669  0  4.207434  0  0  0.625281  0  4.200434  0  0  0.20208  0.562023  0  4.210973  0
C  C45  1  0.11491308  0.26305798  0.24925954  1  0  0.622614  0  3.908619  0  0  0.587605  0  4.207303  0  0  0.625219  0  4.200301  0  0  0.202072  0.561958  0  4.210846  0
C  C46  1  0.38508743  0.76306101  0.24926251  1  0  0.622487  0  3.908794  0  0  0.587481  0  4.207508  0  0  0.625092  0  4.200511  0  0  0.201998  0.561834  0  4.211028  0
C  C47  1  0.88508790  0.73694308  0.75074093  1  0  0.622577  0  3.908607  0  0  0.587569  0  4.207289  0  0  0.625183  0  4.200294  0  0  0.202056  0.561923  0  4.210821  0
C  C48  1  0.63474939  0.20223389  0.83698340  1  0  -0.092056  0  3.782536  0  0  -0.070647  0  4.013375  0  0  -0.081428  0  4.035574  0  0  -0.025079  -0.063667  0  3.998431  0
C  C49  1  0.13474910  0.29776007  0.16301753  1  0  -0.091995  0  3.782496  0  0  -0.07055  0  4.01329  0  0  -0.081332  0  4.035486  0  0  -0.025015  -0.063573  0  3.998354  0
C  C50  1  0.36525159  0.79776320  0.16301805  1  0  -0.0919  0  3.782413  0  0  -0.070511  0  4.013271  0  0  -0.081298  0  4.035481  0  0  -0.025021  -0.063533  0  3.99833  0
C  C51  1  0.86525188  0.70223701  0.83698206  1  0  -0.091964  0  3.782499  0  0  -0.070532  0  4.013307  0  0  -0.08132  0  4.035512  0  0  -0.02501  -0.063553  0  3.998365  0
C  C52  1  0.54448218  0.26604981  0.90139609  1  0  -0.040255  0  3.745218  0  0  -0.063018  0  3.995898  0  0  -0.058973  0  4.012991  0  0  -0.078075  -0.065418  0  3.984222  0
C  C53  1  0.04447916  0.23394659  0.09860201  1  0  -0.040278  0  3.745101  0  0  -0.063051  0  3.995772  0  0  -0.059  0  4.012853  0  0  -0.078081  -0.06545  0  3.9841  0
C  C54  1  0.45551879  0.73394926  0.09860425  1  0  -0.040318  0  3.745234  0  0  -0.063083  0  3.995924  0  0  -0.059035  0  4.013016  0  0  -0.078097  -0.06548  0  3.984249  0
C  C55  1  0.95552067  0.76605148  0.90139763  1  0  -0.040295  0  3.745266  0  0  -0.063071  0  3.995959  0  0  -0.059022  0  4.013048  0  0  -0.078081  -0.065472  0  3.984285  0
C  C56  1  0.73551716  0.10065080  0.85434523  1  0  -0.031938  0  3.710964  0  0  -0.056382  0  3.960802  0  0  -0.052625  0  3.978751  0  0  -0.071488  -0.058555  0  3.948402  0
C  C57  1  0.23551399  0.39934661  0.14565455  1  0  -0.031994  0  3.710967  0  0  -0.056487  0  3.960802  0  0  -0.052731  0  3.978755  0  0  -0.071544  -0.058662  0  3.948408  0
C  C58  1  0.26448267  0.89934828  0.14565573  1  0  -0.031991  0  3.710855  0  0  -0.056444  0  3.960701  0  0  -0.052684  0  3.978645  0  0  -0.07148  -0.058618  0  3.948302  0
C  C59  1  0.76448469  0.60065346  0.85434523  1  0  -0.031983  0  3.710988  0  0  -0.056456  0  3.960817  0  0  -0.052699  0  3.978774  0  0  -0.071527  -0.05863  0  3.948419  0
C  C60  1  0.55346149  0.23013726  0.98225648  1  0  -0.20113  0  3.758269  0  0  -0.221635  0  4.01233  0  0  -0.228846  0  4.031654  0  0  -0.105205  -0.216925  0  3.999301  0
C  C61  1  0.05345976  0.26986306  0.01774187  1  0  -0.201064  0  3.758292  0  0  -0.221573  0  4.012335  0  0  -0.228783  0  4.031657  0  0  -0.105165  -0.216861  0  3.999305  0
C  C62  1  0.44653948  0.76986280  0.01774330  1  0  -0.201044  0  3.758231  0  0  -0.221546  0  4.012299  0  0  -0.228755  0  4.031624  0  0  -0.105178  -0.216841  0  3.999274  0
C  C63  1  0.94653892  0.73013699  0.98225605  1  0  -0.201106  0  3.758388  0  0  -0.221621  0  4.01244  0  0  -0.228831  0  4.031763  0  0  -0.105201  -0.216909  0  3.999411  0
C  C64  1  0.74711990  0.06547915  0.93526845  1  0  -0.183512  0  3.732531  0  0  -0.203992  0  3.987105  0  0  -0.210859  0  4.005579  0  0  -0.099802  -0.199526  0  3.974598  0
C  C65  1  0.24711573  0.43451819  0.06473131  1  0  -0.18349  0  3.732464  0  0  -0.20391  0  3.987003  0  0  -0.210789  0  4.005471  0  0  -0.099786  -0.199445  0  3.974496  0
C  C66  1  0.25288223  0.93451794  0.06473238  1  0  -0.183496  0  3.732614  0  0  -0.203961  0  3.98718  0  0  -0.210802  0  4.005671  0  0  -0.099795  -0.199495  0  3.974672  0
C  C67  1  0.75288180  0.56548187  0.93526847  1  0  -0.183483  0  3.732476  0  0  -0.203929  0  3.987033  0  0  -0.210807  0  4.005501  0  0  -0.0998  -0.199463  0  3.974526  0
C  C68  1  0.65679069  0.13059758  0.99900001  1  0  0.294592  0  3.773947  0  0  0.282789  0  4.036468  0  0  0.296385  0  4.050066  0  0  0.092694  0.273585  0  4.027124  0
C  C69  1  0.15678839  0.36940123  0.00099934  1  0  0.294548  0  3.77402  0  0  0.282784  0  4.036495  0  0  0.296381  0  4.050095  0  0  0.092703  0.273578  0  4.027151  0
C  C70  1  0.34320684  0.86940250  0.00100164  1  0  0.294609  0  3.774018  0  0  0.282776  0  4.03656  0  0  0.296374  0  4.050152  0  0  0.092677  0.273573  0  4.027214  0
C  C71  1  0.84321143  0.63060082  0.99899994  1  0  0.294524  0  3.774055  0  0  0.282758  0  4.036515  0  0  0.296355  0  4.050115  0  0  0.092694  0.273552  0  4.027171  0
C  C72  1  0.55627411  0.38450441  0.38598463  1  0  0.735866  0  3.775861  0  0  0.706473  0  4.059171  0  0  0.749794  0  4.042376  0  0  0.266315  0.676415  0  4.069735  0
C  C73  1  0.05626716  0.11550385  0.61401672  1  0  0.735858  0  3.775767  0  0  0.706172  0  4.059448  0  0  0.749471  0  4.042699  0  0  0.266116  0.67613  0  4.069988  0
C  C74  1  0.44372802  0.61549864  0.61401659  1  0  0.735891  0  3.775725  0  0  0.706344  0  4.059282  0  0  0.749649  0  4.042521  0  0  0.266232  0.676301  0  4.069822  0
C  C75  1  0.94372923  0.88449819  0.38598257  1  0  0.735906  0  3.775707  0  0  0.706312  0  4.059281  0  0  0.749618  0  4.042517  0  0  0.2662  0.676268  0  4.069825  0
C  C76  1  0.57646868  0.31043547  0.30268046  1  0  -0.08577  0  3.742146  0  0  -0.071214  0  3.975868  0  0  -0.084252  0  3.999539  0  0  -0.011271  -0.062357  0  3.959498  0
C  C77  1  0.07646546  0.18956573  0.69731854  1  0  -0.085703  0  3.742349  0  0  -0.071029  0  3.976068  0  0  -0.084061  0  3.999751  0  0  -0.01121  -0.062177  0  3.9597  0
C  C78  1  0.42353345  0.68956459  0.69731932  1  0  -0.085721  0  3.742285  0  0  -0.071121  0  3.97605  0  0  -0.084155  0  3.999731  0  0  -0.011208  -0.06227  0  3.959685  0
C  C79  1  0.92353437  0.81043433  0.30268124  1  0  -0.085762  0  3.742382  0  0  -0.07113  0  3.97612  0  0  -0.084164  0  3.999798  0  0  -0.011219  -0.062279  0  3.959755  0
C  C80  1  0.64333696  0.37268421  0.23776499  1  0  -0.012827  0  3.692606  0  0  -0.037554  0  3.939982  0  0  -0.033167  0  3.958205  0  0  -0.065931  -0.040397  0  3.927958  0
C  C81  1  0.14333383  0.12731763  0.76223334  1  0  -0.012847  0  3.692396  0  0  -0.037596  0  3.939725  0  0  -0.033208  0  3.95795  0  0  -0.065922  -0.04044  0  3.927698  0
C  C82  1  0.35666402  0.62731685  0.76223610  1  0  -0.012946  0  3.692688  0  0  -0.037678  0  3.940088  0  0  -0.033288  0  3.958307  0  0  -0.065976  -0.040521  0  3.928061  0
C  C83  1  0.85666599  0.87268242  0.23776395  1  0  -0.01288  0  3.692457  0  0  -0.037618  0  3.939845  0  0  -0.033228  0  3.958062  0  0  -0.065973  -0.040463  0  3.92782  0
C  C84  1  0.67309413  0.30156690  0.16073595  1  0  -0.204614  0  3.757694  0  0  -0.222109  0  4.013866  0  0  -0.230288  0  4.034365  0  0  -0.101764  -0.216502  0  4.000132  0
C  C85  1  0.17309248  0.19843380  0.83926412  1  0  -0.204576  0  3.757391  0  0  -0.222099  0  4.013575  0  0  -0.230279  0  4.034075  0  0  -0.101778  -0.216489  0  3.999839  0
C  C86  1  0.32691259  0.69843217  0.83926438  1  0  -0.204504  0  3.757712  0  0  -0.22202  0  4.013865  0  0  -0.230202  0  4.03437  0  0  -0.10171  -0.216411  0  4.000127  0
C  C87  1  0.82691309  0.80156626  0.16073566  1  0  -0.204509  0  3.757632  0  0  -0.222044  0  4.013794  0  0  -0.230223  0  4.034295  0  0  -0.101726  -0.216436  0  4.000057  0
C  C88  1  0.63335270  0.16716299  0.14887018  1  0  0.283406  0  3.768551  0  0  0.272429  0  4.029775  0  0  0.284691  0  4.045215  0  0  0.091798  0.263922  0  4.019293  0
C  C89  1  0.13334898  0.33283693  0.85112927  1  0  0.283385  0  3.768463  0  0  0.272457  0  4.029679  0  0  0.284721  0  4.045113  0  0  0.091833  0.263948  0  4.019196  0
C  C90  1  0.36664942  0.83283609  0.85113077  1  0  0.28346  0  3.768624  0  0  0.272486  0  4.029854  0  0  0.284749  0  4.045292  0  0  0.091819  0.263978  0  4.01937  0
C  C91  1  0.86664855  0.66716413  0.14887057  1  0  0.283421  0  3.768538  0  0  0.272421  0  4.029788  0  0  0.284685  0  4.045223  0  0  0.091808  0.263912  0  4.019308  0
C  C92  1  0.56411932  0.10444053  0.21236658  1  0  -0.176363  0  3.734364  0  0  -0.196669  0  3.989605  0  0  -0.203961  0  4.010447  0  0  -0.094816  -0.191816  0  3.975633  0
C  C93  1  0.06411663  0.39556173  0.78763375  1  0  -0.176435  0  3.734418  0  0  -0.196749  0  3.989671  0  0  -0.204031  0  4.010523  0  0  -0.09479  -0.1919  0  3.975712  0
C  C94  1  0.43587936  0.89556152  0.78763520  1  0  -0.176569  0  3.734499  0  0  -0.196873  0  3.989767  0  0  -0.204155  0  4.010613  0  0  -0.094871  -0.192021  0  3.975807  0
C  C95  1  0.93587975  0.60443436  0.21236391  1  0  -0.176562  0  3.734346  0  0  -0.196773  0  3.989571  0  0  -0.20405  0  4.010419  0  0  -0.09481  -0.191942  0  3.975599  0
C  C96  1  0.53598098  0.17589584  0.28937672  1  0  -0.01112  0  3.67249  0  0  -0.03776  0  3.92065  0  0  -0.034084  0  3.939654  0  0  -0.058698  -0.039598  0  3.907357  0
C  C97  1  0.03598027  0.32410756  0.71062309  1  0  -0.011105  0  3.672475  0  0  -0.037778  0  3.920617  0  0  -0.034108  0  3.939621  0  0  -0.058727  -0.039644  0  3.90731  0
C  C98  1  0.46401999  0.82410621  0.71062381  1  0  -0.01101  0  3.672445  0  0  -0.037646  0  3.920621  0  0  -0.033968  0  3.939615  0  0  -0.058697  -0.039514  0  3.907318  0
C  C99  1  0.96401956  0.67589449  0.28937682  1  0  -0.011  0  3.672375  0  0  -0.037682  0  3.92053  0  0  -0.034005  0  3.939528  0  0  -0.058726  -0.039551  0  3.907231  0
O  O100  1  0.51405810  0.32222954  0.44666957  1  0  -0.652647  0  2.085068  0  0  -0.648591  0  2.372621  0  0  -0.685515  0  2.364411  0  0  -0.358001  -0.621578  0  2.376868  0
O  O101  1  0.01405103  0.17777694  0.55332861  1  0  -0.652723  0  2.084949  0  0  -0.64851  0  2.372598  0  0  -0.685416  0  2.364396  0  0  -0.357926  -0.621505  0  2.376843  0
O  O102  1  0.48594633  0.67777350  0.55333040  1  0  -0.652661  0  2.084902  0  0  -0.648591  0  2.372581  0  0  -0.685506  0  2.364377  0  0  -0.357978  -0.621556  0  2.37683  0
O  O103  1  0.98594536  0.82222411  0.44667124  1  0  -0.652826  0  2.08494  0  0  -0.648661  0  2.372578  0  0  -0.685579  0  2.364374  0  0  -0.357998  -0.621642  0  2.376828  0
O  O104  1  0.54360860  0.34370958  0.73738704  1  0  -0.631624  0  1.964785  0  0  -0.617851  0  2.218679  0  0  -0.650547  0  2.215011  0  0  -0.353193  -0.594575  0  2.220177  0
O  O105  1  0.04360876  0.15628485  0.26261217  1  0  -0.63155  0  1.964728  0  0  -0.617773  0  2.218584  0  0  -0.650473  0  2.214932  0  0  -0.353104  -0.594499  0  2.220082  0
O  O106  1  0.45639582  0.65629149  0.26261466  1  0  -0.631487  0  1.964812  0  0  -0.617723  0  2.218676  0  0  -0.650424  0  2.215024  0  0  -0.353108  -0.594426  0  2.220173  0
O  O107  1  0.95639451  0.84371124  0.73738673  1  0  -0.631541  0  1.964822  0  0  -0.617769  0  2.218707  0  0  -0.650464  0  2.215036  0  0  -0.35312  -0.594485  0  2.220206  0
O  O108  1  0.66392684  0.15931284  0.68810162  1  0  -0.6136  0  1.936452  0  0  -0.599899  0  2.184818  0  0  -0.633468  0  2.181795  0  0  -0.345732  -0.575758  0  2.185921  0
O  O109  1  0.16392098  0.34068494  0.31189890  1  0  -0.613638  0  1.936308  0  0  -0.599944  0  2.184649  0  0  -0.633502  0  2.181599  0  0  -0.345823  -0.575802  0  2.185753  0
O  O110  1  0.33607529  0.84068723  0.31189940  1  0  -0.613577  0  1.936454  0  0  -0.599881  0  2.184799  0  0  -0.633453  0  2.181779  0  0  -0.34575  -0.575719  0  2.185901  0
O  O111  1  0.83607081  0.65931611  0.68810032  1  0  -0.613655  0  1.936166  0  0  -0.599974  0  2.184542  0  0  -0.633528  0  2.181471  0  0  -0.345814  -0.575822  0  2.185647  0
O  O112  1  0.67039352  0.08594446  0.07657567  1  0  -0.29372  0  2.35159  0  0  -0.224305  0  2.576658  0  0  -0.243542  0  2.578875  0  0  -0.144728  -0.210503  0  2.574617  0
O  O113  1  0.17039238  0.41405625  0.92342379  1  0  -0.293661  0  2.351485  0  0  -0.224325  0  2.576595  0  0  -0.243563  0  2.578809  0  0  -0.14475  -0.210522  0  2.574554  0
O  O114  1  0.32960516  0.91405560  0.92342473  1  0  -0.293738  0  2.351563  0  0  -0.224304  0  2.576623  0  0  -0.243541  0  2.578838  0  0  -0.14472  -0.210502  0  2.57458  0
O  O115  1  0.82960630  0.58594380  0.07657537  1  0  -0.293668  0  2.351467  0  0  -0.224285  0  2.57655  0  0  -0.243525  0  2.578767  0  0  -0.144738  -0.210482  0  2.574508  0
O  O116  1  0.58406372  0.51014189  0.39513102  1  0  -0.696902  0  2.088943  0  0  -0.680018  0  2.362549  0  0  -0.715992  0  2.352279  0  0  -0.377374  -0.653563  0  2.368251  0
O  O117  1  0.08405209  0.98985779  0.60486757  1  0  -0.696929  0  2.088743  0  0  -0.680019  0  2.36264  0  0  -0.715993  0  2.352393  0  0  -0.377345  -0.653581  0  2.368329  0
O  O118  1  0.41594070  0.48985916  0.60486883  1  0  -0.696941  0  2.088801  0  0  -0.680013  0  2.362544  0  0  -0.715987  0  2.35229  0  0  -0.37739  -0.65359  0  2.368234  0
O  O119  1  0.91594199  0.01014227  0.39513097  1  0  -0.696856  0  2.088675  0  0  -0.679954  0  2.362468  0  0  -0.71592  0  2.352216  0  0  -0.377342  -0.65353  0  2.368154  0
O  O120  1  0.73123096  0.38613613  0.58306891  1  0  -0.740113  0  1.643074  0  0  -0.741914  0  1.935775  0  0  -0.763949  0  1.920575  0  0  -0.739364  -0.72853  0  1.947107  0
O  O121  1  0.23122379  0.11386329  0.41693224  1  0  -0.740101  0  1.6435  0  0  -0.741899  0  1.936211  0  0  -0.763911  0  1.921  0  0  -0.739505  -0.728518  0  1.947534  0
O  O122  1  0.26878035  0.61386692  0.41693293  1  0  -0.74006  0  1.643639  0  0  -0.741853  0  1.936373  0  0  -0.76386  0  1.921136  0  0  -0.739615  -0.728456  0  1.947766  0
O  O123  1  0.76876341  0.88614073  0.58306593  1  0  -0.740113  0  1.642851  0  0  -0.741952  0  1.935559  0  0  -0.763983  0  1.920349  0  0  -0.739302  -0.728546  0  1.946902  0
O  O124  1  0.37104932  0.20796515  0.59116009  1  0  -0.701209  0  1.568928  0  0  -0.705378  0  1.85404  0  0  -0.727193  0  1.84399  0  0  -0.7489  -0.692221  0  1.861801  0
O  O125  1  0.87104299  0.29203849  0.40884115  1  0  -0.701231  0  1.568636  0  0  -0.705456  0  1.853711  0  0  -0.727268  0  1.843678  0  0  -0.748764  -0.692294  0  1.861463  0
O  O126  1  0.62895969  0.79204385  0.40884276  1  0  -0.701225  0  1.568491  0  0  -0.705462  0  1.853512  0  0  -0.727284  0  1.843474  0  0  -0.748627  -0.692261  0  1.861294  0
O  O127  1  0.12894651  0.70796950  0.59115852  1  0  -0.701221  0  1.569051  0  0  -0.705386  0  1.85418  0  0  -0.727202  0  1.844127  0  0  -0.748978  -0.692213  0  1.861957  0
O  O128  1  0.65621331  0.09153356  0.50968203  1  0  -0.863933  0  1.866399  0  0  -0.839678  0  2.052322  0  0  -0.862466  0  2.019637  0  0  -0.598758  -0.823049  0  2.074961  0
O  O129  1  0.15621307  0.40846525  0.49031732  1  0  -0.863827  0  1.866405  0  0  -0.839581  0  2.052383  0  0  -0.862354  0  2.019686  0  0  -0.59869  -0.822951  0  2.075019  0
O  O130  1  0.34378996  0.90846651  0.49031837  1  0  -0.863847  0  1.866343  0  0  -0.83961  0  2.05232  0  0  -0.862393  0  2.019639  0  0  -0.598737  -0.822959  0  2.074966  0
O  O131  1  0.84378561  0.59153283  0.50968295  1  0  -0.863988  0  1.866294  0  0  -0.83975  0  2.052294  0  0  -0.862531  0  2.019588  0  0  -0.598778  -0.823112  0  2.07494  0
