# generated using pymatgen
data_MnPH10C6NO5
_symmetry_space_group_name_H-M   'P 1'
_cell_length_a   7.62666295
_cell_length_b   10.04391459
_cell_length_c   12.74591209
_cell_angle_alpha   104.26238514
_cell_angle_beta   90.00073323
_cell_angle_gamma   90.00022187
_symmetry_Int_Tables_number   1
_chemical_formula_structural   MnPH10C6NO5
_chemical_formula_sum   'Mn4 P4 H40 C24 N4 O20'
_cell_volume   946.26305972
_cell_formula_units_Z   4
loop_
 _symmetry_equiv_pos_site_id
 _symmetry_equiv_pos_as_xyz
  1  'x, y, z'
loop_
 _atom_site_type_symbol
 _atom_site_label
 _atom_site_symmetry_multiplicity
 _atom_site_fract_x
 _atom_site_fract_y
 _atom_site_fract_z
 _atom_site_occupancy
 _atom_site_hle17_ddec_charge
 _atom_site_hle17_ddec_spin_density
 _atom_site_hle17_ddec_sum_bond_order
 _atom_site_hle17_magmom
 _atom_site_hse06_10hf_ddec_charge
 _atom_site_hse06_10hf_ddec_spin_density
 _atom_site_hse06_10hf_ddec_sum_bond_order
 _atom_site_hse06_10hf_magmom
 _atom_site_hse06_ddec_charge
 _atom_site_hse06_ddec_spin_density
 _atom_site_hse06_ddec_sum_bond_order
 _atom_site_hse06_magmom
 _atom_site_pbe_cm5_charge
 _atom_site_pbe_ddec_charge
 _atom_site_pbe_ddec_spin_density
 _atom_site_pbe_ddec_sum_bond_order
 _atom_site_pbe_magmom
Mn  Mn0  1  0.75077879  0.90595730  0.11287443  1  1.233694  4.794103  1.725141  4.685  1.075274  4.721403  2.209095  4.552  1.130241  4.76282  2.142507  4.608  0.587051  1.031227  4.679967  2.259017  4.498
Mn  Mn1  1  0.25077592  0.09404376  0.38712399  1  1.233695  -4.794126  1.725109  -4.685  1.075247  -4.721425  2.209062  -4.552  1.130202  -4.762841  2.142479  -4.608  0.587037  1.031197  -4.680001  2.258981  -4.498
Mn  Mn2  1  0.24922752  0.09405108  0.88712478  1  1.23372  4.794086  1.725039  4.685  1.075297  4.721399  2.208936  4.552  1.130227  4.762818  2.142405  4.608  0.587063  1.03125  4.67997  2.258856  4.498
Mn  Mn3  1  0.74923300  0.90595022  0.61287388  1  1.233693  -4.79409  1.725027  -4.685  1.07519  -4.721406  2.209038  -4.552  1.130183  -4.762822  2.142391  -4.608  0.587036  1.031142  -4.679982  2.258958  -4.498
P  P4  1  0.86184326  0.90234951  0.86431732  1  1.487148  0.002964  4.869334  0.003  1.330682  0.005397  5.362934  0.004  1.381016  0.00411  5.32767  0.003  0.341445  1.294999  0.006644  5.385998  0.005
P  P5  1  0.36184945  0.09764829  0.63568384  1  1.487398  -0.002962  4.868851  -0.003  1.330937  -0.005405  5.362434  -0.004  1.381256  -0.004126  5.327172  -0.003  0.341528  1.295247  -0.006644  5.385495  -0.005
P  P6  1  0.13816567  0.09765888  0.13568110  1  1.487381  0.002968  4.868965  0.003  1.330959  0.005398  5.362579  0.004  1.381302  0.004113  5.327304  0.003  0.34146  1.295268  0.006644  5.385651  0.005
P  P7  1  0.63816079  0.90234361  0.36431518  1  1.487329  -0.002971  4.86897  -0.003  1.330861  -0.005403  5.36256  -0.004  1.381188  -0.004121  5.327297  -0.003  0.34145  1.29517  -0.006643  5.38562  -0.005
H  H8  1  0.38822796  0.92178027  0.07248070  1  0.427212  -0.000561  0.8762  0.001  0.396515  9e-05  0.939118  0.001  0.407624  -0.000187  0.923068  0.001  0.295459  0.38851  0.000362  0.950637  0.001
H  H9  1  0.88822156  0.07822462  0.42752189  1  0.427233  0.000561  0.876175  -0.001  0.396517  -9e-05  0.939123  -0.001  0.40763  0.000186  0.923067  -0.001  0.295447  0.388512  -0.000362  0.950642  -0.001
H  H10  1  0.61177442  0.07822604  0.92751888  1  0.427268  -0.000559  0.876138  0.001  0.396565  9e-05  0.939065  0.001  0.40768  -0.000187  0.923006  0.001  0.295489  0.388562  0.000362  0.950581  0.001
H  H11  1  0.11178737  0.92176727  0.57247791  1  0.427148  0.00056  0.876311  -0.001  0.396479  -9e-05  0.939205  -0.001  0.407588  0.000186  0.923154  -0.001  0.295426  0.388474  -0.000362  0.950723  -0.001
H  H12  1  0.42865433  0.88675838  0.18265753  1  0.408958  0.000408  0.860817  0.0  0.384146  0.001022  0.930687  0.001  0.393005  0.000841  0.920763  0.001  0.309931  0.377724  0.001181  0.937806  0.001
H  H13  1  0.92864444  0.11325085  0.31734546  1  0.408986  -0.000405  0.860766  0.0  0.384122  -0.001022  0.930686  -0.001  0.392979  -0.00084  0.92077  -0.001  0.30988  0.377701  -0.001181  0.937803  -0.001
H  H14  1  0.57134411  0.11323868  0.81734018  1  0.408961  0.000414  0.860898  0.0  0.384174  0.001023  0.930771  0.001  0.393029  0.000841  0.920844  0.001  0.309942  0.377752  0.001182  0.937891  0.001
H  H15  1  0.07136580  0.88674313  0.68265163  1  0.408966  -0.000411  0.860793  0.0  0.384125  -0.001022  0.930718  -0.001  0.392983  -0.000841  0.920796  -0.001  0.309915  0.377705  -0.001181  0.937835  -0.001
H  H16  1  0.58473583  0.09626270  0.25996254  1  0.415259  0.000874  0.901189  0.0  0.382714  0.001223  0.969374  0.0  0.393657  0.001153  0.953374  0.0  0.293011  0.375248  0.00127  0.980133  0.0
H  H17  1  0.08474835  0.90373548  0.24002462  1  0.415229  -0.000876  0.901237  0.0  0.382711  -0.001223  0.969373  0.0  0.393654  -0.001153  0.953373  0.0  0.293026  0.375244  -0.00127  0.980132  0.0
H  H18  1  0.41527310  0.90373533  0.74004085  1  0.415254  0.000877  0.901212  0.0  0.382698  0.001223  0.969415  0.0  0.393633  0.001152  0.953421  0.0  0.293023  0.375232  0.001271  0.980173  0.0
H  H19  1  0.91525927  0.09626885  0.75996906  1  0.415165  -0.000877  0.901314  0.0  0.382634  -0.001223  0.969473  0.0  0.39357  -0.001152  0.953479  0.0  0.292993  0.375169  -0.00127  0.98023  0.0
H  H20  1  0.53551284  0.14904767  0.15996805  1  0.427007  -0.000162  0.823121  0.0  0.407246  0.000459  0.881432  0.001  0.416544  0.000221  0.870808  0.001  0.315634  0.400618  0.000599  0.888922  0.001
H  H21  1  0.03549446  0.85094721  0.34001336  1  0.426994  0.000162  0.823082  0.0  0.40723  -0.000459  0.881401  -0.001  0.416526  -0.000222  0.870778  -0.001  0.315607  0.400605  -0.000599  0.888888  -0.001
H  H22  1  0.46449215  0.85095444  0.84003852  1  0.427003  -0.000161  0.823105  0.0  0.407248  0.000459  0.881408  0.001  0.416544  0.000221  0.870783  0.001  0.315612  0.400621  0.000598  0.888895  0.001
H  H23  1  0.96451841  0.14904271  0.65997898  1  0.426914  0.000157  0.823233  0.0  0.407176  -0.000459  0.881497  -0.001  0.416468  -0.000222  0.870884  -0.001  0.315594  0.400551  -0.000598  0.888983  -0.001
H  H24  1  0.65303043  0.62275904  0.13397717  1  0.078489  6.9e-05  0.946131  0.0  0.085759  0.000524  1.012224  0.001  0.088202  0.000348  1.010199  0.0  0.115538  0.08393  0.000668  1.013754  0.001
H  H25  1  0.15302986  0.37725673  0.36603368  1  0.078434  -8.1e-05  0.946434  0.0  0.085808  -0.000523  1.012392  -0.001  0.088249  -0.000347  1.01037  0.0  0.115538  0.083978  -0.000666  1.013925  -0.001
H  H26  1  0.34694703  0.37727402  0.86602467  1  0.078537  7.1e-05  0.946182  0.0  0.085868  0.000523  1.012202  0.001  0.088314  0.000347  1.010171  0.0  0.115575  0.084039  0.000667  1.013734  0.001
H  H27  1  0.84697251  0.62273516  0.63396613  1  0.078416  -8.4e-05  0.946397  0.0  0.085772  -0.000523  1.012374  -0.001  0.088213  -0.000347  1.010354  0.0  0.115561  0.083943  -0.000667  1.013905  -0.001
H  H28  1  0.63710947  0.37705780  0.02298519  1  0.109753  4.2e-05  0.947458  0.0  0.121887  8.4e-05  1.000914  0.0  0.125154  -8e-06  1.00019  0.0  0.107028  0.119396  8.5e-05  1.00182  0.0
H  H29  1  0.13712826  0.62295583  0.47702510  1  0.109776  -3.1e-05  0.947371  0.0  0.121975  -8.5e-05  1.000744  0.0  0.125242  8e-06  1.000019  0.0  0.107032  0.119489  -8.5e-05  1.001645  0.0
H  H30  1  0.36283259  0.62297528  0.97701507  1  0.109875  4.3e-05  0.947422  0.0  0.121937  8.4e-05  1.000926  0.0  0.125205  -8e-06  1.000197  0.0  0.107017  0.11945  8.5e-05  1.001823  0.0
H  H31  1  0.86286887  0.37703185  0.52298170  1  0.109681  -4e-05  0.947365  0.0  0.121888  -8.4e-05  1.000744  0.0  0.125158  8e-06  1.000014  0.0  0.107005  0.119399  -8.5e-05  1.001649  0.0
H  H32  1  0.79317457  0.31572910  0.84434141  1  0.098983  -9e-06  0.966494  0.0  0.107458  7.3e-05  1.030992  0.0  0.110972  7.6e-05  1.027261  0.0  0.104731  0.104803  8.6e-05  1.033617  0.0
H  H33  1  0.29319990  0.68427537  0.65566999  1  0.098869  1.3e-05  0.966516  0.0  0.107307  -7.4e-05  1.031063  0.0  0.110888  -7.6e-05  1.027256  0.0  0.104658  0.104656  -8.6e-05  1.033678  0.0
H  H34  1  0.20677798  0.68429050  0.15566555  1  0.098811  -1.1e-05  0.966302  0.0  0.107286  7.3e-05  1.030816  0.0  0.110851  7.5e-05  1.02703  0.0  0.104691  0.104634  8.6e-05  1.033429  0.0
H  H35  1  0.70679985  0.31570412  0.34433280  1  0.098955  1.5e-05  0.966208  0.0  0.107394  -7.4e-05  1.030767  0.0  0.110924  -7.6e-05  1.027019  0.0  0.104705  0.104745  -8.6e-05  1.033378  0.0
H  H36  1  0.96154424  0.49801481  0.78556512  1  0.106909  0.000276  0.936823  0.0  0.120614  0.000255  0.989977  0.0  0.123734  0.00021  0.989558  0.0  0.107163  0.118312  0.00033  0.990619  0.0
H  H37  1  0.46156466  0.50198035  0.71444568  1  0.106802  -0.000291  0.936928  0.0  0.120509  -0.000255  0.990108  0.0  0.123632  -0.00021  0.989688  0.0  0.107117  0.118205  -0.00033  0.99075  0.0
H  H38  1  0.03843847  0.50198319  0.21444062  1  0.106797  0.000294  0.936966  0.0  0.1205  0.000255  0.990132  0.0  0.123621  0.00021  0.989711  0.0  0.107106  0.118197  0.00033  0.990774  0.0
H  H39  1  0.53844689  0.49800225  0.28555538  1  0.106748  -0.000285  0.937012  0.0  0.120436  -0.000255  0.990189  0.0  0.123556  -0.000209  0.989771  0.0  0.107084  0.118132  -0.00033  0.990831  0.0
H  H40  1  0.08180402  0.72668963  0.82829288  1  0.145977  -0.000144  0.93813  0.0  0.159917  -0.000105  0.994552  0.0  0.162368  -0.000125  0.993783  0.0  0.110363  0.158062  -9.5e-05  0.995251  0.0
H  H41  1  0.58180494  0.27331267  0.67171177  1  0.145974  0.000139  0.938172  0.0  0.159932  0.000105  0.994566  0.0  0.162383  0.000125  0.9938  0.0  0.110363  0.158077  9.5e-05  0.995264  0.0
H  H42  1  0.91820753  0.27331559  0.17171118  1  0.145976  -0.000147  0.938182  0.0  0.159927  -0.000105  0.99458  0.0  0.162387  -0.000125  0.993816  0.0  0.110403  0.158073  -9.5e-05  0.995277  0.0
H  H43  1  0.41820661  0.72667520  0.32828016  1  0.145998  0.000145  0.938168  0.0  0.159973  0.000106  0.994529  0.0  0.162423  0.000125  0.993761  0.0  0.110391  0.158115  9.5e-05  0.995224  0.0
H  H44  1  0.08000809  0.82003634  0.96565340  1  0.162825  -0.000236  0.937266  0.0  0.173004  -7.6e-05  0.998126  0.0  0.176083  -0.000152  0.996824  0.0  0.120509  0.170622  4e-06  0.999252  0.0
H  H45  1  0.58001345  0.17996181  0.53435353  1  0.162794  0.000248  0.937282  0.0  0.172945  7.5e-05  0.998193  0.0  0.176023  0.000151  0.996897  0.0  0.120495  0.170566  -4e-06  0.999313  0.0
H  H46  1  0.91999428  0.17996475  0.03435218  1  0.162789  -0.000231  0.937301  0.0  0.172965  -7.6e-05  0.998178  0.0  0.176054  -0.000151  0.996878  0.0  0.1205  0.170584  4e-06  0.999303  0.0
H  H47  1  0.41999678  0.82002398  0.46564033  1  0.162758  0.000236  0.937142  0.0  0.172834  7.6e-05  0.998153  0.0  0.175905  0.000151  0.996867  0.0  0.120409  0.170454  -4e-06  0.999272  0.0
C  C48  1  0.71805008  0.58957753  0.05564603  1  0.134764  0.003615  3.727986  0.003  0.104417  0.005545  3.985736  0.005  0.112069  0.004786  4.003877  0.004  0.04884  0.099286  0.006684  3.973366  0.005
C  C49  1  0.21805005  0.41043151  0.44435767  1  0.13479  -0.003555  3.727832  -0.003  0.104353  -0.005546  3.985615  -0.005  0.112006  -0.004787  4.003748  -0.004  0.04886  0.099219  -0.006685  3.973249  -0.005
C  C50  1  0.28193393  0.41044329  0.94434705  1  0.134865  0.003631  3.727256  0.003  0.104438  0.005543  3.984948  0.005  0.112092  0.004785  4.003073  0.004  0.048862  0.099304  0.006683  3.97259  0.005
C  C51  1  0.78195625  0.58955831  0.55564328  1  0.134811  -0.00356  3.72802  -0.003  0.104374  -0.005543  3.985774  -0.005  0.112025  -0.004781  4.003913  -0.004  0.048836  0.099242  -0.006681  3.973409  -0.005
C  C52  1  0.71022019  0.45443638  0.99463215  1  -0.13617  -0.001877  3.760026  -0.001  -0.151142  -0.000959  4.016502  -0.001  -0.159458  -0.00158  4.038989  -0.001  -0.090029  -0.145619  -0.00054  4.001671  0.0
C  C53  1  0.21023636  0.54557376  0.50538212  1  -0.136247  0.001848  3.760556  0.001  -0.151282  0.000957  4.017101  0.001  -0.159599  0.001578  4.039606  0.001  -0.090099  -0.14576  0.000538  4.002273  0.0
C  C54  1  0.28973629  0.54558837  0.00537506  1  -0.136343  -0.001893  3.760371  -0.001  -0.151253  -0.000956  4.01688  -0.001  -0.159568  -0.001578  4.039382  -0.001  -0.090014  -0.145732  -0.000538  4.002049  0.0
C  C55  1  0.78976339  0.45441910  0.49462259  1  -0.13597  0.001873  3.760297  0.001  -0.150986  0.000956  4.016782  0.001  -0.159296  0.001575  4.039271  0.001  -0.089993  -0.145463  0.000538  4.001949  0.0
C  C56  1  0.79606523  0.42041311  0.89494303  1  0.00731  0.003177  3.720991  0.003  -0.013008  0.004385  3.97406  0.004  -0.008034  0.00381  3.991307  0.003  -0.069325  -0.01633  0.00565  3.962741  0.004
C  C57  1  0.29607715  0.57959258  0.60505609  1  0.007396  -0.003213  3.721157  -0.003  -0.01292  -0.004381  3.974304  -0.004  -0.007999  -0.003806  3.991529  -0.003  -0.069285  -0.016243  -0.005645  3.962983  -0.004
C  C58  1  0.20390305  0.57959948  0.10504918  1  0.007443  0.003208  3.721063  0.003  -0.012912  0.004377  3.974237  0.004  -0.007981  0.003806  3.991469  0.003  -0.069409  -0.016231  0.005643  3.962912  0.004
C  C59  1  0.70392391  0.42039312  0.39494482  1  0.007093  -0.003208  3.720739  -0.003  -0.013234  -0.004379  3.973927  -0.004  -0.008277  -0.003806  3.991169  -0.003  -0.069419  -0.016556  -0.005644  3.962606  -0.004
C  C60  1  0.88842532  0.52225321  0.86145792  1  -0.17606  -0.001866  3.700599  -0.001  -0.192409  -0.001063  3.947536  -0.001  -0.201141  -0.001616  3.969017  -0.001  -0.088122  -0.187086  -0.000764  3.933706  -0.001
C  C61  1  0.38844268  0.47774977  0.63855234  1  -0.175862  0.001931  3.700217  0.002  -0.192231  0.001063  3.947087  0.001  -0.200975  0.001616  3.968601  0.001  -0.088007  -0.186908  0.000764  3.933261  0.001
C  C62  1  0.11154952  0.47776021  0.13854937  1  -0.175895  -0.001921  3.700186  -0.001  -0.192237  -0.001061  3.947119  -0.001  -0.20097  -0.001615  3.968614  -0.001  -0.087928  -0.186917  -0.000763  3.933295  -0.001
C  C63  1  0.61156362  0.52223802  0.36144585  1  -0.175622  0.001897  3.700405  0.001  -0.191877  0.001063  3.947325  0.001  -0.200611  0.001614  3.96882  0.001  -0.087809  -0.186555  0.000764  3.933496  0.001
C  C64  1  0.89292113  0.65590548  0.92772502  1  0.316586  0.00375  3.74891  0.004  0.314007  0.005351  3.994653  0.005  0.324001  0.004599  4.015748  0.004  0.126124  0.306987  0.006495  3.980537  0.006
C  C65  1  0.39292721  0.34409453  0.57227839  1  0.316696  -0.003789  3.749548  -0.004  0.314259  -0.005346  3.99502  -0.005  0.324259  -0.004595  4.016113  -0.004  0.126292  0.307237  -0.00649  3.980903  -0.006
C  C66  1  0.10707469  0.34410188  0.07227320  1  0.316833  0.003758  3.749128  0.004  0.314251  0.005345  3.994784  0.005  0.324257  0.004593  4.015885  0.004  0.126268  0.307232  0.00649  3.980669  0.006
C  C67  1  0.60708565  0.65588812  0.42771876  1  0.316879  -0.003766  3.749494  -0.004  0.314138  -0.005345  3.99536  -0.005  0.324133  -0.004588  4.016453  -0.004  0.12623  0.307122  -0.006488  3.981236  -0.006
C  C68  1  0.99594780  0.76765336  0.89780971  1  -0.530643  2e-06  3.69419  0.0  -0.551339  0.000899  3.933673  0.0  -0.562028  0.00067  3.93948  0.0  -0.164669  -0.54376  0.001093  3.929757  0.0
C  C69  1  0.49595265  0.23235548  0.60219392  1  -0.530628  -1e-06  3.694213  0.0  -0.551411  -0.0009  3.933769  0.0  -0.56212  -0.000666  3.939608  0.0  -0.164709  -0.543831  -0.001092  3.929847  0.0
C  C70  1  0.00405719  0.23235393  0.10219320  1  -0.53065  8e-06  3.694264  0.0  -0.551374  0.000899  3.933737  0.0  -0.562124  0.000665  3.939621  0.0  -0.164727  -0.543795  0.001092  3.929823  0.0
C  C71  1  0.50406677  0.76763340  0.39779978  1  -0.530759  -1.2e-05  3.694222  0.0  -0.5514  -0.0009  3.933875  0.0  -0.562095  -0.000668  3.939696  0.0  -0.164676  -0.543814  -0.001093  3.929948  0.0
N  N72  1  0.80554304  0.68866139  0.02310968  1  -0.39546  0.028147  3.18305  0.015  -0.330551  0.032711  3.454069  0.014  -0.351298  0.028955  3.468878  0.011  -0.320254  -0.315572  0.036236  3.443982  0.017
N  N73  1  0.30555106  0.31134084  0.47690195  1  -0.395548  -0.028151  3.183094  -0.015  -0.33066  -0.03271  3.454076  -0.014  -0.351406  -0.028954  3.468877  -0.011  -0.320372  -0.315679  -0.036234  3.443991  -0.017
N  N74  1  0.19444229  0.31135100  0.97689740  1  -0.395806  0.028129  3.183102  0.015  -0.330788  0.032718  3.454004  0.014  -0.351527  0.028961  3.468799  0.011  -0.32039  -0.315813  0.036241  3.443927  0.017
N  N75  1  0.69445786  0.68864492  0.52309427  1  -0.395725  -0.028143  3.183246  -0.015  -0.330743  -0.032715  3.454337  -0.014  -0.351491  -0.028962  3.469142  -0.011  -0.320382  -0.315765  -0.036238  3.444255  -0.017
O  O76  1  0.73876310  0.95926434  0.96181450  1  -0.886605  0.03674  2.009299  0.022  -0.78935  0.043751  2.279019  0.025  -0.821302  0.039618  2.257078  0.022  -0.369635  -0.765137  0.047461  2.293232  0.028
O  O77  1  0.23878789  0.04072041  0.53818466  1  -0.886686  -0.036745  2.009436  -0.022  -0.789456  -0.043744  2.279187  -0.025  -0.821365  -0.039607  2.25722  -0.022  -0.369646  -0.765252  -0.047455  2.293437  -0.028
O  O78  1  0.26124321  0.04074097  0.03818330  1  -0.886585  0.036741  2.009197  0.022  -0.789379  0.043749  2.27895  0.025  -0.821297  0.039611  2.25699  0.022  -0.369581  -0.765142  0.047459  2.293128  0.028
O  O79  1  0.76122366  0.95927248  0.46181770  1  -0.886633  -0.036739  2.009214  -0.022  -0.789361  -0.043745  2.27893  -0.025  -0.821303  -0.039609  2.256984  -0.022  -0.36961  -0.765164  -0.047457  2.293198  -0.028
O  O80  1  0.75627814  0.84293568  0.76113433  1  -0.888382  -0.032425  1.968299  -0.017  -0.80161  -0.038072  2.249321  -0.019  -0.832601  -0.035024  2.227588  -0.016  -0.381909  -0.778141  -0.040799  2.263642  -0.021
O  O81  1  0.25625800  0.15706365  0.73886006  1  -0.8885  0.032434  1.968127  0.017  -0.801762  0.038077  2.249169  0.019  -0.832745  0.035023  2.22743  0.016  -0.381949  -0.778292  0.040803  2.263494  0.021
O  O82  1  0.24374127  0.15706449  0.23886244  1  -0.888542  -0.032435  1.968317  -0.017  -0.801791  -0.038075  2.249346  -0.019  -0.83276  -0.035025  2.227586  -0.016  -0.381946  -0.778322  -0.040802  2.263671  -0.021
O  O83  1  0.74374962  0.84293548  0.26113728  1  -0.888506  0.032434  1.968125  0.017  -0.801698  0.038073  2.249085  0.019  -0.832669  0.035021  2.227323  0.016  -0.381958  -0.77823  0.040801  2.263412  0.021
O  O84  1  0.99308301  0.01265575  0.84633167  1  -0.901369  0.03855  2.053932  0.022  -0.800872  0.04711  2.328714  0.026  -0.832604  0.042643  2.305703  0.023  -0.369485  -0.777381  0.051276  2.343601  0.03
O  O85  1  0.49310328  0.98735799  0.65369018  1  -0.901486  -0.038555  2.053921  -0.022  -0.800928  -0.047107  2.328712  -0.026  -0.832662  -0.042638  2.305693  -0.023  -0.369434  -0.77743  -0.051274  2.343594  -0.03
O  O86  1  0.00692068  0.98734952  0.15366926  1  -0.901474  0.038554  2.053709  0.022  -0.801074  0.047117  2.32857  0.026  -0.832825  0.042649  2.305565  0.023  -0.369509  -0.777575  0.051283  2.343452  0.03
O  O87  1  0.50690958  0.01263897  0.34631536  1  -0.901441  -0.038545  2.054015  -0.022  -0.800965  -0.04711  2.328857  -0.026  -0.832708  -0.042638  2.305851  -0.023  -0.369425  -0.777468  -0.051277  2.343744  -0.03
O  O88  1  0.45810012  0.85751304  0.10552214  1  -0.820874  0.026352  1.856734  0.016  -0.763827  0.035016  2.057273  0.022  -0.785617  0.031481  2.028333  0.019  -0.563168  -0.747251  0.0383  2.077705  0.025
O  O89  1  0.95810252  0.14248815  0.39447945  1  -0.820906  -0.026358  1.85666  -0.016  -0.763784  -0.035017  2.057337  -0.022  -0.785571  -0.031479  2.028379  -0.019  -0.56309  -0.747203  -0.0383  2.077777  -0.025
O  O90  1  0.54190094  0.14249023  0.89447447  1  -0.8209  0.026341  1.85672  0.016  -0.763954  0.035018  2.057238  0.022  -0.785725  0.031483  2.028308  0.019  -0.5632  -0.747372  0.038301  2.077666  0.025
O  O91  1  0.04190903  0.85750889  0.60552060  1  -0.820772  -0.026343  1.856769  -0.016  -0.763747  -0.035013  2.0573  -0.022  -0.785537  -0.031478  2.028351  -0.019  -0.563091  -0.747164  -0.038296  2.077732  -0.025
O  O92  1  0.63882573  0.12534504  0.19704017  1  -0.825293  0.022364  1.838123  0.013  -0.76944  0.030717  2.029836  0.019  -0.790509  0.02789  1.999933  0.017  -0.566287  -0.753367  0.033255  2.0501  0.021
O  O93  1  0.13882240  0.87465437  0.30295550  1  -0.825262  -0.022362  1.838105  -0.013  -0.769418  -0.030716  2.029833  -0.019  -0.790488  -0.027888  1.999929  -0.017  -0.566278  -0.753341  -0.033253  2.050095  -0.021
O  O94  1  0.36118058  0.87465300  0.80296166  1  -0.825291  0.022357  1.838059  0.013  -0.769427  0.030715  2.029762  0.019  -0.790494  0.027887  1.999888  0.017  -0.566286  -0.753356  0.033253  2.050024  0.021
O  O95  1  0.86119177  0.12534581  0.69704049  1  -0.825113  -0.022349  1.838212  -0.013  -0.769277  -0.030714  2.029941  -0.019  -0.790339  -0.027886  2.00005  -0.017  -0.566248  -0.753201  -0.033251  2.050204  -0.021
