# generated using pymatgen
data_AlH8C17Br2O7
_symmetry_space_group_name_H-M   'P 1'
_cell_length_a   6.65007462
_cell_length_b   23.24153273
_cell_length_c   26.36634030
_cell_angle_alpha   101.92010864
_cell_angle_beta   89.99614236
_cell_angle_gamma   90.00188464
_symmetry_Int_Tables_number   1
_chemical_formula_structural   AlH8C17Br2O7
_chemical_formula_sum   'Al4 H32 C68 Br8 O28'
_cell_volume   3987.25311079
_cell_formula_units_Z   4
loop_
 _symmetry_equiv_pos_site_id
 _symmetry_equiv_pos_as_xyz
  1  'x, y, z'
loop_
 _atom_site_type_symbol
 _atom_site_label
 _atom_site_symmetry_multiplicity
 _atom_site_fract_x
 _atom_site_fract_y
 _atom_site_fract_z
 _atom_site_occupancy
 _atom_site_pbe_bader_charge
 _atom_site_pbe_bader_spin_density
 _atom_site_pbe_cm5_charge
 _atom_site_pbe_ddec_charge
 _atom_site_pbe_ddec_spin_density
 _atom_site_pbe_ddec_sum_bond_order
 _atom_site_pbe_magmom
Al  Al0  1  0.18297832  0.24895268  0.75220037  1  2.501059  0  0.400547  1.643376  0  2.581278  0
Al  Al1  1  0.81698525  0.75104699  0.24780315  1  2.500913  0  0.400682  1.643481  0  2.581127  0
Al  Al2  1  0.68297939  0.25104561  0.74779644  1  2.501083  0  0.400721  1.643632  0  2.581079  0
Al  Al3  1  0.31698268  0.74895763  0.25220562  1  2.50124  0  0.400775  1.64382  0  2.580631  0
H  H4  1  0.72618598  0.60388314  0.43795125  1  0.050743  0  0.102104  0.114573  0  1.013712  0
H  H5  1  0.27385728  0.39605313  0.56203079  1  0.05134  0  0.10207  0.114557  0  1.013819  0
H  H6  1  0.22618097  0.89613787  0.06209300  1  0.051219  0  0.102173  0.114607  0  1.013755  0
H  H7  1  0.77384576  0.10389816  0.93791982  1  0.050545  0  0.102144  0.114499  0  1.013974  0
H  H8  1  0.34268377  0.55447365  0.40180203  1  0.062062  0  0.093411  0.102025  0  1.02491  0
H  H9  1  0.65738356  0.44550112  0.59816429  1  0.062107  0  0.093365  0.101947  0  1.025125  0
H  H10  1  0.84267757  0.94555672  0.09821150  1  0.061896  0  0.093331  0.101881  0  1.024905  0
H  H11  1  0.15735366  0.05445984  0.90181130  1  0.061799  0  0.093401  0.101958  0  1.025019  0
H  H12  1  0.34923804  0.62243424  0.33987974  1  0.108225  0  0.108459  0.109616  0  1.010498  0
H  H13  1  0.65076011  0.37755607  0.66009927  1  0.108269  0  0.108408  0.109683  0  1.010345  0
H  H14  1  0.84924345  0.87760772  0.16014165  1  0.103588  0  0.108368  0.109509  0  1.010445  0
H  H15  1  0.15074718  0.12240566  0.83988031  1  0.10808  0  0.108358  0.109527  0  1.010392  0
H  H16  1  0.08460065  0.39422625  0.47750750  1  0.111848  0  0.107135  0.123254  0  0.992457  0
H  H17  1  0.91553585  0.60573674  0.52247052  1  0.111431  0  0.10717  0.12338  0  0.992251  0
H  H18  1  0.58450180  0.10577208  0.02246442  1  0.111035  0  0.107133  0.123127  0  0.992535  0
H  H19  1  0.41558959  0.89424571  0.97754761  1  0.111465  0  0.107129  0.123323  0  0.992345  0
H  H20  1  0.80926839  0.54271852  0.93706706  1  0.136388  0  0.116491  0.137634  0  0.955487  0
H  H21  1  0.19069819  0.45729590  0.06292869  1  0.136548  0  0.116542  0.137585  0  0.955604  0
H  H22  1  0.30927147  0.95728038  0.56293552  1  0.136321  0  0.116516  0.1377  0  0.955538  0
H  H23  1  0.69070262  0.04271713  0.43706796  1  0.136145  0  0.11651  0.137594  0  0.955518  0
H  H24  1  0.59571035  0.67022099  0.39842196  1  0.603352  0  0.334793  0.358587  0  0.881904  0
H  H25  1  0.40425472  0.32971167  0.60156348  1  0.601742  0  0.334976  0.358878  0  0.881609  0
H  H26  1  0.09566554  0.82983494  0.10165965  1  0.603627  0  0.334778  0.35856  0  0.881846  0
H  H27  1  0.90431757  0.17021273  0.89835536  1  0.603739  0  0.334962  0.359017  0  0.881436  0
H  H28  1  0.33981920  0.59349641  0.98649628  1  0.614164  0  0.303636  0.334903  0  0.953886  0
H  H29  1  0.66015489  0.40651703  0.01350100  1  0.61388  0  0.303618  0.33496  0  0.953894  0
H  H30  1  0.83983877  0.90652045  0.51349808  1  0.613786  0  0.303485  0.334799  0  0.954092  0
H  H31  1  0.16013532  0.09347777  0.48650464  1  0.613752  0  0.303479  0.334861  0  0.954209  0
H  H32  1  0.42248215  0.32013981  0.73771614  1  0.623481  0  0.356196  0.434912  0  0.849658  0
H  H33  1  0.57747390  0.67985762  0.26227653  1  0.623147  0  0.356132  0.434879  0  0.84969  0
H  H34  1  0.92245364  0.17987727  0.76231092  1  0.623657  0  0.356212  0.43486  0  0.84955  0
H  H35  1  0.07750391  0.82012607  0.23769577  1  0.623527  0  0.356224  0.434848  0  0.8497  0
C  C36  1  0.42952698  0.17199561  0.67306493  1  1.711092  0  0.269733  0.706086  0  4.177758  0
C  C37  1  0.57043358  0.82800174  0.32693777  1  1.710138  0  0.269951  0.706272  0  4.178488  0
C  C38  1  0.92950037  0.32800442  0.82693347  1  1.711529  0  0.269717  0.705855  0  4.177984  0
C  C39  1  0.07047071  0.67199905  0.17306552  1  1.710709  0  0.269604  0.705944  0  4.178051  0
C  C40  1  0.44039147  0.18791377  0.81343541  1  1.586195  0  0.272388  0.666252  0  4.08324  0
C  C41  1  0.55957510  0.81210536  0.18657896  1  1.585881  0  0.271933  0.666008  0  4.083819  0
C  C42  1  0.94043413  0.31207069  0.68655165  1  1.585799  0  0.272264  0.665868  0  4.083627  0
C  C43  1  0.05953093  0.68792127  0.31344784  1  1.585048  0  0.272279  0.666131  0  4.083072  0
C  C44  1  0.86744338  0.64570375  0.38146768  1  0.499667  0  0.095461  0.318403  0  4.047237  0
C  C45  1  0.13254725  0.35425876  0.61852267  1  0.499622  0  0.095538  0.318564  0  4.046716  0
C  C46  1  0.36743168  0.85433800  0.11858734  1  0.500275  0  0.095389  0.31821  0  4.047274  0
C  C47  1  0.63256196  0.14569250  0.88142999  1  0.499861  0  0.095421  0.31836  0  4.047296  0
C  C48  1  0.86486550  0.60800589  0.41669503  1  -0.006044  0  -0.109802  -0.287315  0  3.97153  0
C  C49  1  0.13515822  0.39194341  0.58328345  1  -0.006827  0  -0.109856  -0.287423  0  3.971575  0
C  C50  1  0.36486225  0.89201590  0.08334261  1  -0.00724  0  -0.109967  -0.287479  0  3.971713  0
C  C51  1  0.63514943  0.10801023  0.91667231  1  -0.005894  0  -0.110067  -0.287548  0  3.972066  0
C  C52  1  0.03276528  0.57454846  0.42417321  1  -0.01887  0  -0.006891  0.115668  0  4.031203  0
C  C53  1  0.96729754  0.42541090  0.57580396  1  -0.019213  0  -0.007067  0.115688  0  4.031052  0
C  C54  1  0.53276241  0.92546820  0.07584613  1  -0.018183  0  -0.006777  0.115745  0  4.031302  0
C  C55  1  0.46726582  0.07455420  0.92416948  1  -0.018367  0  -0.006827  0.115765  0  4.031216  0
C  C56  1  0.21005727  0.58008148  0.39647287  1  -0.005949  0  -0.113639  -0.182456  0  4.042465  0
C  C57  1  0.78999051  0.41989167  0.60350229  1  -0.004531  0  -0.113623  -0.182319  0  4.042803  0
C  C58  1  0.71005441  0.91994452  0.10354208  1  -0.007064  0  -0.113659  -0.182327  0  4.042405  0
C  C59  1  0.28996780  0.08007285  0.89647419  1  -0.006321  0  -0.113766  -0.182628  0  4.042714  0
C  C60  1  0.21381550  0.61792312  0.36204986  1  -0.048137  0  -0.08497  -0.072905  0  4.01855  0
C  C61  1  0.78619619  0.38206115  0.63793326  1  -0.048712  0  -0.084859  -0.073144  0  4.018924  0
C  C62  1  0.71382091  0.88211383  0.13797414  1  -0.043871  0  -0.084698  -0.072568  0  4.018061  0
C  C63  1  0.28617724  0.11790883  0.86204687  1  -0.04716  0  -0.084696  -0.072414  0  4.018134  0
C  C64  1  0.04505341  0.65081682  0.35315055  1  -0.010014  0  -0.023733  -0.155579  0  3.918143  0
C  C65  1  0.95493421  0.34916159  0.64684170  1  -0.010762  0  -0.023734  -0.155456  0  3.918493  0
C  C66  1  0.54507700  0.84921755  0.14688517  1  -0.009827  0  -0.0237  -0.155404  0  3.918149  0
C  C67  1  0.45491513  0.15080887  0.85313323  1  -0.01131  0  -0.023725  -0.155489  0  3.918289  0
C  C68  1  0.06887034  0.47522379  0.45054139  1  -0.103556  0  -0.017032  0.067263  0  3.947805  0
C  C69  1  0.93127668  0.52474073  0.54943782  1  -0.107464  0  -0.017099  0.067551  0  3.947184  0
C  C70  1  0.56881741  0.02478324  0.04944836  1  -0.105525  0  -0.01714  0.066863  0  3.948157  0
C  C71  1  0.43123036  0.97523679  0.95056411  1  -0.105286  0  -0.017063  0.067202  0  3.94835  0
C  C72  1  0.04966853  0.44099273  0.48781912  1  -0.032251  0  -0.094487  -0.172386  0  3.973257  0
C  C73  1  0.95046797  0.55897003  0.51216198  1  -0.037259  0  -0.094591  -0.172868  0  3.973301  0
C  C74  1  0.54958959  0.05900293  0.01216646  1  -0.028359  0  -0.09438  -0.171823  0  3.973238  0
C  C75  1  0.45046570  0.94101683  0.98784677  1  -0.037515  0  -0.094465  -0.172548  0  3.973367  0
C  C76  1  0.98043959  0.46456687  0.53819230  1  0.045858  0  -0.008838  0.036119  0  3.976414  0
C  C77  1  0.01968788  0.53539471  0.46178723  1  0.052072  0  -0.009158  0.036258  0  3.977315  0
C  C78  1  0.48037309  0.03541200  0.96179511  1  0.044774  0  -0.009211  0.035867  0  3.977367  0
C  C79  1  0.51967168  0.96460827  0.03821852  1  0.051472  0  -0.009158  0.036264  0  3.977045  0
C  C80  1  0.89444033  0.52421588  0.96528875  1  -0.055017  0  -0.074662  -0.158528  0  3.642991  0
C  C81  1  0.10553075  0.47579787  0.03470583  1  -0.054527  0  -0.074718  -0.158458  0  3.642884  0
C  C82  1  0.39444347  0.97578587  0.53471127  1  -0.054687  0  -0.074681  -0.158569  0  3.643066  0
C  C83  1  0.60553212  0.02421199  0.46529183  1  -0.054377  0  -0.074632  -0.158381  0  3.642975  0
C  C84  1  0.10993646  0.54362786  0.98514509  1  0.632385  0  0.088845  0.255108  0  3.769532  0
C  C85  1  0.89003011  0.45638711  0.01484913  1  0.631946  0  0.088664  0.254883  0  3.769706  0
C  C86  1  0.60994621  0.95638064  0.51485033  1  0.632315  0  0.088686  0.25503  0  3.769421  0
C  C87  1  0.39002638  0.04361781  0.48515355  1  0.631831  0  0.088714  0.255055  0  3.769588  0
C  C88  1  0.07554764  0.62681743  0.12634189  1  0.008382  0  -0.035686  -0.17541  0  3.93972  0
C  C89  1  0.92443096  0.37318388  0.87365704  1  0.007619  0  -0.035518  -0.175156  0  3.939323  0
C  C90  1  0.57551593  0.87318766  0.37365908  1  0.007459  0  -0.035603  -0.1753  0  3.939352  0
C  C91  1  0.42444914  0.12681653  0.62634338  1  0.007522  0  -0.035717  -0.17548  0  3.939425  0
C  C92  1  0.82618107  0.52327906  0.02162561  1  -0.009722  0  -0.015806  0.008763  0  3.63612  0
C  C93  1  0.17379001  0.47673555  0.97836899  1  -0.010703  0  -0.015653  0.00922  0  3.635196  0
C  C94  1  0.32618815  0.97672379  0.47837833  1  -0.009955  0  -0.015789  0.008704  0  3.636191  0
C  C95  1  0.67378444  0.02327475  0.52162594  1  -0.010263  0  -0.015815  0.008806  0  3.635766  0
C  C96  1  0.04218371  0.54273385  0.04359779  1  0.107653  0  -0.00879  0.035053  0  3.83784  0
C  C97  1  0.95778888  0.45727879  0.95639561  1  0.10728  0  -0.008769  0.035231  0  3.837166  0
C  C98  1  0.54219640  0.95727587  0.45640001  1  0.106885  0  -0.00878  0.035269  0  3.837419  0
C  C99  1  0.45778371  0.04272397  0.54360429  1  0.107377  0  -0.008703  0.035264  0  3.83722  0
C  C100  1  0.07418328  0.58704058  0.08814996  1  -0.311445  0  -0.043834  -0.038979  0  4.114564  0
C  C101  1  0.92579833  0.41296643  0.91184948  1  -0.310159  0  -0.043988  -0.039252  0  4.114191  0
C  C102  1  0.57419010  0.91296713  0.41184917  1  -0.309882  0  -0.043818  -0.039072  0  4.114197  0
C  C103  1  0.42578850  0.08703341  0.58815438  1  -0.310205  0  -0.043851  -0.03904  0  4.114124  0
Br  Br104  1  0.15071777  0.43602750  0.38291625  1  -0.062076  0  0.019048  -0.07273  0  1.352485  0
Br  Br105  1  0.84940068  0.56393808  0.61706183  1  -0.061965  0  0.019148  -0.072644  0  1.352369  0
Br  Br106  1  0.65068244  0.06400504  0.11706418  1  -0.062286  0  0.019052  -0.072682  0  1.352494  0
Br  Br107  1  0.34937285  0.93602756  0.88294664  1  -0.062532  0  0.019122  -0.072562  0  1.352538  0
Br  Br108  1  0.41019262  0.44070525  0.94415739  1  -0.074536  0  0.043782  -0.057736  0  1.477737  0
Br  Br109  1  0.58979501  0.55931729  0.05583392  1  -0.074673  0  0.043962  -0.057436  0  1.477875  0
Br  Br110  1  0.91015848  0.05932100  0.55582920  1  -0.074473  0  0.043947  -0.057473  0  1.477974  0
Br  Br111  1  0.08982313  0.94067729  0.44417391  1  -0.074593  0  0.044008  -0.057376  0  1.478059  0
O  O112  1  0.60355823  0.20207460  0.79429508  1  -1.249956  0  -0.227477  -0.581408  0  2.381076  0
O  O113  1  0.39640383  0.79794354  0.20571657  1  -1.249637  0  -0.22735  -0.581257  0  2.381176  0
O  O114  1  0.10360577  0.29790571  0.70568071  1  -1.24979  0  -0.227477  -0.581061  0  2.380932  0
O  O115  1  0.89635479  0.70209090  0.29432467  1  -1.249606  0  -0.227439  -0.581018  0  2.380806  0
O  O116  1  0.26080829  0.18737142  0.69428739  1  -1.238289  0  -0.230148  -0.580422  0  2.294593  0
O  O117  1  0.73914775  0.81262522  0.30571607  1  -1.237926  0  -0.230383  -0.580708  0  2.29519  0
O  O118  1  0.76077473  0.31261767  0.80572601  1  -1.238439  0  -0.230223  -0.580316  0  2.294527  0
O  O119  1  0.23919636  0.68739388  0.19427045  1  -1.238144  0  -0.230232  -0.580428  0  2.294794  0
O  O120  1  0.26463343  0.20157436  0.80037376  1  -1.259746  0  -0.236015  -0.594891  0  2.320195  0
O  O121  1  0.73532713  0.79843122  0.19963336  1  -1.259954  0  -0.235842  -0.59476  0  2.320214  0
O  O122  1  0.76467282  0.29842543  0.69963287  1  -1.259799  0  -0.23594  -0.594755  0  2.320468  0
O  O123  1  0.23528774  0.70156651  0.30036239  1  -1.259587  0  -0.235967  -0.594973  0  2.319967  0
O  O124  1  0.10308346  0.30904374  0.81140029  1  -1.233258  0  -0.229191  -0.57772  0  2.28233  0
O  O125  1  0.89688161  0.69095369  0.18860280  1  -1.232828  0  -0.229086  -0.577694  0  2.282226  0
O  O126  1  0.60310912  0.19096765  0.68858432  1  -1.233006  0  -0.229247  -0.577702  0  2.282166  0
O  O127  1  0.39684542  0.80903085  0.31142188  1  -1.232457  0  -0.229267  -0.577683  0  2.282458  0
O  O128  1  0.43141812  0.28533150  0.75248347  1  -1.424166  0  -0.447643  -0.99259  0  2.201179  0
O  O129  1  0.56854244  0.71467075  0.24751587  1  -1.423766  0  -0.447657  -0.992686  0  2.201264  0
O  O130  1  0.93141521  0.21466746  0.74751796  1  -1.424215  0  -0.447741  -0.992488  0  2.200795  0
O  O131  1  0.06854384  0.78533351  0.25248559  1  -1.424205  0  -0.447746  -0.992579  0  2.200948  0
O  O132  1  0.70115161  0.67751597  0.37477124  1  -1.106745  0  -0.330463  -0.413619  0  2.299546  0
O  O133  1  0.29881345  0.32243559  0.62522234  1  -1.105101  0  -0.33064  -0.413942  0  2.299317  0
O  O134  1  0.20109409  0.82255462  0.12531622  1  -1.106721  0  -0.330341  -0.413584  0  2.299564  0
O  O135  1  0.79887248  0.17748806  0.87470177  1  -1.107674  0  -0.330501  -0.413979  0  2.299121  0
O  O136  1  0.20929323  0.58791929  0.96879461  1  -1.150435  0  -0.372769  -0.453581  0  2.261805  0
O  O137  1  0.79068236  0.41209375  0.03120073  1  -1.150414  0  -0.372643  -0.453578  0  2.261767  0
O  O138  1  0.70929999  0.91208867  0.53119794  1  -1.150163  0  -0.372583  -0.453549  0  2.261716  0
O  O139  1  0.29067711  0.08790970  0.46880556  1  -1.150242  0  -0.372586  -0.453626  0  2.26185  0
