# generated using pymatgen
data_CaH11C11NO7
_symmetry_space_group_name_H-M   'P 1'
_cell_length_a   8.30957426
_cell_length_b   8.70643515
_cell_length_c   9.82625947
_cell_angle_alpha   67.20406525
_cell_angle_beta   81.42815053
_cell_angle_gamma   74.27504106
_symmetry_Int_Tables_number   1
_chemical_formula_structural   CaH11C11NO7
_chemical_formula_sum   'Ca2 H22 C22 N2 O14'
_cell_volume   630.06482923
_cell_formula_units_Z   2
loop_
 _symmetry_equiv_pos_site_id
 _symmetry_equiv_pos_as_xyz
  1  'x, y, z'
loop_
 _atom_site_type_symbol
 _atom_site_label
 _atom_site_symmetry_multiplicity
 _atom_site_fract_x
 _atom_site_fract_y
 _atom_site_fract_z
 _atom_site_occupancy
 _atom_site_hle17_bader_spin_density
 _atom_site_hle17_ddec_charge
 _atom_site_hle17_ddec_spin_density
 _atom_site_hle17_ddec_sum_bond_order
 _atom_site_hle17_magmom
 _atom_site_hse06_10hf_bader_spin_density
 _atom_site_hse06_10hf_ddec_charge
 _atom_site_hse06_10hf_ddec_spin_density
 _atom_site_hse06_10hf_ddec_sum_bond_order
 _atom_site_hse06_10hf_magmom
 _atom_site_hse06_bader_spin_density
 _atom_site_hse06_ddec_charge
 _atom_site_hse06_ddec_spin_density
 _atom_site_hse06_ddec_sum_bond_order
 _atom_site_hse06_magmom
 _atom_site_pbe_bader_spin_density
 _atom_site_pbe_cm5_charge
 _atom_site_pbe_ddec_charge
 _atom_site_pbe_ddec_spin_density
 _atom_site_pbe_ddec_sum_bond_order
 _atom_site_pbe_magmom
Ca  Ca0  1  0.67050027  0.63902740  0.95988000  1  0  1.567058  0  1.122551  0  0  1.426582  0  1.493187  0  0  1.472025  0  1.444063  0  0  0.905494  1.393013  0  1.527273  0
Ca  Ca1  1  0.32949752  0.36096846  0.04012250  1  0  1.567069  0  1.12253  0  0  1.426603  0  1.493138  0  0  1.472056  0  1.444004  0  0  0.905491  1.39304  0  1.527207  0
H  H2  1  0.50768581  0.68537923  0.58351235  1  0  0.048171  0  0.952018  0  0  0.057402  0  1.021878  0  0  0.059177  0  1.01667  0  0  0.127912  0.055828  0  1.025776  0
H  H3  1  0.49231315  0.31462180  0.41648838  1  0  0.048153  0  0.952037  0  0  0.057383  0  1.021913  0  0  0.059158  0  1.016702  0  0  0.127904  0.055806  0  1.025813  0
H  H4  1  0.31707119  0.03761655  0.70717993  1  0  0.117685  0  0.929569  0  0  0.137412  0  0.98796  0  0  0.139253  0  0.986524  0  0  0.115393  0.135929  0  0.989251  0
H  H5  1  0.68292961  0.96238715  0.29281773  1  0  0.11769  0  0.929504  0  0  0.1374  0  0.987926  0  0  0.139239  0  0.986494  0  0  0.115395  0.135918  0  0.98922  0
H  H6  1  0.11828754  0.00298081  0.69503609  1  0  0.095587  0  0.942042  0  0  0.118421  0  1.002841  0  0  0.117731  0  1.004882  0  0  0.102781  0.118767  0  1.001582  0
H  H7  1  0.88171205  0.99702287  0.30496170  1  0  0.095567  0  0.9421  0  0  0.118411  0  1.002893  0  0  0.117724  0  1.004935  0  0  0.102767  0.118772  0  1.001613  0
H  H8  1  0.20642919  0.15270739  0.54050837  1  0  0.094111  0  0.97718  0  0  0.114362  0  1.043286  0  0  0.113885  0  1.045077  0  0  0.102234  0.114653  0  1.041999  0
H  H9  1  0.79357164  0.84729634  0.45948825  1  0  0.094003  0  0.977172  0  0  0.114263  0  1.043283  0  0  0.113786  0  1.045074  0  0  0.102188  0.114557  0  1.041996  0
H  H10  1  0.76134820  0.56544889  0.66880109  1  0  0.110894  0  0.980844  0  0  0.117233  0  1.050647  0  0  0.121385  0  1.047407  0  0  0.114814  0.114099  0  1.053312  0
H  H11  1  0.23865194  0.43455213  0.33120054  1  0  0.110923  0  0.980799  0  0  0.117258  0  1.050616  0  0  0.121413  0  1.047366  0  0  0.114834  0.114123  0  1.053278  0
H  H12  1  0.32701678  0.78322958  0.42206928  1  0  0.116606  0  0.935806  0  0  0.13559  0  0.998189  0  0  0.136811  0  0.997572  0  0  0.113313  0.134553  0  0.998944  0
H  H13  1  0.67298616  0.21677547  0.57792670  1  0  0.116614  0  0.935806  0  0  0.135617  0  0.998176  0  0  0.136838  0  0.997557  0  0  0.113323  0.134582  0  0.998935  0
H  H14  1  0.23735013  0.00875213  0.36114294  1  0  0.10915  0  0.949265  0  0  0.125817  0  1.016847  0  0  0.127583  0  1.015629  0  0  0.109706  0.124447  0  1.017876  0
H  H15  1  0.76265368  0.99125419  0.63885357  1  0  0.109158  0  0.949269  0  0  0.125837  0  1.016845  0  0  0.127604  0  1.015623  0  0  0.109721  0.124467  0  1.017877  0
H  H16  1  0.12191004  0.86116520  0.48919564  1  0  0.091947  0  0.941938  0  0  0.112807  0  1.005924  0  0  0.112607  0  1.007358  0  0  0.100278  0.112856  0  1.005106  0
H  H17  1  0.87809053  0.13883989  0.51079855  1  0  0.092039  0  0.941943  0  0  0.112949  0  1.005858  0  0  0.11275  0  1.007291  0  0  0.100326  0.112997  0  1.00504  0
H  H18  1  0.31551717  0.44771864  0.67521438  1  0  0.380241  0  0.905825  0  0  0.353378  0  0.980761  0  0  0.365525  0  0.967281  0  0  0.303908  0.34482  0  0.990166  0
H  H19  1  0.68447930  0.55228747  0.32478602  1  0  0.380311  0  0.905656  0  0  0.353459  0  0.980594  0  0  0.365609  0  0.967103  0  0  0.303928  0.344897  0  0.989997  0
H  H20  1  0.35838312  0.98916035  0.08485127  1  0  0.394496  0  0.895466  0  0  0.364076  0  0.972231  0  0  0.377029  0  0.958486  0  0  0.310084  0.354962  0  0.981785  0
H  H21  1  0.64161744  0.01083431  0.91515030  1  0  0.394463  0  0.895522  0  0  0.364078  0  0.972223  0  0  0.377033  0  0.958475  0  0  0.310097  0.354965  0  0.981779  0
H  H22  1  0.04779017  0.71831012  0.97201354  1  0  0.131525  0  0.968176  0  0  0.135096  0  1.039001  0  0  0.140021  0  1.03475  0  0  0.12439  0.131538  0  1.042101  0
H  H23  1  0.95221108  0.28168208  0.02798568  1  0  0.131518  0  0.968278  0  0  0.135106  0  1.039062  0  0  0.140029  0  1.034813  0  0  0.124382  0.131554  0  1.042148  0
C  C24  1  0.05385868  0.53226294  0.77126522  1  0  0.706608  0  3.873247  0  0  0.655461  0  4.167608  0  0  0.69119  0  4.156504  0  0  0.231476  0.631554  0  4.173867  0
C  C25  1  0.94613938  0.46773679  0.22873602  1  0  0.706645  0  3.873233  0  0  0.655481  0  4.167591  0  0  0.691206  0  4.156492  0  0  0.231482  0.631576  0  4.17384  0
C  C26  1  0.45892262  0.78129397  0.63624263  1  0  0.414742  0  3.793559  0  0  0.339345  0  4.081909  0  0  0.368701  0  4.080767  0  0  0.190718  0.319665  0  4.082167  0
C  C27  1  0.54107394  0.21870705  0.36375734  1  0  0.414776  0  3.793461  0  0  0.33933  0  4.081812  0  0  0.368686  0  4.080672  0  0  0.190706  0.319647  0  4.082072  0
C  C28  1  0.02797274  0.51192514  0.63282967  1  0  -0.188479  0  3.784946  0  0  -0.172632  0  4.027561  0  0  -0.180833  0  4.047671  0  0  -0.032633  -0.167269  0  4.013849  0
C  C29  1  0.97202742  0.48808109  0.36716827  1  0  -0.188497  0  3.785133  0  0  -0.17261  0  4.027689  0  0  -0.180812  0  4.047802  0  0  -0.032669  -0.167244  0  4.013961  0
C  C30  1  0.23549600  0.03007965  0.63336795  1  0  -0.169806  0  3.642762  0  0  -0.269995  0  3.884618  0  0  -0.266227  0  3.895586  0  0  -0.13483  -0.272267  0  3.877235  0
C  C31  1  0.76450328  0.96992532  0.36662946  1  0  -0.169656  0  3.642721  0  0  -0.269882  0  3.88459  0  0  -0.266116  0  3.895561  0  0  -0.134773  -0.272175  0  3.877193  0
C  C32  1  0.86515515  0.53609016  0.59420959  1  0  -0.178837  0  3.747979  0  0  -0.2104  0  4.004991  0  0  -0.212066  0  4.021969  0  0  -0.099958  -0.209133  0  3.993781  0
C  C33  1  0.13484227  0.46391731  0.40578824  1  0  -0.17888  0  3.748117  0  0  -0.210455  0  4.005136  0  0  -0.21212  0  4.022119  0  0  -0.099976  -0.209185  0  3.993916  0
C  C34  1  0.24723734  0.88681974  0.45549619  1  0  -0.177197  0  3.64672  0  0  -0.280051  0  3.897689  0  0  -0.276779  0  3.907902  0  0  -0.130303  -0.28206  0  3.891128  0
C  C35  1  0.75276557  0.11318528  0.54450083  1  0  -0.177301  0  3.646826  0  0  -0.280256  0  3.897762  0  0  -0.276982  0  3.907974  0  0  -0.13036  -0.282262  0  3.891203  0
C  C36  1  0.16566676  0.47315101  0.53781665  1  0  0.295365  0  3.838173  0  0  0.280455  0  4.105465  0  0  0.290672  0  4.122462  0  0  0.073873  0.273439  0  4.0939  0
C  C37  1  0.83433342  0.52685526  0.46218025  1  0  0.295267  0  3.838245  0  0  0.280382  0  4.105471  0  0  0.290598  0  4.122469  0  0  0.073845  0.273366  0  4.093903  0
C  C38  1  0.32581013  0.76577052  0.05012288  1  0  0.679148  0  3.887654  0  0  0.630362  0  4.175866  0  0  0.665913  0  4.165888  0  0  0.222029  0.605881  0  4.182672  0
C  C39  1  0.67419100  0.23422151  0.94988150  1  0  0.678977  0  3.887722  0  0  0.630254  0  4.175896  0  0  0.665802  0  4.165919  0  0  0.221923  0.60578  0  4.182697  0
C  C40  1  0.15695281  0.88396317  0.02776141  1  0  -0.175667  0  3.762804  0  0  -0.159701  0  4.006331  0  0  -0.168396  0  4.026837  0  0  -0.025246  -0.154116  0  3.993233  0
C  C41  1  0.84304899  0.11602637  0.97224166  1  0  -0.175574  0  3.76293  0  0  -0.159748  0  4.006549  0  0  -0.168431  0  4.027036  0  0  -0.025249  -0.154166  0  3.993455  0
C  C42  1  0.02680966  0.84061925  0.98574641  1  0  -0.16645  0  3.70749  0  0  -0.200149  0  3.969541  0  0  -0.201847  0  3.986115  0  0  -0.087688  -0.198871  0  3.958488  0
C  C43  1  0.97319062  0.15937155  0.01425642  1  0  -0.166532  0  3.707696  0  0  -0.200184  0  3.969784  0  0  -0.201885  0  3.986356  0  0  -0.087676  -0.198907  0  3.958734  0
C  C44  1  0.12959315  0.04568216  0.04154456  1  0  0.315008  0  3.791874  0  0  0.298337  0  4.05613  0  0  0.309124  0  4.072707  0  0  0.090084  0.290591  0  4.045261  0
C  C45  1  0.87040598  0.95431390  0.95845264  1  0  0.314876  0  3.792041  0  0  0.298305  0  4.056231  0  0  0.30909  0  4.072808  0  0  0.090061  0.29056  0  4.045363  0
N  N46  1  0.32005093  0.89507654  0.57767152  1  0  -0.079871  0  3.498661  0  0  0.023971  0  3.733343  0  0  0.003556  0  3.75828  0  0  -0.277049  0.037707  0  3.71604  0
N  N47  1  0.67995048  0.10492457  0.42232791  1  0  -0.079955  0  3.498683  0  0  0.023985  0  3.733287  0  0  0.00357  0  3.758225  0  0  -0.277067  0.037725  0  3.715983  0
O  O48  1  0.93024162  0.59314754  0.84125483  1  0  -0.692982  0  2.004583  0  0  -0.639949  0  2.265565  0  0  -0.665356  0  2.252216  0  0  -0.369745  -0.622236  0  2.274024  0
O  O49  1  0.06975644  0.40684698  0.15875010  1  0  -0.692988  0  2.0045  0  0  -0.63997  0  2.265518  0  0  -0.665371  0  2.252159  0  0  -0.369728  -0.622251  0  2.273951  0
O  O50  1  0.53139648  0.78175403  0.73947056  1  0  -0.621065  0  2.043474  0  0  -0.565518  0  2.306949  0  0  -0.590951  0  2.297885  0  0  -0.362252  -0.547635  0  2.312623  0
O  O51  1  0.46860069  0.21824440  0.26053119  1  0  -0.62103  0  2.04342  0  0  -0.565478  0  2.306921  0  0  -0.590913  0  2.297857  0  0  -0.362234  -0.547594  0  2.31259  0
O  O52  1  0.20652976  0.48701708  0.81156854  1  0  -0.712791  0  1.965968  0  0  -0.648134  0  2.205129  0  0  -0.675102  0  2.191086  0  0  -0.371233  -0.628745  0  2.213728  0
O  O53  1  0.79346982  0.51298139  0.18843294  1  0  -0.712826  0  1.966025  0  0  -0.648177  0  2.205204  0  0  -0.675144  0  2.191157  0  0  -0.371243  -0.62879  0  2.213799  0
O  O54  1  0.44508674  0.81747462  0.07714094  1  0  -0.657333  0  1.95536  0  0  -0.597413  0  2.175099  0  0  -0.622142  0  2.162902  0  0  -0.331502  -0.580269  0  2.183462  0
O  O55  1  0.55491283  0.18251864  0.92286424  1  0  -0.657245  0  1.95539  0  0  -0.597356  0  2.175095  0  0  -0.622082  0  2.162891  0  0  -0.33139  -0.580223  0  2.183473  0
O  O56  1  0.35545188  0.62117928  0.03694076  1  0  -0.736468  0  2.028824  0  0  -0.674172  0  2.283628  0  0  -0.702552  0  2.272272  0  0  -0.379989  -0.654104  0  2.291005  0
O  O57  1  0.64455257  0.37881410  0.96306286  1  0  -0.736342  0  2.028743  0  0  -0.674044  0  2.283494  0  0  -0.702423  0  2.272137  0  0  -0.379931  -0.653976  0  2.290873  0
O  O58  1  0.32634135  0.44254792  0.57273120  1  0  -0.521422  0  2.105673  0  0  -0.479312  0  2.327259  0  0  -0.498153  0  2.317286  0  0  -0.35849  -0.465643  0  2.333637  0
O  O59  1  0.67365784  0.55746212  0.42726665  1  0  -0.52142  0  2.105594  0  0  -0.479338  0  2.32716  0  0  -0.498179  0  2.317182  0  0  -0.358487  -0.465666  0  2.333536  0
O  O60  1  0.25590002  0.09048503  0.08069379  1  0  -0.589908  0  2.170264  0  0  -0.528639  0  2.403918  0  0  -0.551755  0  2.394735  0  0  -0.377558  -0.511921  0  2.409948  0
O  O61  1  0.74409937  0.90950967  0.91930585  1  0  -0.589871  0  2.170367  0  0  -0.528647  0  2.403977  0  0  -0.551764  0  2.394796  0  0  -0.377604  -0.511928  0  2.410015  0
