# generated using pymatgen
data_AlH8C11(NO3)2
_symmetry_space_group_name_H-M   'P 1'
_cell_length_a   6.72682108
_cell_length_b   11.23316400
_cell_length_c   16.77658362
_cell_angle_alpha   79.74834577
_cell_angle_beta   84.64761610
_cell_angle_gamma   71.59889008
_symmetry_Int_Tables_number   1
_chemical_formula_structural   AlH8C11(NO3)2
_chemical_formula_sum   'Al2 H16 C22 N4 O12'
_cell_volume   1182.74154968
_cell_formula_units_Z   2
loop_
 _symmetry_equiv_pos_site_id
 _symmetry_equiv_pos_as_xyz
  1  'x, y, z'
loop_
 _atom_site_type_symbol
 _atom_site_label
 _atom_site_symmetry_multiplicity
 _atom_site_fract_x
 _atom_site_fract_y
 _atom_site_fract_z
 _atom_site_occupancy
 _atom_site_pbe_bader_charge
 _atom_site_pbe_bader_spin_density
 _atom_site_pbe_cm5_charge
 _atom_site_pbe_ddec_charge
 _atom_site_pbe_ddec_spin_density
 _atom_site_pbe_ddec_sum_bond_order
 _atom_site_pbe_magmom
Al  Al0  1  0.49631368  0.50359667  0.50014384  1  2.504614  0  0.403516  1.63634  0  2.579647  0
Al  Al1  1  0.99526861  0.50456897  0.50074823  1  2.505944  0  0.399002  1.654979  0  2.578552  0
H  H2  1  0.20565544  0.62167305  0.41189565  1  0.627696  0  0.356065  0.434056  0  0.846373  0
H  H3  1  0.80385079  0.35749223  0.56926268  1  0.600141  0  0.35503  0.431746  0  0.849406  0
H  H4  1  0.85735754  0.56754111  0.72501113  1  0.085289  0  0.107959  0.108663  0  1.008783  0
H  H5  1  0.78226490  0.57013418  0.87463788  1  0.098841  0  0.100921  0.107682  0  1.033591  0
H  H6  1  0.44508680  0.45613226  0.90979559  1  0.076631  0  0.108589  0.121582  0  1.001954  0
H  H7  1  0.60785363  0.45173380  0.09995146  1  0.068547  0  0.109351  0.122402  0  1.004182  0
H  H8  1  0.15511973  0.56587997  0.11308164  1  0.080661  0  0.100359  0.107313  0  1.036767  0
H  H9  1  0.07695172  0.56875056  0.26193327  1  0.061329  0  0.102574  0.101631  0  1.022216  0
H  H10  1  0.23225579  0.89408626  0.48881719  1  0.173014  0  0.111669  0.140388  0  1.033122  0
H  H11  1  0.75870438  0.11227964  0.51092857  1  0.16474  0  0.109151  0.138478  0  1.035539  0
H  H12  1  0.59441349  0.46016295  0.69513544  1  0.515841  0  0.307431  0.314384  0  0.981203  0
H  H13  1  0.68204705  0.43094188  0.79384963  1  0.4484  0  0.305739  0.302577  0  0.962843  0
H  H14  1  0.46259338  0.44374380  0.31554091  1  0.479698  0  0.311247  0.318863  0  0.973564  0
H  H15  1  0.40381351  0.41615688  0.22165413  1  0.45986  0  0.312439  0.310991  0  0.945235  0
H  H16  1  0.06064259  0.22625017  0.48251961  1  0.616099  0  0.310974  0.346186  0  0.986654  0
H  H17  1  0.93340421  0.78119068  0.51545216  1  0.631849  0  0.314516  0.352787  0  0.974488  0
C  C18  1  0.62546978  0.73251490  0.50114981  1  1.501315  0  0.268053  0.656023  0  4.060089  0
C  C19  1  0.77379689  0.51191435  0.35404995  1  1.505773  0  0.260043  0.65409  0  4.080229  0
C  C20  1  0.36550683  0.27387082  0.49989067  1  1.489661  0  0.26582  0.654631  0  4.05973  0
C  C21  1  0.21814566  0.49978715  0.64571341  1  1.504087  0  0.263384  0.659108  0  4.077701  0
C  C22  1  0.19078482  0.50541515  0.73312438  1  -0.050229  0  -0.031732  -0.180341  0  3.927529  0
C  C23  1  0.98437853  0.53990100  0.76690444  1  0.034564  0  -0.085375  -0.062556  0  4.038306  0
C  C24  1  0.94155701  0.54142572  0.84881280  1  -0.067363  0  -0.113005  -0.212161  0  4.020921  0
C  C25  1  0.11265453  0.50758613  0.90004441  1  0.320831  0  0.088418  0.199681  0  4.075076  0
C  C26  1  0.31792786  0.47851599  0.86827067  1  0.01966  0  -0.090522  -0.260458  0  3.870931  0
C  C27  1  0.36335910  0.47614296  0.78435208  1  0.497545  0  0.117223  0.324211  0  4.061763  0
C  C28  1  0.71089475  0.47540120  0.13695488  1  -0.023752  0  -0.091874  -0.264614  0  3.876636  0
C  C29  1  0.88633542  0.50499235  0.09948554  1  0.360673  0  0.089586  0.203798  0  4.074542  0
C  C30  1  0.02267492  0.53899876  0.14416281  1  -0.038976  0  -0.114309  -0.213855  0  4.025692  0
C  C31  1  0.97779164  0.54070779  0.22588205  1  0.035551  0  -0.087521  -0.061366  0  4.046075  0
C  C32  1  0.80372623  0.50852081  0.26645632  1  -0.062057  0  -0.034568  -0.18707  0  3.929117  0
C  C33  1  0.66561247  0.47456043  0.22116117  1  0.493784  0  0.120152  0.331493  0  4.062165  0
C  C34  1  0.43037310  0.13564426  0.49892953  1  -0.020288  0  -0.031427  -0.17065  0  4.008074  0
C  C35  1  0.56018633  0.87098012  0.50117812  1  -0.012907  0  -0.028379  -0.166297  0  4.00037  0
C  C36  1  0.28103437  0.07245632  0.49158058  1  0.51846  0  0.082877  0.289624  0  4.060991  0
C  C37  1  0.70996811  0.93421221  0.50794235  1  0.548809  0  0.084153  0.290158  0  4.063199  0
C  C38  1  0.34834844  0.94131572  0.49327071  1  -0.012814  0  -0.095062  -0.190067  0  3.939461  0
C  C39  1  0.64224824  0.06528760  0.50662114  1  0.017559  0  -0.096113  -0.191868  0  3.943668  0
N  N40  1  0.09066786  0.50431877  0.98505914  1  -0.477031  0  -0.144064  -0.126513  0  3.261765  0
N  N41  1  0.91171985  0.50202085  0.01506173  1  -0.472551  0  -0.14702  -0.13325  0  3.262011  0
N  N42  1  0.56628456  0.44272450  0.75599217  1  -1.286843  0  -0.583963  -0.601498  0  3.346619  0
N  N43  1  0.49620686  0.44128195  0.25551550  1  -1.265194  0  -0.581553  -0.601495  0  3.356493  0
O  O44  1  0.49075812  0.67755339  0.49445515  1  -1.254654  0  -0.229172  -0.572101  0  2.327624  0
O  O45  1  0.92269995  0.52510921  0.39052484  1  -1.279593  0  -0.248754  -0.61974  0  2.357766  0
O  O46  1  0.16619647  0.33330163  0.49514162  1  -1.264233  0  -0.240497  -0.618714  0  2.404124  0
O  O47  1  0.39523759  0.50119279  0.61003177  1  -1.265636  0  -0.237972  -0.604561  0  2.3675  0
O  O48  1  0.50199464  0.32797422  0.50587051  1  -1.260012  0  -0.233483  -0.581996  0  2.33399  0
O  O49  1  0.06398398  0.49202800  0.60994925  1  -1.268358  0  -0.243862  -0.607925  0  2.351713  0
O  O50  1  0.82397236  0.67360645  0.50736963  1  -1.263263  0  -0.235867  -0.609661  0  2.416805  0
O  O51  1  0.59974619  0.50251682  0.38965869  1  -1.272174  0  -0.242111  -0.614052  0  2.362419  0
O  O52  1  0.22299886  0.56433148  0.46299901  1  -1.432542  0  -0.448837  -0.993442  0  2.184802  0
O  O53  1  0.76987963  0.44184760  0.53760472  1  -1.403955  0  -0.448737  -0.990365  0  2.177433  0
O  O54  1  0.07399783  0.13527153  0.48244027  1  -1.14045  0  -0.351423  -0.440276  0  2.310545  0
O  O55  1  0.91732027  0.87242540  0.51599099  1  -1.152591  0  -0.349038  -0.436972  0  2.310053  0
