# generated using pymatgen
data_NiH9C4NO6
_symmetry_space_group_name_H-M   'P 1'
_cell_length_a   7.52977092
_cell_length_b   8.78044601
_cell_length_c   11.81938058
_cell_angle_alpha   90.00023659
_cell_angle_beta   90.00003482
_cell_angle_gamma   90.00022654
_symmetry_Int_Tables_number   1
_chemical_formula_structural   NiH9C4NO6
_chemical_formula_sum   'Ni4 H36 C16 N4 O24'
_cell_volume   781.43535620
_cell_formula_units_Z   4
loop_
 _symmetry_equiv_pos_site_id
 _symmetry_equiv_pos_as_xyz
  1  'x, y, z'
loop_
 _atom_site_type_symbol
 _atom_site_label
 _atom_site_symmetry_multiplicity
 _atom_site_fract_x
 _atom_site_fract_y
 _atom_site_fract_z
 _atom_site_occupancy
 _atom_site_hle17_ddec_charge
 _atom_site_hle17_ddec_spin_density
 _atom_site_hle17_ddec_sum_bond_order
 _atom_site_hle17_magmom
 _atom_site_hse06_10hf_ddec_charge
 _atom_site_hse06_10hf_ddec_spin_density
 _atom_site_hse06_10hf_ddec_sum_bond_order
 _atom_site_hse06_10hf_magmom
 _atom_site_hse06_ddec_charge
 _atom_site_hse06_ddec_spin_density
 _atom_site_hse06_ddec_sum_bond_order
 _atom_site_hse06_magmom
 _atom_site_pbe_cm5_charge
 _atom_site_pbe_ddec_charge
 _atom_site_pbe_ddec_spin_density
 _atom_site_pbe_ddec_sum_bond_order
 _atom_site_pbe_magmom
Ni  Ni0  1  0.89823574  0.93171062  0.92407718  1  0.931114  1.803969  1.841564  1.519  0.942431  1.853316  2.228546  1.646  1.032879  1.909844  2.154415  1.729  0.607771  0.86643  1.796923  2.292067  1.571
Ni  Ni1  1  0.10176423  0.56829020  0.42407560  1  0.931194  1.803955  1.84142  1.519  0.942493  1.853325  2.228402  1.646  1.03294  1.909857  2.154277  1.729  0.607819  0.866446  1.79691  2.291941  1.571
Ni  Ni2  1  0.60175773  0.43170820  0.07592527  1  0.931164  -1.803966  1.841486  -1.519  0.942464  -1.853325  2.228456  -1.646  1.032915  -1.909853  2.154327  -1.729  0.6078  0.866438  -1.796913  2.291978  -1.571
Ni  Ni3  1  0.39824093  0.06829258  0.57592378  1  0.931166  -1.803974  1.841527  -1.519  0.942502  -1.853314  2.228493  -1.646  1.032979  -1.909844  2.154324  -1.729  0.607766  0.866464  -1.796925  2.292093  -1.571
H  H4  1  0.12065294  0.93992942  0.75784665  1  0.319086  -0.000666  0.913153  -0.002  0.30946  -5.7e-05  0.969993  -0.001  0.317082  -0.000155  0.965227  -0.001  0.295692  0.303927  4.8e-05  0.973307  0.0
H  H5  1  0.87935088  0.56006368  0.25783862  1  0.319097  -0.000667  0.913064  -0.002  0.309473  -5.7e-05  0.969905  -0.001  0.317093  -0.000155  0.965144  -0.001  0.29567  0.303957  4.8e-05  0.973185  0.0
H  H6  1  0.37934734  0.43993565  0.24216068  1  0.319084  0.000666  0.91306  0.002  0.309461  5.7e-05  0.969899  0.001  0.317079  0.000154  0.965144  0.001  0.29567  0.303921  -4.8e-05  0.973222  0.0
H  H7  1  0.62065811  0.06007058  0.74215249  1  0.319094  0.000665  0.913136  0.002  0.309462  5.7e-05  0.969985  0.001  0.317079  0.000154  0.96523  0.001  0.295671  0.303929  -4.8e-05  0.973301  0.0
H  H8  1  0.19630171  0.80893074  0.84366653  1  0.303762  -3.1e-05  0.867572  -0.001  0.303692  0.000657  0.912691  0.0  0.310019  0.000452  0.909273  0.0  0.306653  0.298629  0.000826  0.915751  0.001
H  H9  1  0.80369421  0.69106396  0.34366142  1  0.303804  -3.2e-05  0.867496  -0.001  0.303724  0.000657  0.912635  0.0  0.310051  0.000451  0.909214  0.0  0.306654  0.298654  0.000826  0.915702  0.001
H  H10  1  0.30369130  0.30893512  0.15633616  1  0.303798  3.1e-05  0.867534  0.001  0.303722  -0.000657  0.912663  0.0  0.310049  -0.000451  0.909244  0.0  0.30665  0.298655  -0.000826  0.915727  -0.001
H  H11  1  0.69630876  0.19107179  0.65633350  1  0.303699  3e-05  0.867619  0.001  0.303623  -0.000658  0.912741  0.0  0.309948  -0.000452  0.909326  0.0  0.306627  0.298561  -0.000827  0.915807  -0.001
H  H12  1  0.06211006  0.70509705  0.66636178  1  0.088423  0.001827  0.936064  0.003  0.093725  0.001044  1.000271  0.002  0.095127  0.000703  0.999775  0.001  0.117369  0.092721  0.001385  1.000821  0.002
H  H13  1  0.93788439  0.79490468  0.16635960  1  0.088474  0.001835  0.93585  0.003  0.093802  0.001045  1.000073  0.002  0.095205  0.000703  0.999578  0.001  0.117393  0.092796  0.001386  1.000622  0.002
H  H14  1  0.43788247  0.20509371  0.33363889  1  0.088464  -0.001836  0.935891  -0.003  0.093767  -0.001045  1.000089  -0.002  0.095168  -0.000703  0.999593  -0.001  0.117413  0.092763  -0.001386  1.000643  -0.002
H  H15  1  0.56212040  0.29490390  0.83363988  1  0.088442  -0.001826  0.936085  -0.003  0.093707  -0.001044  1.000293  -0.002  0.095118  -0.000703  0.999769  -0.001  0.117415  0.092705  -0.001385  1.000842  -0.002
H  H16  1  0.92993680  0.49056408  0.76078366  1  0.12802  0.00011  0.924502  0.0  0.14188  8.2e-05  0.981457  0.0  0.145248  3.4e-05  0.979291  0.0  0.107113  0.13912  0.000127  0.983619  0.0
H  H17  1  0.07005804  0.00943541  0.26078950  1  0.128103  0.000109  0.924522  0.0  0.141942  8.2e-05  0.981487  0.0  0.14531  3.4e-05  0.979313  0.0  0.107106  0.139182  0.000127  0.983652  0.0
H  H18  1  0.57005164  0.99056175  0.23921052  1  0.128116  -0.000113  0.924447  0.0  0.142002  -8.2e-05  0.981389  0.0  0.145384  -3.4e-05  0.979212  0.0  0.107103  0.139235  -0.000127  0.983555  0.0
H  H19  1  0.42993888  0.50943581  0.73921900  1  0.12804  -0.000111  0.924535  0.0  0.141888  -8.2e-05  0.981496  0.0  0.145247  -3.4e-05  0.979333  0.0  0.107099  0.139127  -0.000127  0.983658  0.0
H  H20  1  0.11723097  0.55011913  0.83719283  1  0.115292  1e-06  0.938827  0.0  0.129452  -0.000146  1.000844  0.0  0.132865  -8.8e-05  0.998851  0.0  0.106381  0.126746  -0.000224  1.00272  0.0
H  H21  1  0.88275698  0.94987211  0.33719874  1  0.115331  0.0  0.938818  0.0  0.129443  -0.000146  1.000918  0.0  0.132852  -8.8e-05  0.99893  0.0  0.106401  0.126742  -0.000224  1.002787  0.0
H  H22  1  0.38275287  0.05012609  0.16280142  1  0.115353  -7e-06  0.938763  0.0  0.129495  0.000146  1.00085  0.0  0.132903  8.8e-05  0.998864  0.0  0.106405  0.126789  0.000224  1.002717  0.0
H  H23  1  0.61724056  0.44988541  0.66281054  1  0.115352  -8e-06  0.938752  0.0  0.129462  0.000146  1.000861  0.0  0.132873  8.8e-05  0.998869  0.0  0.106391  0.126755  0.000224  1.002738  0.0
H  H24  1  0.81030972  0.20816749  0.91894376  1  0.423062  6e-05  0.874714  -0.001  0.393261  0.000403  0.944331  0.0  0.404926  0.000253  0.927419  0.0  0.29338  0.384446  0.000227  0.957162  0.0
H  H25  1  0.18970118  0.29184196  0.41894293  1  0.423051  6e-05  0.874688  -0.001  0.393285  0.000404  0.944275  0.0  0.404949  0.000253  0.927365  0.0  0.293409  0.384471  0.000227  0.957108  0.0
H  H26  1  0.68970661  0.70815787  0.08105798  1  0.423102  -6e-05  0.874595  0.001  0.393337  -0.000404  0.944197  0.0  0.405  -0.000253  0.927287  0.0  0.293427  0.384526  -0.000227  0.957021  0.0
H  H27  1  0.31030370  0.79183428  0.58105462  1  0.423109  -6e-05  0.874626  0.001  0.393308  -0.000404  0.944254  0.0  0.404974  -0.000253  0.927341  0.0  0.293385  0.384497  -0.000227  0.957077  0.0
H  H28  1  0.00911134  0.20503406  0.86910848  1  0.413644  -6.9e-05  0.891176  -0.001  0.383871  0.000237  0.955616  0.0  0.396114  0.000103  0.938035  0.0  0.288433  0.375156  0.000331  0.968016  0.0
H  H29  1  0.99090085  0.29496373  0.36910294  1  0.413762  -6.9e-05  0.890993  -0.001  0.383907  0.000237  0.955548  0.0  0.396147  0.000102  0.937972  0.0  0.288379  0.375189  0.00033  0.967952  0.0
H  H30  1  0.49090642  0.70503938  0.13089895  1  0.413789  6.9e-05  0.890939  0.001  0.383938  -0.000237  0.955509  0.0  0.39618  -0.000103  0.937931  0.0  0.28838  0.375221  -0.00033  0.967912  0.0
H  H31  1  0.50910792  0.79497012  0.63089146  1  0.413682  6.8e-05  0.891109  0.001  0.383919  -0.000237  0.955544  0.0  0.396161  -0.000103  0.937962  0.0  0.28846  0.375205  -0.000331  0.967943  0.0
H  H32  1  0.17790399  0.91062846  0.06237870  1  0.414284  -8.9e-05  0.894116  -0.001  0.38064  0.000202  0.964077  0.0  0.392533  4.1e-05  0.947083  0.0  0.286952  0.372115  0.000382  0.976181  0.0
H  H33  1  0.82208639  0.58935904  0.56237323  1  0.414341  -8.9e-05  0.894063  -0.001  0.380755  0.000202  0.963926  0.0  0.392649  4.1e-05  0.946931  0.0  0.287079  0.372234  0.000382  0.976022  0.0
H  H34  1  0.32208552  0.41063822  0.93762769  1  0.41435  8.9e-05  0.894059  0.001  0.380737  -0.000202  0.963976  0.0  0.392635  -4.1e-05  0.946975  0.0  0.28703  0.372208  -0.000382  0.976086  0.0
H  H35  1  0.67790415  0.08936792  0.43761798  1  0.414339  8.9e-05  0.894053  0.001  0.380664  -0.000202  0.964054  0.0  0.392558  -4.1e-05  0.947058  0.0  0.286957  0.372138  -0.000382  0.97616  0.0
H  H36  1  0.18456794  0.06952221  0.99269684  1  0.415743  -0.000209  0.851245  -0.001  0.391869  0.000184  0.921474  0.0  0.401866  4.9e-05  0.907188  0.0  0.304008  0.384459  0.000334  0.929412  0.0
H  H37  1  0.81542974  0.43046600  0.49268743  1  0.416007  -0.000208  0.85085  -0.001  0.392029  0.000184  0.92115  0.0  0.402021  4.9e-05  0.906915  0.0  0.304145  0.384619  0.000334  0.929092  0.0
H  H38  1  0.31542661  0.56953426  0.00731439  1  0.415947  0.000208  0.85093  0.001  0.391962  -0.000185  0.921245  0.0  0.401955  -4.9e-05  0.907016  0.0  0.304109  0.384555  -0.000334  0.929181  0.0
H  H39  1  0.68456771  0.93047573  0.50729979  1  0.415738  0.000208  0.851343  0.001  0.391866  -0.000184  0.921564  0.0  0.401862  -4.9e-05  0.907215  0.0  0.304019  0.384456  -0.000334  0.929508  0.0
C  C40  1  0.80407707  0.78735164  0.71578936  1  0.649106  -0.002669  3.778041  -0.005  0.602159  -2.8e-05  4.079431  -0.001  0.635121  -0.000144  4.076321  -0.001  0.223082  0.57927  -8.3e-05  4.080555  -0.001
C  C41  1  0.19592140  0.71263668  0.21580437  1  0.648981  -0.002657  3.777736  -0.005  0.602001  -2.8e-05  4.079237  -0.001  0.634961  -0.000144  4.076132  -0.001  0.222938  0.579126  -8.3e-05  4.080325  -0.001
C  C42  1  0.69591838  0.28735976  0.28419486  1  0.649119  0.002656  3.77767  0.005  0.602111  2.8e-05  4.079118  0.001  0.635071  0.000145  4.076005  0.001  0.222952  0.579232  8.3e-05  4.080222  0.001
C  C43  1  0.30408444  0.21265125  0.78421324  1  0.648853  0.002661  3.777948  0.005  0.601914  2.9e-05  4.079264  0.001  0.634875  0.000145  4.076164  0.001  0.22302  0.579037  8.3e-05  4.080359  0.001
C  C44  1  0.99101092  0.73063737  0.74518087  1  0.072036  -0.001662  3.611035  -0.004  0.056796  -0.000343  3.858556  -0.002  0.057765  -0.000589  3.872441  -0.002  -0.002232  0.055863  8.4e-05  3.848987  -0.002
C  C45  1  0.00898890  0.76935908  0.24518244  1  0.072179  -0.001681  3.610802  -0.004  0.056809  -0.000341  3.858512  -0.002  0.057778  -0.000588  3.872393  -0.002  -0.002224  0.055874  8.5e-05  3.848944  -0.002
C  C46  1  0.50898426  0.23064015  0.25481671  1  0.072135  0.001687  3.610875  0.004  0.056954  0.000341  3.858323  0.002  0.057932  0.000586  3.872198  0.002  -0.002221  0.05602  -8.5e-05  3.848752  0.002
C  C47  1  0.49101987  0.26936387  0.75482097  1  0.072105  0.001661  3.611031  0.004  0.057001  0.000343  3.858338  0.002  0.058002  0.00059  3.872179  0.002  -0.002296  0.056065  -8.3e-05  3.848775  0.002
C  C48  1  0.98047908  0.58272591  0.81431793  1  -0.302122  -0.003405  3.622304  -0.004  -0.344571  -0.002089  3.867515  -0.002  -0.351994  -0.001604  3.873848  -0.002  -0.159211  -0.339202  -0.002824  3.863585  -0.003
C  C49  1  0.01951549  0.91727204  0.31431828  1  -0.302293  -0.003396  3.622174  -0.004  -0.344701  -0.002089  3.867444  -0.002  -0.35211  -0.001604  3.873758  -0.002  -0.159229  -0.339333  -0.002824  3.863513  -0.003
C  C50  1  0.51951143  0.08272609  0.18568003  1  -0.302336  0.003411  3.622064  0.004  -0.344907  0.002089  3.867386  0.002  -0.352336  0.001604  3.873719  0.002  -0.159247  -0.33953  0.002824  3.863448  0.003
C  C51  1  0.48048600  0.41727415  0.68568560  1  -0.302229  0.00342  3.622152  0.004  -0.34469  0.00209  3.867452  0.002  -0.3521  0.001605  3.873769  0.002  -0.159239  -0.339322  0.002826  3.863527  0.003
C  C52  1  0.87227664  0.58830091  0.92334478  1  0.706992  0.001138  3.801426  0.002  0.668686  0.001188  4.102466  0.002  0.707294  0.000963  4.094502  0.001  0.216719  0.640569  0.001398  4.106699  0.002
C  C53  1  0.12771536  0.91168966  0.42335108  1  0.707181  0.001138  3.801347  0.002  0.668897  0.001187  4.102354  0.002  0.707501  0.000963  4.094387  0.001  0.216733  0.640787  0.001396  4.106584  0.002
C  C54  1  0.62770991  0.08830656  0.07664727  1  0.707129  -0.001133  3.800997  -0.001  0.668832  -0.001188  4.102062  -0.002  0.707433  -0.000964  4.094098  -0.001  0.216684  0.640722  -0.001397  4.106292  -0.002
C  C55  1  0.37228212  0.41170790  0.57665448  1  0.707002  -0.001133  3.801147  -0.001  0.668613  -0.001189  4.102337  -0.002  0.707215  -0.000965  4.094376  -0.001  0.216672  0.640501  -0.001398  4.106563  -0.002
N  N56  1  0.08163297  0.85157294  0.80970286  1  -0.631069  0.067328  3.141653  0.1  -0.630575  0.040761  3.411606  0.06  -0.661403  0.031663  3.411654  0.049  -0.627031  -0.607404  0.047588  3.411584  0.068
N  N57  1  0.91836956  0.64842841  0.30969767  1  -0.63121  0.06735  3.141659  0.1  -0.63067  0.040767  3.411636  0.06  -0.66151  0.031667  3.411703  0.049  -0.627001  -0.607496  0.047598  3.411562  0.069
N  N58  1  0.41836689  0.35157218  0.19030081  1  -0.631164  -0.067339  3.141694  -0.1  -0.630663  -0.040762  3.41159  -0.06  -0.661498  -0.031664  3.41164  -0.049  -0.626988  -0.60748  -0.047591  3.411569  -0.068
N  N59  1  0.58163851  0.14842921  0.69029542  1  -0.631078  -0.067323  3.141682  -0.1  -0.630582  -0.04076  3.411544  -0.06  -0.66143  -0.031663  3.411616  -0.049  -0.62698  -0.607394  -0.047584  3.411518  -0.068
O  O60  1  0.72726089  0.87322205  0.78722216  1  -0.567467  0.052384  2.014522  0.083  -0.534447  0.033555  2.259684  0.055  -0.570721  0.025338  2.251629  0.042  -0.293248  -0.506544  0.041056  2.264518  0.065
O  O61  1  0.27274561  0.62678601  0.28721831  1  -0.567167  0.052347  2.015154  0.083  -0.534165  0.033541  2.260362  0.055  -0.570428  0.025327  2.252305  0.042  -0.293053  -0.506268  0.041042  2.265179  0.065
O  O62  1  0.77274028  0.37321183  0.21278010  1  -0.567299  -0.052343  2.015157  -0.083  -0.53426  -0.03354  2.260334  -0.055  -0.570523  -0.025326  2.252276  -0.042  -0.293068  -0.506368  -0.04104  2.265158  -0.065
O  O63  1  0.22726116  0.12678058  0.71277364  1  -0.567335  -0.052386  2.014354  -0.083  -0.534346  -0.033558  2.259516  -0.055  -0.570629  -0.025338  2.251466  -0.042  -0.293185  -0.506439  -0.04106  2.264343  -0.065
O  O64  1  0.73244527  0.74507665  0.62273280  1  -0.640036  0.003588  1.979427  0.005  -0.573255  0.002159  2.187306  0.003  -0.60042  0.001207  2.176817  0.002  -0.307589  -0.554209  0.00324  2.194083  0.005
O  O65  1  0.26755976  0.75491914  0.12272428  1  -0.640361  0.003591  1.978488  0.005  -0.573407  0.002162  2.186239  0.003  -0.60057  0.001209  2.175745  0.002  -0.30763  -0.554367  0.003243  2.193012  0.005
O  O66  1  0.76755662  0.24507753  0.37727244  1  -0.640402  -0.003593  1.978518  -0.005  -0.573473  -0.002161  2.186296  -0.003  -0.600637  -0.001209  2.175804  -0.002  -0.307651  -0.554432  -0.003243  2.193078  -0.005
O  O67  1  0.23245026  0.25492372  0.87726893  1  -0.63997  -0.00358  1.979505  -0.005  -0.573175  -0.002159  2.18737  -0.003  -0.600355  -0.001208  2.176894  -0.002  -0.307565  -0.554132  -0.003239  2.194145  -0.005
O  O68  1  0.87109365  0.70908879  0.98403512  1  -0.631908  0.044718  2.107109  0.07  -0.594445  0.029537  2.371292  0.047  -0.6319  0.022938  2.360186  0.037  -0.308765  -0.564505  0.036442  2.377919  0.057
O  O69  1  0.12890372  0.79091463  0.48403427  1  -0.631959  0.044713  2.107361  0.07  -0.594439  0.029536  2.371493  0.047  -0.63189  0.022939  2.360384  0.037  -0.308742  -0.5645  0.036441  2.378119  0.057
O  O70  1  0.62889612  0.20908728  0.01596154  1  -0.631838  -0.044718  2.106943  -0.07  -0.594347  -0.029538  2.371123  -0.047  -0.631805  -0.022941  2.360019  -0.037  -0.30872  -0.564411  -0.036443  2.377749  -0.057
O  O71  1  0.37110648  0.29090977  0.51595990  1  -0.631936  -0.044725  2.106657  -0.07  -0.594464  -0.029539  2.370909  -0.047  -0.631932  -0.022941  2.359819  -0.037  -0.30878  -0.56452  -0.036445  2.377539  -0.057
O  O72  1  0.79092728  0.46742886  0.95061165  1  -0.596661  -0.033174  2.045885  -0.054  -0.564295  -0.021344  2.308392  -0.036  -0.599421  -0.017219  2.295204  -0.029  -0.30827  -0.53629  -0.023113  2.317389  -0.037
O  O73  1  0.20905842  0.03257165  0.45062100  1  -0.5968  -0.033173  2.045663  -0.054  -0.564493  -0.021348  2.308191  -0.036  -0.599625  -0.017223  2.295002  -0.029  -0.308318  -0.536493  -0.023114  2.31721  -0.037
O  O74  1  0.70905175  0.96743167  0.04938161  1  -0.596803  0.03317  2.045752  0.054  -0.56446  0.021347  2.308263  0.036  -0.599583  0.017223  2.295077  0.029  -0.308304  -0.536464  0.023114  2.31727  0.037
O  O75  1  0.29094393  0.53256488  0.54939180  1  -0.596631  0.033158  2.046127  0.054  -0.564222  0.021339  2.308656  0.036  -0.599337  0.017215  2.295461  0.029  -0.30823  -0.536224  0.023107  2.317658  0.037
O  O76  1  0.89011280  0.15593664  0.86437146  1  -0.809374  0.04198  1.95616  0.065  -0.785215  0.029468  2.17041  0.046  -0.814191  0.023274  2.133111  0.037  -0.580285  -0.761604  0.035344  2.197413  0.055
O  O77  1  0.10990736  0.34405543  0.36436992  1  -0.809477  0.041993  1.956015  0.065  -0.785268  0.029473  2.170419  0.046  -0.814243  0.023276  2.133118  0.037  -0.580305  -0.761649  0.035352  2.197427  0.055
O  O78  1  0.60990860  0.65594300  0.13563519  1  -0.809574  -0.041989  1.955886  -0.065  -0.785378  -0.029473  2.170284  -0.046  -0.814357  -0.023276  2.132984  -0.037  -0.580342  -0.761767  -0.035353  2.197285  -0.055
O  O79  1  0.39011239  0.84406881  0.63563034  1  -0.809474  -0.041977  1.956028  -0.065  -0.785362  -0.029467  2.170354  -0.046  -0.814342  -0.023273  2.133052  -0.037  -0.58035  -0.761733  -0.035342  2.19732  -0.055
O  O80  1  0.10885858  0.00365614  0.03909853  1  -0.801903  0.033374  1.909516  0.051  -0.771117  0.026317  2.114539  0.04  -0.798788  0.020668  2.079925  0.033  -0.566906  -0.74968  0.03134  2.137479  0.047
O  O81  1  0.89113341  0.49633306  0.53908677  1  -0.802229  0.033382  1.909168  0.051  -0.771356  0.02632  2.114433  0.04  -0.799022  0.020669  2.079853  0.033  -0.567157  -0.74992  0.031344  2.137384  0.047
O  O82  1  0.39113566  0.50366898  0.96091757  1  -0.802173  -0.033386  1.909197  -0.051  -0.771304  -0.026321  2.114495  -0.04  -0.798975  -0.020671  2.079916  -0.033  -0.567083  -0.749866  -0.031346  2.137446  -0.047
O  O83  1  0.60885771  0.99634001  0.46090151  1  -0.801965  -0.033369  1.909498  -0.051  -0.771141  -0.026315  2.11455  -0.04  -0.798817  -0.020666  2.079876  -0.033  -0.566938  -0.749704  -0.031337  2.137504  -0.047
