# generated using pymatgen
data_NdH6C6NO6
_symmetry_space_group_name_H-M   'P 1'
_cell_length_a   6.63455387
_cell_length_b   7.02975620
_cell_length_c   17.43986299
_cell_angle_alpha   89.99991039
_cell_angle_beta   90.00002996
_cell_angle_gamma   90.00000945
_symmetry_Int_Tables_number   1
_chemical_formula_structural   NdH6C6NO6
_chemical_formula_sum   'Nd4 H24 C24 N4 O24'
_cell_volume   813.38293577
_cell_formula_units_Z   4
loop_
 _symmetry_equiv_pos_site_id
 _symmetry_equiv_pos_as_xyz
  1  'x, y, z'
loop_
 _atom_site_type_symbol
 _atom_site_label
 _atom_site_symmetry_multiplicity
 _atom_site_fract_x
 _atom_site_fract_y
 _atom_site_fract_z
 _atom_site_occupancy
 _atom_site_hle17_bader_spin_density
 _atom_site_hle17_ddec_charge
 _atom_site_hle17_ddec_spin_density
 _atom_site_hle17_ddec_sum_bond_order
 _atom_site_hle17_magmom
 _atom_site_hse06_10hf_bader_spin_density
 _atom_site_hse06_10hf_ddec_charge
 _atom_site_hse06_10hf_ddec_spin_density
 _atom_site_hse06_10hf_ddec_sum_bond_order
 _atom_site_hse06_10hf_magmom
 _atom_site_hse06_bader_spin_density
 _atom_site_hse06_ddec_charge
 _atom_site_hse06_ddec_spin_density
 _atom_site_hse06_ddec_sum_bond_order
 _atom_site_hse06_magmom
 _atom_site_pbe_bader_spin_density
 _atom_site_pbe_cm5_charge
 _atom_site_pbe_ddec_charge
 _atom_site_pbe_ddec_spin_density
 _atom_site_pbe_ddec_sum_bond_order
 _atom_site_pbe_magmom
Nd  Nd0  1  0.55076710  0.22082686  0.82936258  1  0  2.291364  0  1.64755  0  0  2.123353  0  2.116954  0  0  2.223216  0  1.969543  0  0  1.51443  2.08592  0  2.154632  0
Nd  Nd1  1  0.94923217  0.77917013  0.32936367  1  0  2.291357  0  1.647472  0  0  2.12337  0  2.116809  0  0  2.223207  0  1.969438  0  0  1.514451  2.085986  0  2.154385  0
Nd  Nd2  1  0.44923345  0.72082743  0.67063639  1  0  2.291324  0  1.647536  0  0  2.123305  0  2.116907  0  0  2.22316  0  1.969507  0  0  1.514419  2.085866  0  2.154588  0
Nd  Nd3  1  0.05076618  0.27916867  0.17063601  1  0  2.291383  0  1.64736  0  0  2.123384  0  2.116711  0  0  2.22323  0  1.969325  0  0  1.514489  2.085966  0  2.154334  0
H  H4  1  0.97446255  0.82359886  0.82911415  1  0  0.138258  0  0.922219  0  0  0.152415  0  0.976381  0  0  0.155894  0  0.973903  0  0  0.13012  0.150009  0  0.977981  0
H  H5  1  0.52553671  0.17640239  0.32911611  1  0  0.138205  0  0.922267  0  0  0.152393  0  0.976412  0  0  0.15587  0  0.97393  0  0  0.130112  0.149987  0  0.978011  0
H  H6  1  0.02553650  0.32359882  0.67088533  1  0  0.138257  0  0.922225  0  0  0.152411  0  0.976393  0  0  0.15589  0  0.973913  0  0  0.130119  0.150005  0  0.977991  0
H  H7  1  0.47446313  0.67640012  0.17088478  1  0  0.138238  0  0.922261  0  0  0.152409  0  0.976396  0  0  0.155884  0  0.973918  0  0  0.130118  0.150005  0  0.977993  0
H  H8  1  0.11205044  0.93287413  0.90469261  1  0  0.102912  0  0.929491  0  0  0.114761  0  0.991618  0  0  0.117465  0  0.989821  0  0  0.111265  0.112888  0  0.992906  0
H  H9  1  0.38794951  0.06712533  0.40469299  1  0  0.102921  0  0.929521  0  0  0.114786  0  0.991643  0  0  0.117488  0  0.989845  0  0  0.111278  0.112911  0  0.992932  0
H  H10  1  0.88794863  0.43287452  0.59530738  1  0  0.102924  0  0.929456  0  0  0.114777  0  0.991582  0  0  0.117481  0  0.989784  0  0  0.111277  0.112905  0  0.99287  0
H  H11  1  0.61205031  0.56712622  0.09530740  1  0  0.102955  0  0.929516  0  0  0.114798  0  0.991634  0  0  0.1175  0  0.989837  0  0  0.111287  0.112923  0  0.992924  0
H  H12  1  0.57575309  0.80150249  0.96549707  1  0  0.111635  0  0.91973  0  0  0.126348  0  0.9791  0  0  0.128636  0  0.977115  0  0  0.122444  0.124768  0  0.980451  0
H  H13  1  0.92424485  0.19849681  0.46549852  1  0  0.11164  0  0.919729  0  0  0.126347  0  0.979092  0  0  0.128636  0  0.977107  0  0  0.122436  0.12476  0  0.980446  0
H  H14  1  0.42424596  0.30150163  0.53450243  1  0  0.111641  0  0.919735  0  0  0.126348  0  0.979107  0  0  0.128636  0  0.977122  0  0  0.122442  0.12477  0  0.980456  0
H  H15  1  0.07575499  0.69849785  0.03450178  1  0  0.111648  0  0.919734  0  0  0.126357  0  0.979099  0  0  0.128646  0  0.977115  0  0  0.122445  0.124769  0  0.980454  0
H  H16  1  0.78315962  0.66568705  0.93162359  1  0  0.121352  0  0.94108  0  0  0.130831  0  1.002721  0  0  0.135076  0  0.998811  0  0  0.113271  0.127877  0  1.005354  0
H  H17  1  0.71684130  0.33431380  0.43162320  1  0  0.121355  0  0.941051  0  0  0.130831  0  1.002693  0  0  0.135075  0  0.998784  0  0  0.113284  0.127875  0  1.005325  0
H  H18  1  0.21684091  0.16568602  0.56837771  1  0  0.121361  0  0.941049  0  0  0.130842  0  1.00269  0  0  0.135084  0  0.998783  0  0  0.113281  0.127888  0  1.005319  0
H  H19  1  0.28315857  0.83431332  0.06837760  1  0  0.121356  0  0.941058  0  0  0.130838  0  1.002691  0  0  0.135081  0  0.998785  0  0  0.113286  0.127879  0  1.005325  0
H  H20  1  0.97106614  0.99811148  0.01221261  1  0  0.092661  0  0.964903  0  0  0.103284  0  1.03513  0  0  0.105057  0  1.034988  0  0  0.112691  0.101785  0  1.035934  0
H  H21  1  0.52893118  0.00189243  0.51221451  1  0  0.092761  0  0.964821  0  0  0.103366  0  1.03505  0  0  0.105145  0  1.034911  0  0  0.11271  0.101866  0  1.035861  0
H  H22  1  0.02893225  0.49810879  0.48778694  1  0  0.092675  0  0.96489  0  0  0.103289  0  1.035117  0  0  0.105066  0  1.034978  0  0  0.112689  0.10179  0  1.035923  0
H  H23  1  0.47106933  0.50189319  0.98778574  1  0  0.092754  0  0.964873  0  0  0.103368  0  1.035092  0  0  0.105145  0  1.034952  0  0  0.112711  0.101863  0  1.035907  0
H  H24  1  0.70773412  0.01477719  0.02574568  1  0  0.118058  0  0.914582  0  0  0.134619  0  0.967964  0  0  0.137151  0  0.966348  0  0  0.127815  0.132826  0  0.969278  0
H  H25  1  0.79226472  0.98522524  0.52574702  1  0  0.118101  0  0.914536  0  0  0.134656  0  0.967909  0  0  0.137189  0  0.966296  0  0  0.127842  0.132863  0  0.969227  0
H  H26  1  0.29226569  0.51477655  0.47425474  1  0  0.118059  0  0.914593  0  0  0.13462  0  0.967966  0  0  0.137154  0  0.966353  0  0  0.12781  0.132826  0  0.96928  0
H  H27  1  0.20773436  0.48522547  0.97425351  1  0  0.118095  0  0.914572  0  0  0.134654  0  0.967941  0  0  0.137189  0  0.966326  0  0  0.127823  0.132857  0  0.96926  0
C  C28  1  0.98171854  0.95005695  0.86625718  1  0  -0.197755  0  3.599605  0  0  -0.245976  0  3.843045  0  0  -0.249132  0  3.850524  0  0  -0.065155  -0.243885  0  3.838751  0
C  C29  1  0.51828078  0.04994416  0.36625807  1  0  -0.1977  0  3.599602  0  0  -0.245992  0  3.843047  0  0  -0.24915  0  3.850542  0  0  -0.065164  -0.243907  0  3.838776  0
C  C30  1  0.01828204  0.45005705  0.63374280  1  0  -0.197757  0  3.59961  0  0  -0.245963  0  3.843072  0  0  -0.249124  0  3.850558  0  0  -0.065157  -0.243882  0  3.838797  0
C  C31  1  0.48171904  0.54994346  0.13374175  1  0  -0.197848  0  3.599789  0  0  -0.246065  0  3.843168  0  0  -0.249216  0  3.850634  0  0  -0.065186  -0.243979  0  3.838888  0
C  C32  1  0.02260044  0.11381176  0.81057686  1  0  0.766519  0  3.792628  0  0  0.718648  0  4.095755  0  0  0.753738  0  4.087475  0  0  0.243327  0.694253  0  4.103314  0
C  C33  1  0.47740089  0.88619091  0.31057503  1  0  0.766404  0  3.792954  0  0  0.718724  0  4.0958  0  0  0.753813  0  4.087511  0  0  0.243375  0.69432  0  4.103374  0
C  C34  1  0.97739858  0.61381092  0.68942332  1  0  0.766486  0  3.792807  0  0  0.718648  0  4.095884  0  0  0.753738  0  4.087598  0  0  0.243313  0.694251  0  4.103435  0
C  C35  1  0.52259145  0.38619088  0.18942458  1  0  0.766508  0  3.792887  0  0  0.718687  0  4.095918  0  0  0.753786  0  4.087618  0  0  0.243358  0.694284  0  4.103491  0
C  C36  1  0.68460137  0.78737408  0.91816013  1  0  -0.191621  0  3.646617  0  0  -0.244076  0  3.898634  0  0  -0.246174  0  3.90471  0  0  -0.065181  -0.242569  0  3.895036  0
C  C37  1  0.81539802  0.21262682  0.41816098  1  0  -0.191635  0  3.646478  0  0  -0.244005  0  3.898535  0  0  -0.246097  0  3.904606  0  0  -0.06515  -0.242496  0  3.89493  0
C  C38  1  0.31539918  0.28737301  0.58183995  1  0  -0.191664  0  3.646572  0  0  -0.244078  0  3.898621  0  0  -0.246176  0  3.904696  0  0  -0.065191  -0.24257  0  3.895015  0
C  C39  1  0.18460183  0.71262628  0.08183931  1  0  -0.191584  0  3.646509  0  0  -0.244012  0  3.898553  0  0  -0.246104  0  3.904627  0  0  -0.065142  -0.242499  0  3.89494  0
C  C40  1  0.56000364  0.73762568  0.84803171  1  0  0.756352  0  3.803171  0  0  0.710194  0  4.099315  0  0  0.744555  0  4.094356  0  0  0.240929  0.686304  0  4.106824  0
C  C41  1  0.93999715  0.26237123  0.34802969  1  0  0.756429  0  3.80312  0  0  0.710148  0  4.099463  0  0  0.744497  0  4.094522  0  0  0.240926  0.686273  0  4.10695  0
C  C42  1  0.43999841  0.23762294  0.65196782  1  0  0.756377  0  3.803235  0  0  0.710199  0  4.09942  0  0  0.744563  0  4.094456  0  0  0.240914  0.686307  0  4.106926  0
C  C43  1  0.06000119  0.76237465  0.15197000  1  0  0.756319  0  3.80313  0  0  0.710081  0  4.099418  0  0  0.744426  0  4.094484  0  0  0.240897  0.686209  0  4.106896  0
C  C44  1  0.83087043  0.05226027  0.98644073  1  0  -0.202226  0  3.69255  0  0  -0.258573  0  3.947165  0  0  -0.261223  0  3.956891  0  0  -0.068954  -0.257316  0  3.942679  0
C  C45  1  0.66912604  0.94774179  0.48644281  1  0  -0.202494  0  3.692493  0  0  -0.258655  0  3.947131  0  0  -0.261313  0  3.956862  0  0  -0.068949  -0.257398  0  3.942663  0
C  C46  1  0.16912858  0.55225999  0.51355892  1  0  -0.202346  0  3.692549  0  0  -0.258577  0  3.947188  0  0  -0.261239  0  3.956928  0  0  -0.068948  -0.257323  0  3.942706  0
C  C47  1  0.33087384  0.44774241  0.01355734  1  0  -0.20246  0  3.692569  0  0  -0.258683  0  3.947197  0  0  -0.261346  0  3.956934  0  0  -0.068962  -0.257423  0  3.942727  0
C  C48  1  0.84120724  0.26813120  0.98586325  1  0  0.72893  0  3.840218  0  0  0.683226  0  4.140652  0  0  0.71693  0  4.134368  0  0  0.224778  0.660228  0  4.146631  0
C  C49  1  0.65880280  0.73187086  0.48585342  1  0  0.729252  0  3.839816  0  0  0.683202  0  4.140784  0  0  0.716909  0  4.134498  0  0  0.224766  0.660201  0  4.146767  0
C  C50  1  0.15879784  0.76813091  0.51414372  1  0  0.729201  0  3.840097  0  0  0.683312  0  4.14082  0  0  0.71702  0  4.134532  0  0  0.224783  0.660318  0  4.146798  0
C  C51  1  0.34119253  0.23187006  0.01415259  1  0  0.729125  0  3.840053  0  0  0.683097  0  4.140974  0  0  0.716805  0  4.134691  0  0  0.224685  0.660097  0  4.146955  0
N  N52  1  0.79177513  0.96972467  0.91047654  1  0  -0.208403  0  3.318585  0  0  -0.135159  0  3.569047  0  0  -0.150928  0  3.591875  0  0  -0.372453  -0.126461  0  3.554569  0
N  N53  1  0.70822274  0.03027342  0.41047863  1  0  -0.208343  0  3.318542  0  0  -0.135214  0  3.569083  0  0  -0.150986  0  3.591911  0  0  -0.372485  -0.126519  0  3.554605  0
N  N54  1  0.20822395  0.46972355  0.58952343  1  0  -0.208342  0  3.318627  0  0  -0.135203  0  3.569139  0  0  -0.150969  0  3.591965  0  0  -0.372432  -0.1265  0  3.554656  0
N  N55  1  0.29177707  0.53027144  0.08952178  1  0  -0.208397  0  3.318581  0  0  -0.135176  0  3.569033  0  0  -0.150946  0  3.591864  0  0  -0.372482  -0.126477  0  3.554551  0
O  O56  1  0.87212099  0.18362513  0.77492412  1  0  -0.724322  0  1.997001  0  0  -0.673698  0  2.249954  0  0  -0.705422  0  2.234436  0  0  -0.410413  -0.655278  0  2.258316  0
O  O57  1  0.62787669  0.81637633  0.27492570  1  0  -0.724259  0  1.99712  0  0  -0.67371  0  2.250008  0  0  -0.70543  0  2.234489  0  0  -0.410437  -0.655295  0  2.258369  0
O  O58  1  0.12787955  0.68362401  0.72507659  1  0  -0.724321  0  1.997012  0  0  -0.673689  0  2.249939  0  0  -0.705413  0  2.23442  0  0  -0.410376  -0.655266  0  2.258296  0
O  O59  1  0.37212468  0.31637472  0.22507395  1  0  -0.724253  0  1.997189  0  0  -0.673669  0  2.250136  0  0  -0.70539  0  2.234608  0  0  -0.410411  -0.655251  0  2.2585  0
O  O60  1  0.20202923  0.16640679  0.79901198  1  0  -0.726985  0  2.007444  0  0  -0.675346  0  2.266834  0  0  -0.707855  0  2.2523  0  0  -0.394397  -0.656829  0  2.274668  0
O  O61  1  0.29797359  0.83359876  0.29901129  1  0  -0.726981  0  2.007622  0  0  -0.675425  0  2.266929  0  0  -0.707929  0  2.252393  0  0  -0.394428  -0.656915  0  2.274765  0
O  O62  1  0.79797281  0.66640730  0.70098817  1  0  -0.726969  0  2.007583  0  0  -0.675349  0  2.266949  0  0  -0.707856  0  2.252412  0  0  -0.394412  -0.656832  0  2.274778  0
O  O63  1  0.70202778  0.33359303  0.20098778  1  0  -0.727009  0  2.007418  0  0  -0.675387  0  2.266785  0  0  -0.7079  0  2.252242  0  0  -0.394398  -0.656869  0  2.274618  0
O  O64  1  0.51209234  0.87291922  0.80235241  1  0  -0.80066  0  2.119777  0  0  -0.744804  0  2.387036  0  0  -0.780981  0  2.373524  0  0  -0.416755  -0.727028  0  2.395556  0
O  O65  1  0.98790237  0.12707787  0.30235335  1  0  -0.800687  0  2.119791  0  0  -0.74478  0  2.387081  0  0  -0.780947  0  2.37357  0  0  -0.416757  -0.727033  0  2.395624  0
O  O66  1  0.48791426  0.37291915  0.69764761  1  0  -0.800672  0  2.119778  0  0  -0.744782  0  2.386971  0  0  -0.780957  0  2.373452  0  0  -0.416729  -0.727015  0  2.395523  0
O  O67  1  0.01209445  0.62707399  0.19764700  1  0  -0.800653  0  2.119666  0  0  -0.744741  0  2.38689  0  0  -0.78091  0  2.373385  0  0  -0.416752  -0.726992  0  2.395419  0
O  O68  1  0.50275034  0.56841073  0.83683271  1  0  -0.732412  0  2.005441  0  0  -0.681888  0  2.261411  0  0  -0.715002  0  2.24755  0  0  -0.375318  -0.665127  0  2.270483  0
O  O69  1  0.99725195  0.43158480  0.33683460  1  0  -0.732485  0  2.005516  0  0  -0.681926  0  2.261538  0  0  -0.71503  0  2.24768  0  0  -0.375342  -0.665183  0  2.270608  0
O  O70  1  0.49725169  0.06841364  0.66316693  1  0  -0.732444  0  2.005593  0  0  -0.681912  0  2.261572  0  0  -0.715025  0  2.247709  0  0  -0.375321  -0.665149  0  2.270648  0
O  O71  1  0.00274642  0.93157964  0.16316670  1  0  -0.732462  0  2.005595  0  0  -0.681916  0  2.261596  0  0  -0.715018  0  2.247734  0  0  -0.375339  -0.665175  0  2.270667  0
O  O72  1  0.78845158  0.35595940  0.92575838  1  0  -0.706248  0  2.033937  0  0  -0.651755  0  2.275289  0  0  -0.682125  0  2.264119  0  0  -0.371791  -0.634264  0  2.28133  0
O  O73  1  0.71154782  0.64405001  0.42576583  1  0  -0.706091  0  2.034735  0  0  -0.65149  0  2.27625  0  0  -0.681849  0  2.265079  0  0  -0.371622  -0.634001  0  2.282286  0
O  O74  1  0.21154296  0.85595319  0.57423763  1  0  -0.70614  0  2.034516  0  0  -0.651607  0  2.275988  0  0  -0.681968  0  2.264811  0  0  -0.371702  -0.634119  0  2.282029  0
O  O75  1  0.28845654  0.14405324  0.07423107  1  0  -0.705912  0  2.035244  0  0  -0.651312  0  2.27674  0  0  -0.681666  0  2.265567  0  0  -0.371504  -0.63383  0  2.28279  0
O  O76  1  0.89804688  0.34896230  0.04742868  1  0  -0.73737  0  2.027496  0  0  -0.686381  0  2.291843  0  0  -0.718848  0  2.279434  0  0  -0.400698  -0.668054  0  2.298419  0
O  O77  1  0.60193692  0.65103436  0.54743535  1  0  -0.737757  0  2.026576  0  0  -0.686618  0  2.291081  0  0  -0.719096  0  2.278673  0  0  -0.400847  -0.668287  0  2.297663  0
O  O78  1  0.10194846  0.84896314  0.45256695  1  0  -0.737658  0  2.027015  0  0  -0.686606  0  2.291472  0  0  -0.719077  0  2.279059  0  0  -0.400775  -0.668283  0  2.298049  0
O  O79  1  0.39806663  0.15103187  0.95256080  1  0  -0.737827  0  2.02623  0  0  -0.686732  0  2.290782  0  0  -0.719217  0  2.278375  0  0  -0.400882  -0.668399  0  2.29736  0
