# generated using pymatgen
data_VH10C14(NO2)2
_symmetry_space_group_name_H-M   'P 1'
_cell_length_a   6.38353929
_cell_length_b   9.88588615
_cell_length_c   10.71327518
_cell_angle_alpha   106.65952212
_cell_angle_beta   102.99824468
_cell_angle_gamma   103.27042958
_symmetry_Int_Tables_number   1
_chemical_formula_structural   VH10C14(NO2)2
_chemical_formula_sum   'V2 H20 C28 N4 O8'
_cell_volume   598.98267529
_cell_formula_units_Z   2
loop_
 _symmetry_equiv_pos_site_id
 _symmetry_equiv_pos_as_xyz
  1  'x, y, z'
loop_
 _atom_site_type_symbol
 _atom_site_label
 _atom_site_symmetry_multiplicity
 _atom_site_fract_x
 _atom_site_fract_y
 _atom_site_fract_z
 _atom_site_occupancy
 _atom_site_hle17_bader_spin_density
 _atom_site_hle17_ddec_charge
 _atom_site_hle17_ddec_spin_density
 _atom_site_hle17_ddec_sum_bond_order
 _atom_site_hle17_magmom
 _atom_site_hse06_10hf_bader_spin_density
 _atom_site_hse06_10hf_ddec_charge
 _atom_site_hse06_10hf_ddec_spin_density
 _atom_site_hse06_10hf_ddec_sum_bond_order
 _atom_site_hse06_10hf_magmom
 _atom_site_hse06_bader_spin_density
 _atom_site_hse06_ddec_charge
 _atom_site_hse06_ddec_spin_density
 _atom_site_hse06_ddec_sum_bond_order
 _atom_site_hse06_magmom
 _atom_site_pbe_bader_spin_density
 _atom_site_pbe_cm5_charge
 _atom_site_pbe_ddec_charge
 _atom_site_pbe_ddec_spin_density
 _atom_site_pbe_ddec_sum_bond_order
 _atom_site_pbe_magmom
V  V0  1  0.34410860  0.34103656  0.45674629  1  0  1.771485  0  3.022315  0  0  1.804167  0  3.418009  0  0  1.895293  0  3.402386  0  0  1.474945  1.742386  0  3.430699  0
V  V1  1  0.65587206  0.65895954  0.54324719  1  0  1.771562  0  3.021876  0  0  1.804237  0  3.417568  0  0  1.895212  0  3.4022  0  0  1.474855  1.742445  0  3.430308  0
H  H2  1  0.62298087  0.18922604  0.88088188  1  0  0.107707  0  0.970041  0  0  0.118673  0  1.029954  0  0  0.120455  0  1.032033  0  0  0.108002  0.117111  0  1.029233  0
H  H3  1  0.37700992  0.81077455  0.11911513  1  0  0.107667  0  0.970139  0  0  0.118653  0  1.030034  0  0  0.120434  0  1.032116  0  0  0.108005  0.117086  0  1.029314  0
H  H4  1  0.87395328  0.05436908  0.79076126  1  0  0.09732  0  0.947756  0  0  0.110332  0  1.004085  0  0  0.112642  0  1.002214  0  0  0.111463  0.108481  0  1.005721  0
H  H5  1  0.12603275  0.94562145  0.20923799  1  0  0.097297  0  0.947813  0  0  0.110339  0  1.004119  0  0  0.112647  0  1.002249  0  0  0.111447  0.108485  0  1.005756  0
H  H6  1  0.91980708  0.04620246  0.56378258  1  0  0.109874  0  0.952902  0  0  0.120729  0  1.011775  0  0  0.124403  0  1.009653  0  0  0.110617  0.118062  0  1.013557  0
H  H7  1  0.08020243  0.95380039  0.43622227  1  0  0.109879  0  0.952934  0  0  0.120753  0  1.011764  0  0  0.124427  0  1.009643  0  0  0.11063  0.118084  0  1.013546  0
H  H8  1  0.69941515  0.16673643  0.42931757  1  0  0.099641  0  0.949198  0  0  0.105859  0  1.014468  0  0  0.109587  0  1.010028  0  0  0.122119  0.103269  0  1.017265  0
H  H9  1  0.30059180  0.83325754  0.57068360  1  0  0.099568  0  0.949292  0  0  0.105773  0  1.014584  0  0  0.109502  0  1.010146  0  0  0.122111  0.103179  0  1.017381  0
H  H10  1  0.38152685  0.29371682  0.93296808  1  0  0.105581  0  0.982562  0  0  0.112483  0  1.049372  0  0  0.115135  0  1.049655  0  0  0.105687  0.110621  0  1.04912  0
H  H11  1  0.61848698  0.70629166  0.06703141  1  0  0.105658  0  0.982441  0  0  0.112519  0  1.049273  0  0  0.115195  0  1.049528  0  0  0.105698  0.110655  0  1.049022  0
H  H12  1  0.14813646  0.45173062  0.99308526  1  0  0.098393  0  0.949715  0  0  0.111014  0  1.007798  0  0  0.113345  0  1.006254  0  0  0.11038  0.109263  0  1.008818  0
H  H13  1  0.85185387  0.54826553  0.00690956  1  0  0.098323  0  0.94986  0  0  0.110991  0  1.007879  0  0  0.113317  0  1.00634  0  0  0.110348  0.109262  0  1.008876  0
H  H14  1  0.00518082  0.57920817  0.82886212  1  0  0.130147  0  0.957439  0  0  0.137386  0  1.020345  0  0  0.141792  0  1.017592  0  0  0.113107  0.134104  0  1.02286  0
H  H15  1  0.99481535  0.42079356  0.17113500  1  0  0.130197  0  0.957455  0  0  0.137406  0  1.020367  0  0  0.141812  0  1.017615  0  0  0.113116  0.134124  0  1.02288  0
H  H16  1  0.11442323  0.53592152  0.61599358  1  0  0.106041  0  0.931048  0  0  0.115916  0  0.9888  0  0  0.119771  0  0.983938  0  0  0.130386  0.113308  0  0.992014  0
H  H17  1  0.88558421  0.46408362  0.38400226  1  0  0.106013  0  0.930965  0  0  0.115914  0  0.988681  0  0  0.11977  0  0.98382  0  0  0.130366  0.113304  0  0.991895  0
H  H18  1  0.77850357  0.16925070  0.22659833  1  0  0.11957  0  0.961867  0  0  0.131165  0  1.020383  0  0  0.135561  0  1.016886  0  0  0.106898  0.128126  0  1.022923  0
H  H19  1  0.22150910  0.83075212  0.77341254  1  0  0.119568  0  0.961798  0  0  0.131144  0  1.020346  0  0  0.135536  0  1.016854  0  0  0.106901  0.128114  0  1.022866  0
H  H20  1  0.11707958  0.02346271  0.92932985  1  0  0.092774  0  0.973743  0  0  0.101267  0  1.039837  0  0  0.104386  0  1.038074  0  0  0.101442  0.099035  0  1.041176  0
H  H21  1  0.88292446  0.97653892  0.07068325  1  0  0.092817  0  0.97367  0  0  0.101321  0  1.039734  0  0  0.104438  0  1.037973  0  0  0.101471  0.099088  0  1.041074  0
C  C22  1  0.52396415  0.24531464  0.69981289  1  0  0.184789  0  3.760335  0  0  0.184086  0  4.000923  0  0  0.19225  0  4.019183  0  0  0.124933  0.17859  0  3.988633  0
C  C23  1  0.47603635  0.75468601  0.30018267  1  0  0.184525  0  3.760474  0  0  0.183959  0  4.000944  0  0  0.192125  0  4.019199  0  0  0.12485  0.178466  0  3.988651  0
C  C24  1  0.64102592  0.18099184  0.78061560  1  0  -0.142077  0  3.686698  0  0  -0.158037  0  3.927035  0  0  -0.165813  0  3.949483  0  0  -0.077228  -0.153538  0  3.912968  0
C  C25  1  0.35896758  0.81900766  0.21938056  1  0  -0.141919  0  3.686696  0  0  -0.157911  0  3.926993  0  0  -0.165691  0  3.949448  0  0  -0.077142  -0.15341  0  3.912925  0
C  C26  1  0.78269703  0.10690431  0.73093286  1  0  0.017444  0  3.705928  0  0  -0.002601  0  3.957882  0  0  0.001866  0  3.975306  0  0  -0.056686  -0.005351  0  3.946725  0
C  C27  1  0.21729114  0.89309069  0.26906415  1  0  0.017479  0  3.705844  0  0  -0.002653  0  3.957914  0  0  0.001813  0  3.975341  0  0  -0.056715  -0.005403  0  3.946756  0
C  C28  1  0.80848072  0.10203457  0.60433262  1  0  -0.100822  0  3.695332  0  0  -0.118041  0  3.951368  0  0  -0.124137  0  3.970128  0  0  -0.076238  -0.114243  0  3.93864  0
C  C29  1  0.19151976  0.89796607  0.39566480  1  0  -0.100828  0  3.695412  0  0  -0.118018  0  3.951451  0  0  -0.124113  0  3.970213  0  0  -0.076225  -0.114219  0  3.938719  0
C  C30  1  0.68567977  0.16750061  0.52883317  1  0  0.159926  0  3.654043  0  0  0.132667  0  3.910588  0  0  0.142528  0  3.924182  0  0  0.060595  0.12644  0  3.90061  0
C  C31  1  0.31432341  0.83249893  0.47116432  1  0  0.15998  0  3.654079  0  0  0.132732  0  3.910637  0  0  0.142595  0  3.924216  0  0  0.060654  0.12651  0  3.900654  0
C  C32  1  0.37952560  0.33315178  0.74404700  1  0  0.182977  0  3.760962  0  0  0.18192  0  4.002435  0  0  0.190271  0  4.021035  0  0  0.122875  0.176007  0  3.990181  0
C  C33  1  0.62048190  0.66685004  0.25594702  1  0  0.183232  0  3.760865  0  0  0.182058  0  4.002346  0  0  0.190409  0  4.020942  0  0  0.122877  0.176146  0  3.99009  0
C  C34  1  0.32386880  0.35001074  0.86502180  1  0  -0.133997  0  3.703069  0  0  -0.151124  0  3.947166  0  0  -0.158271  0  3.967836  0  0  -0.076194  -0.146461  0  3.9328  0
C  C35  1  0.67614136  0.64999332  0.13497226  1  0  -0.134246  0  3.703228  0  0  -0.151308  0  3.947354  0  0  -0.158473  0  3.968002  0  0  -0.076304  -0.146645  0  3.932998  0
C  C36  1  0.18990366  0.43934902  0.89818131  1  0  -0.001294  0  3.722947  0  0  -0.020684  0  3.972987  0  0  -0.016452  0  3.99133  0  0  -0.06379  -0.022656  0  3.959795  0
C  C37  1  0.81009473  0.56065053  0.10181179  1  0  -0.001114  0  3.723227  0  0  -0.020564  0  3.973203  0  0  -0.016328  0  3.991556  0  0  -0.063654  -0.022559  0  3.96001  0
C  C38  1  0.11241135  0.50902494  0.80961272  1  0  -0.112084  0  3.656279  0  0  -0.125877  0  3.906815  0  0  -0.133247  0  3.925235  0  0  -0.078143  -0.121155  0  3.894683  0
C  C39  1  0.88759126  0.49098018  0.19038247  1  0  -0.112235  0  3.656382  0  0  -0.125963  0  3.906874  0  0  -0.133331  0  3.925292  0  0  -0.078189  -0.121242  0  3.894747  0
C  C40  1  0.17200464  0.48561805  0.68943736  1  0  0.179853  0  3.629772  0  0  0.153179  0  3.881139  0  0  0.165172  0  3.893004  0  0  0.064652  0.145293  0  3.872781  0
C  C41  1  0.82799800  0.51438373  0.31055786  1  0  0.180053  0  3.629799  0  0  0.153341  0  3.881098  0  0  0.165329  0  3.892959  0  0  0.064686  0.145457  0  3.872733  0
C  C42  1  0.43872661  0.10947972  0.08715440  1  0  -0.074954  0  3.76575  0  0  -0.05245  0  3.998314  0  0  -0.058618  0  4.019098  0  0  -0.018829  -0.048425  0  3.98421  0
C  C43  1  0.56128069  0.89052195  0.91285636  1  0  -0.074911  0  3.765834  0  0  -0.052465  0  3.998413  0  0  -0.058636  0  4.019196  0  0  -0.0188  -0.048444  0  3.984314  0
C  C44  1  0.65536767  0.09592404  0.12785079  1  0  -0.071247  0  3.707809  0  0  -0.095042  0  3.955725  0  0  -0.094882  0  3.973229  0  0  -0.084435  -0.09475  0  3.943436  0
C  C45  1  0.34464554  0.90407990  0.87215859  1  0  -0.071277  0  3.707823  0  0  -0.095049  0  3.955758  0  0  -0.094878  0  3.973254  0  0  -0.084521  -0.094759  0  3.943472  0
C  C46  1  0.28523838  0.01278014  0.95911274  1  0  -0.079269  0  3.739679  0  0  -0.102257  0  3.991628  0  0  -0.103067  0  4.010733  0  0  -0.085437  -0.101187  0  3.978063  0
C  C47  1  0.71477109  0.98722268  0.04089582  1  0  -0.079344  0  3.739589  0  0  -0.102341  0  3.991575  0  0  -0.103158  0  4.0107  0  0  -0.085527  -0.101269  0  3.978009  0
C  C48  1  0.36198799  0.22203265  0.17749300  1  0  0.643602  0  3.882637  0  0  0.599349  0  4.186437  0  0  0.635185  0  4.175813  0  0  0.21383  0.575215  0  4.192596  0
C  C49  1  0.63801395  0.77797125  0.82251390  1  0  0.643544  0  3.882599  0  0  0.599406  0  4.186246  0  0  0.635237  0  4.175606  0  0  0.21387  0.575275  0  4.192401  0
N  N50  1  0.54325844  0.23476195  0.57438285  1  0  -0.379002  0  3.277355  0  0  -0.338065  0  3.54211  0  0  -0.359536  0  3.565794  0  0  -0.353544  -0.32372  0  3.525629  0
N  N51  1  0.45674632  0.76524094  0.42561483  1  0  -0.378942  0  3.277324  0  0  -0.338099  0  3.542118  0  0  -0.359539  0  3.565786  0  0  -0.353621  -0.323759  0  3.525643  0
N  N52  1  0.30263466  0.40068638  0.65799382  1  0  -0.385697  0  3.310134  0  0  -0.345629  0  3.575392  0  0  -0.369423  0  3.602569  0  0  -0.360087  -0.329875  0  3.557329  0
N  N53  1  0.69736960  0.59931541  0.34200162  1  0  -0.385972  0  3.310085  0  0  -0.345822  0  3.575292  0  0  -0.369594  0  3.602467  0  0  -0.360082  -0.330067  0  3.557229  0
O  O54  1  0.29868648  0.49556618  0.43947344  1  0  -0.80026  0  1.527177  0  0  -0.833998  0  1.823206  0  0  -0.873181  0  1.826528  0  0  -0.603402  -0.807552  0  1.82066  0
O  O55  1  0.70130061  0.50443330  0.56051997  1  0  -0.800199  0  1.527064  0  0  -0.833984  0  1.823169  0  0  -0.873112  0  1.826445  0  0  -0.603381  -0.807541  0  1.820628  0
O  O56  1  0.21315106  0.26952918  0.12673578  1  0  -0.56406  0  1.910928  0  0  -0.526033  0  2.134699  0  0  -0.54696  0  2.127016  0  0  -0.29545  -0.510571  0  2.1393  0
O  O57  1  0.78684239  0.73046355  0.87327068  1  0  -0.564007  0  1.910876  0  0  -0.526019  0  2.13459  0  0  -0.546946  0  2.12691  0  0  -0.295452  -0.510555  0  2.139189  0
O  O58  1  0.46339373  0.25984069  0.30962761  1  0  -0.668809  0  2.11455  0  0  -0.640937  0  2.39326  0  0  -0.675505  0  2.39113  0  0  -0.373295  -0.61701  0  2.393782  0
O  O59  1  0.53660291  0.74015539  0.69037926  1  0  -0.668872  0  2.114635  0  0  -0.640991  0  2.393194  0  0  -0.675563  0  2.391173  0  0  -0.373307  -0.617066  0  2.393729  0
O  O60  1  0.09777373  0.21286813  0.39813909  1  0  -0.693554  0  1.326508  0  0  -0.70942  0  1.578989  0  0  -0.740546  0  1.57707  0  0  -0.579101  -0.688813  0  1.580326  0
O  O61  1  0.90221167  0.78712456  0.60186626  1  0  -0.693497  0  1.326324  0  0  -0.709355  0  1.578807  0  0  -0.74044  0  1.57692  0  0  -0.579035  -0.688749  0  1.58015  0
