# generated using pymatgen
data_ZnH16C14(SN3)2
_symmetry_space_group_name_H-M   'P 1'
_cell_length_a   8.01254104
_cell_length_b   8.78272452
_cell_length_c   12.07356233
_cell_angle_alpha   89.99994405
_cell_angle_beta   90.00025399
_cell_angle_gamma   99.79290508
_symmetry_Int_Tables_number   1
_chemical_formula_structural   ZnH16C14(SN3)2
_chemical_formula_sum   'Zn2 H32 C28 S4 N12'
_cell_volume   837.25988042
_cell_formula_units_Z   2
loop_
 _symmetry_equiv_pos_site_id
 _symmetry_equiv_pos_as_xyz
  1  'x, y, z'
loop_
 _atom_site_type_symbol
 _atom_site_label
 _atom_site_symmetry_multiplicity
 _atom_site_fract_x
 _atom_site_fract_y
 _atom_site_fract_z
 _atom_site_occupancy
 _atom_site_hle17_bader_spin_density
 _atom_site_hle17_ddec_charge
 _atom_site_hle17_ddec_spin_density
 _atom_site_hle17_ddec_sum_bond_order
 _atom_site_hle17_magmom
 _atom_site_hse06_10hf_bader_charge
 _atom_site_hse06_10hf_bader_spin_density
 _atom_site_hse06_10hf_ddec_charge
 _atom_site_hse06_10hf_ddec_spin_density
 _atom_site_hse06_10hf_ddec_sum_bond_order
 _atom_site_hse06_10hf_magmom
 _atom_site_hse06_bader_spin_density
 _atom_site_hse06_ddec_charge
 _atom_site_hse06_ddec_spin_density
 _atom_site_hse06_ddec_sum_bond_order
 _atom_site_hse06_magmom
 _atom_site_pbe_bader_spin_density
 _atom_site_pbe_cm5_charge
 _atom_site_pbe_ddec_charge
 _atom_site_pbe_ddec_spin_density
 _atom_site_pbe_ddec_sum_bond_order
 _atom_site_pbe_magmom
Zn  Zn0  1  0.00000315  0.00000107  0.49999908  1  0  0.923131  0  1.956693  0  1.283222  0  0.741508  0  2.395428  0  0  0.782307  0  2.355804  0  0  0.684384  0.713679  0  2.421909  0
Zn  Zn1  1  0.49999912  0.49999855  0.00000055  1  0  0.922998  0  1.956698  0  1.283265  0  0.74135  0  2.395421  0  0  0.782144  0  2.355809  0  0  0.684377  0.713519  0  2.421906  0
H  H2  1  0.96502848  0.66603232  0.60211675  1  0  0.069598  0  0.97016  0  0.105929  0  0.074156  0  1.044485  0  0  0.076534  0  1.042561  0  0  0.106842  0.07238  0  1.045965  0
H  H3  1  0.53497486  0.83396900  0.10211616  1  0  0.069596  0  0.970243  0  0.105949  0  0.074162  0  1.044578  0  0  0.076537  0  1.042655  0  0  0.106857  0.072387  0  1.046058  0
H  H4  1  0.03497117  0.33397390  0.39788333  1  0  0.069609  0  0.970177  0  0.105923  0  0.07418  0  1.044492  0  0  0.076558  0  1.04257  0  0  0.106848  0.072401  0  1.045972  0
H  H5  1  0.46502527  0.16602681  0.89788309  1  0  0.069605  0  0.970236  0  0.105892  0  0.074171  0  1.044562  0  0  0.076547  0  1.04264  0  0  0.106858  0.072397  0  1.046045  0
H  H6  1  0.79601087  0.40258076  0.57806073  1  0  0.103046  0  0.967064  0  0.107173  0  0.10932  0  1.032101  0  0  0.11249  0  1.031637  0  0  0.098287  0.10706  0  1.032571  0
H  H7  1  0.70398412  0.09742133  0.07805500  1  0  0.103063  0  0.967114  0  0.10683  0  0.109328  0  1.032153  0  0  0.112495  0  1.031691  0  0  0.098272  0.107065  0  1.032605  0
H  H8  1  0.20398107  0.59742435  0.42194349  1  0  0.103065  0  0.967052  0  0.106802  0  0.10933  0  1.032099  0  0  0.112498  0  1.031637  0  0  0.098274  0.107068  0  1.032568  0
H  H9  1  0.29601045  0.90257798  0.92194259  1  0  0.103043  0  0.967095  0  0.106807  0  0.109308  0  1.032146  0  0  0.112477  0  1.031683  0  0  0.098264  0.107045  0  1.03262  0
H  H10  1  0.58939113  0.35495830  0.41960266  1  0  0.095033  0  0.973889  0  0.137808  0  0.104832  0  1.037315  0  0  0.107041  0  1.036618  0  0  0.098537  0.103185  0  1.037863  0
H  H11  1  0.91059969  0.14504257  0.91959565  1  0  0.09497  0  0.973997  0  0.138204  0  0.104834  0  1.037361  0  0  0.107032  0  1.036678  0  0  0.098553  0.103192  0  1.037909  0
H  H12  1  0.41059956  0.64504682  0.58040239  1  0  0.094987  0  0.974084  0  0.138157  0  0.104828  0  1.037452  0  0  0.107036  0  1.036758  0  0  0.09855  0.103183  0  1.037998  0
H  H13  1  0.08939385  0.85495790  0.08040029  1  0  0.094975  0  0.973983  0  0.137904  0  0.104831  0  1.03734  0  0  0.107029  0  1.036657  0  0  0.098523  0.103186  0  1.037888  0
H  H14  1  0.72959008  0.83534003  0.33464765  1  0  0.071247  0  0.979688  0  0.085619  0  0.077953  0  1.05124  0  0  0.079644  0  1.050412  0  0  0.108129  0.076667  0  1.051961  0
H  H15  1  0.77041063  0.66465893  0.83464933  1  0  0.071253  0  0.979697  0  0.085665  0  0.077963  0  1.051248  0  0  0.079655  0  1.050418  0  0  0.10815  0.076677  0  1.051967  0
H  H16  1  0.27041388  0.16466270  0.66534829  1  0  0.071303  0  0.97968  0  0.085681  0  0.078003  0  1.051223  0  0  0.079696  0  1.050392  0  0  0.108162  0.076718  0  1.051945  0
H  H17  1  0.22959369  0.33533917  0.16535158  1  0  0.071254  0  0.9797  0  0.085647  0  0.077962  0  1.051241  0  0  0.079653  0  1.050413  0  0  0.108149  0.076676  0  1.051962  0
H  H18  1  0.41266975  0.49628492  0.28404335  1  0  0.064816  0  0.939608  0  0.026229  0  0.080161  0  1.007307  0  0  0.079948  0  1.008292  0  0  0.102546  0.080201  0  1.006768  0
H  H19  1  0.08732854  0.00371002  0.78404130  1  0  0.064777  0  0.939616  0  0.026158  0  0.080118  0  1.007306  0  0  0.079919  0  1.008274  0  0  0.102492  0.080144  0  1.006783  0
H  H20  1  0.58733332  0.50371318  0.71595755  1  0  0.064816  0  0.939577  0  0.02608  0  0.080126  0  1.007313  0  0  0.079919  0  1.008289  0  0  0.102521  0.080152  0  1.006788  0
H  H21  1  0.91267079  0.99628810  0.21595878  1  0  0.064776  0  0.939699  0  0.026276  0  0.08013  0  1.007391  0  0  0.079929  0  1.00836  0  0  0.102506  0.080156  0  1.006868  0
H  H22  1  0.50483746  0.68064307  0.23563766  1  0  0.061771  0  0.945457  0  0.040536  0  0.076833  0  1.011872  0  0  0.077098  0  1.011785  0  0  0.101792  0.076567  0  1.012002  0
H  H23  1  0.99515342  0.81935366  0.73563574  1  0  0.06177  0  0.945487  0  0.040507  0  0.076837  0  1.011868  0  0  0.077102  0  1.011785  0  0  0.101775  0.076572  0  1.011996  0
H  H24  1  0.49515915  0.31935391  0.76435994  1  0  0.06176  0  0.945455  0  0.040519  0  0.076821  0  1.011861  0  0  0.077085  0  1.011776  0  0  0.101783  0.076557  0  1.01199  0
H  H25  1  0.00484613  0.18064563  0.26436185  1  0  0.061757  0  0.945478  0  0.040533  0  0.076839  0  1.011868  0  0  0.077103  0  1.011785  0  0  0.101775  0.076573  0  1.011997  0
H  H26  1  0.60735281  0.38095225  0.18628794  1  0  0.272962  0  0.929183  0  0.424236  0  0.260168  0  0.997208  0  0  0.265813  0  0.993645  0  0  0.2733  0.256125  0  0.999822  0
H  H27  1  0.89264722  0.11904632  0.68628504  1  0  0.272964  0  0.929206  0  0.424239  0  0.260191  0  0.997209  0  0  0.265836  0  0.99365  0  0  0.273309  0.256153  0  0.999816  0
H  H28  1  0.39265003  0.61904470  0.81371380  1  0  0.272997  0  0.929207  0  0.424247  0  0.260204  0  0.997221  0  0  0.265849  0  0.99366  0  0  0.273321  0.256164  0  0.999831  0
H  H29  1  0.10735483  0.88095295  0.31371173  1  0  0.272993  0  0.929136  0  0.424551  0  0.260201  0  0.997162  0  0  0.265848  0  0.9936  0  0  0.2733  0.256158  0  0.999776  0
H  H30  1  0.73196148  0.54328651  0.15742251  1  0  0.272058  0  0.944985  0  0.451182  0  0.260507  0  1.010419  0  0  0.26614  0  1.007118  0  0  0.267759  0.256482  0  1.012837  0
H  H31  1  0.76803724  0.95671482  0.65741818  1  0  0.272028  0  0.945001  0  0.451141  0  0.260482  0  1.01043  0  0  0.266114  0  1.007135  0  0  0.267757  0.25646  0  1.012848  0
H  H32  1  0.26803909  0.45671161  0.84257756  1  0  0.272073  0  0.944979  0  0.451175  0  0.260522  0  1.010409  0  0  0.266153  0  1.007114  0  0  0.267768  0.2565  0  1.012829  0
H  H33  1  0.23196774  0.04328674  0.34257610  1  0  0.272036  0  0.944996  0  0.451123  0  0.260499  0  1.010416  0  0  0.266133  0  1.007119  0  0  0.267732  0.256474  0  1.012833  0
C  C34  1  0.68033944  0.10027550  0.37559598  1  0  0.289487  0  4.044419  0  0.535601  0  0.273311  0  4.345342  0  0  0.294888  0  4.357718  0  0  0.140906  0.258712  0  4.336529  0
C  C35  1  0.81965719  0.39973113  0.87561503  1  0  0.289441  0  4.044925  0  0.536864  0  0.273256  0  4.345841  0  0  0.294829  0  4.358206  0  0  0.14087  0.258657  0  4.337037  0
C  C36  1  0.31967360  0.89972254  0.62440824  1  0  0.289363  0  4.04443  0  0.535736  0  0.273182  0  4.345385  0  0  0.294761  0  4.357768  0  0  0.14078  0.258581  0  4.336565  0
C  C37  1  0.18034904  0.60027042  0.12438919  1  0  0.289384  0  4.045158  0  0.537074  0  0.273189  0  4.346079  0  0  0.294761  0  4.358443  0  0  0.140867  0.258594  0  4.337271  0
C  C38  1  0.87065050  0.64278282  0.53655519  1  0  0.11784  0  3.707077  0  0.433444  0  0.085435  0  3.961587  0  0  0.091934  0  3.979868  0  0  0.041658  0.081308  0  3.949149  0
C  C39  1  0.62934822  0.85721623  0.03655403  1  0  0.117841  0  3.707072  0  0.433414  0  0.085387  0  3.961621  0  0  0.091891  0  3.979897  0  0  0.041617  0.08126  0  3.94918  0
C  C40  1  0.12934598  0.35721995  0.46344489  1  0  0.117763  0  3.707015  0  0.433435  0  0.085328  0  3.961576  0  0  0.091824  0  3.979859  0  0  0.041569  0.081202  0  3.949134  0
C  C41  1  0.37065067  0.14277959  0.96344439  1  0  0.117761  0  3.707152  0  0.433458  0  0.085336  0  3.961694  0  0  0.091836  0  3.979973  0  0  0.041578  0.081207  0  3.949261  0
C  C42  1  0.77779767  0.49504300  0.52151315  1  0  -0.119969  0  3.756275  0  0.004327  0  -0.129123  0  4.007964  0  0  -0.136505  0  4.030655  0  0  -0.086839  -0.12443  0  3.992739  0
C  C43  1  0.72219818  0.00495911  0.02150920  1  0  -0.119981  0  3.756118  0  0.004749  0  -0.129107  0  4.007838  0  0  -0.136486  0  4.030525  0  0  -0.086751  -0.124396  0  3.992627  0
C  C44  1  0.22219801  0.50496209  0.47849024  1  0  -0.119999  0  3.75611  0  0.005141  0  -0.129149  0  4.007818  0  0  -0.13653  0  4.030508  0  0  -0.086759  -0.124454  0  3.992594  0
C  C45  1  0.27779616  0.99503904  0.97848922  1  0  -0.120003  0  3.756284  0  0.004687  0  -0.129159  0  4.008003  0  0  -0.13654  0  4.030691  0  0  -0.08677  -0.12446  0  3.992788  0
C  C46  1  0.66435187  0.46907742  0.43366154  1  0  -0.046264  0  3.695642  0  -0.079299  0  -0.071794  0  3.936449  0  0  -0.069589  0  3.956461  0  0  -0.068487  -0.072861  0  3.922819  0
C  C47  1  0.83564030  0.03092345  0.93365605  1  0  -0.046165  0  3.695661  0  -0.079695  0  -0.071808  0  3.936492  0  0  -0.069599  0  3.956512  0  0  -0.068566  -0.07287  0  3.922848  0
C  C48  1  0.33564257  0.53092768  0.56634185  1  0  -0.046146  0  3.695787  0  -0.08011  0  -0.071695  0  3.936522  0  0  -0.069491  0  3.956534  0  0  -0.0685  -0.072759  0  3.922885  0
C  C49  1  0.16435302  0.96907587  0.06634071  1  0  -0.04609  0  3.69575  0  -0.079464  0  -0.07164  0  3.93648  0  0  -0.069429  0  3.9565  0  0  -0.068428  -0.072709  0  3.922854  0
C  C50  1  0.64772141  0.59101898  0.36218464  1  0  0.012711  0  3.730269  0  -0.01531  0  0.042509  0  3.963049  0  0  0.037343  0  3.987326  0  0  -0.011069  0.045645  0  3.946796  0
C  C51  1  0.85227619  0.90898230  0.86218224  1  0  0.01258  0  3.730432  0  -0.015349  0  0.042445  0  3.963101  0  0  0.037282  0  3.98738  0  0  -0.011041  0.045584  0  3.94685  0
C  C52  1  0.35227801  0.40898608  0.63781544  1  0  0.012615  0  3.730345  0  -0.015385  0  0.042426  0  3.96307  0  0  0.03726  0  3.987348  0  0  -0.011134  0.045561  0  3.946819  0
C  C53  1  0.14772336  0.09101698  0.13781535  1  0  0.012616  0  3.730477  0  -0.015316  0  0.042404  0  3.963252  0  0  0.037237  0  3.987532  0  0  -0.011134  0.045542  0  3.946997  0
C  C54  1  0.74267525  0.73577929  0.38582150  1  0  0.07783  0  3.68  0  0.497881  0  0.043232  0  3.922199  0  0  0.049167  0  3.940261  0  0  0.040608  0.039382  0  3.910066  0
C  C55  1  0.75732456  0.76421966  0.88582141  1  0  0.077855  0  3.680011  0  0.497832  0  0.043221  0  3.922184  0  0  0.049153  0  3.940246  0  0  0.040561  0.03937  0  3.910052  0
C  C56  1  0.25732747  0.26422344  0.61417692  1  0  0.077728  0  3.680001  0  0.497892  0  0.04314  0  3.922185  0  0  0.049075  0  3.940245  0  0  0.04059  0.039287  0  3.910057  0
C  C57  1  0.24267579  0.23577730  0.11417784  1  0  0.07777  0  3.680058  0  0.497897  0  0.043193  0  3.922239  0  0  0.049129  0  3.940298  0  0  0.040602  0.039345  0  3.910104  0
C  C58  1  0.53380516  0.56863631  0.26222061  1  0  0.041759  0  3.680727  0  0.351736  0  -0.021834  0  3.938419  0  0  -0.016809  0  3.950939  0  0  -0.071064  -0.025121  0  3.929901  0
C  C59  1  0.96618964  0.93136039  0.76221936  1  0  0.041877  0  3.680797  0  0.351895  0  -0.021675  0  3.938352  0  0  -0.016661  0  3.950877  0  0  -0.070948  -0.024957  0  3.929841  0
C  C60  1  0.46619564  0.43136297  0.73777863  1  0  0.041829  0  3.680658  0  0.351892  0  -0.021735  0  3.938311  0  0  -0.016712  0  3.950826  0  0  -0.071014  -0.025011  0  3.929796  0
C  C61  1  0.03380889  0.06864005  0.23777823  1  0  0.041891  0  3.680825  0  0.35171  0  -0.02173  0  3.938502  0  0  -0.016713  0  3.951029  0  0  -0.070994  -0.025009  0  3.929988  0
S  S62  1  0.53411884  0.10303678  0.28253541  1  0  -0.384262  0  2.04732  0  0.009404  0  -0.362979  0  2.340144  0  0  -0.37727  0  2.335032  0  0  -0.162471  -0.352843  0  2.343429  0
S  S63  1  0.96588215  0.39696985  0.78254744  1  0  -0.384468  0  2.047146  0  0.009295  0  -0.363195  0  2.339985  0  0  -0.377483  0  2.33487  0  0  -0.162537  -0.353053  0  2.343278  0
S  S64  1  0.46588877  0.89695898  0.71746384  1  0  -0.38415  0  2.047638  0  0.009513  0  -0.362872  0  2.340476  0  0  -0.377159  0  2.335368  0  0  -0.162401  -0.352734  0  2.343762  0
S  S65  1  0.03411660  0.60303175  0.21745844  1  0  -0.384495  0  2.046952  0  0.009179  0  -0.363204  0  2.339773  0  0  -0.377495  0  2.334657  0  0  -0.162579  -0.353062  0  2.343065  0
N  N66  1  0.78888714  0.09879302  0.44239913  1  0  -0.542073  0  2.88364  0  -1.315795  0  -0.485549  0  3.159275  0  0  -0.504877  0  3.16462  0  0  -0.389234  -0.472426  0  3.155435  0
N  N67  1  0.71112503  0.40120772  0.94241289  1  0  -0.541813  0  2.884283  0  -1.316986  0  -0.485291  0  3.159903  0  0  -0.504608  0  3.165242  0  0  -0.389146  -0.472171  0  3.156068  0
N  N68  1  0.21111660  0.90120855  0.55759681  1  0  -0.542067  0  2.883281  0  -1.316052  0  -0.485552  0  3.158954  0  0  -0.504884  0  3.164303  0  0  -0.389184  -0.472422  0  3.155105  0
N  N69  1  0.28887430  0.59879040  0.05759547  1  0  -0.541705  0  2.88461  0  -1.317072  0  -0.485182  0  3.160228  0  0  -0.504497  0  3.165568  0  0  -0.389107  -0.472065  0  3.156396  0
N  N70  1  0.85197424  0.76247049  0.47097298  1  0  -0.309297  0  3.258169  0  -1.289201  0  -0.232308  0  3.51729  0  0  -0.249475  0  3.535979  0  0  -0.318591  -0.220746  0  3.50446  0
N  N71  1  0.64802739  0.73752843  0.97097426  1  0  -0.30933  0  3.258169  0  -1.289186  0  -0.232302  0  3.517283  0  0  -0.249466  0  3.53597  0  0  -0.318594  -0.220739  0  3.504454  0
N  N72  1  0.14802701  0.23753109  0.52902461  1  0  -0.309209  0  3.258084  0  -1.289161  0  -0.23222  0  3.517207  0  0  -0.249386  0  3.535897  0  0  -0.318571  -0.220657  0  3.504375  0
N  N73  1  0.35197421  0.26246853  0.02902499  1  0  -0.309193  0  3.258125  0  -1.289163  0  -0.232222  0  3.517262  0  0  -0.249386  0  3.535948  0  0  -0.318565  -0.22066  0  3.504433  0
N  N74  1  0.60648511  0.49501645  0.16733988  1  0  -0.609804  0  3.112598  0  -1.153122  0  -0.555519  0  3.355358  0  0  -0.574612  0  3.354635  0  0  -0.614787  -0.542074  0  3.355591  0
N  N75  1  0.89351502  0.00498328  0.66733707  1  0  -0.60983  0  3.112652  0  -1.153126  0  -0.555607  0  3.355398  0  0  -0.574694  0  3.354656  0  0  -0.61482  -0.542164  0  3.355627  0
N  N76  1  0.39351671  0.50498166  0.83266102  1  0  -0.609874  0  3.112616  0  -1.153111  0  -0.555583  0  3.355356  0  0  -0.57468  0  3.354632  0  0  -0.614802  -0.542138  0  3.355585  0
N  N77  1  0.10648850  0.99501714  0.33266136  1  0  -0.609882  0  3.112588  0  -1.15337  0  -0.555618  0  3.355315  0  0  -0.574696  0  3.35454  0  0  -0.61477  -0.542172  0  3.35554  0
