# generated using pymatgen
data_ZnH10C10S(N2O)2
_symmetry_space_group_name_H-M   'P 1'
_cell_length_a   9.59326896
_cell_length_b   11.92563809
_cell_length_c   13.99000000
_cell_angle_alpha   93.07114918
_cell_angle_beta   90.00000000
_cell_angle_gamma   90.00000000
_symmetry_Int_Tables_number   1
_chemical_formula_structural   ZnH10C10S(N2O)2
_chemical_formula_sum   'Zn4 H40 C40 S4 N16 O8'
_cell_volume   1598.23916071
_cell_formula_units_Z   4
loop_
 _symmetry_equiv_pos_site_id
 _symmetry_equiv_pos_as_xyz
  1  'x, y, z'
loop_
 _atom_site_type_symbol
 _atom_site_label
 _atom_site_symmetry_multiplicity
 _atom_site_fract_x
 _atom_site_fract_y
 _atom_site_fract_z
 _atom_site_occupancy
 _atom_site_hle17_bader_spin_density
 _atom_site_hle17_ddec_charge
 _atom_site_hle17_ddec_spin_density
 _atom_site_hle17_ddec_sum_bond_order
 _atom_site_hle17_magmom
 _atom_site_hse06_10hf_bader_spin_density
 _atom_site_hse06_10hf_ddec_charge
 _atom_site_hse06_10hf_ddec_spin_density
 _atom_site_hse06_10hf_ddec_sum_bond_order
 _atom_site_hse06_10hf_magmom
 _atom_site_hse06_bader_spin_density
 _atom_site_hse06_ddec_charge
 _atom_site_hse06_ddec_spin_density
 _atom_site_hse06_ddec_sum_bond_order
 _atom_site_hse06_magmom
 _atom_site_pbe_bader_charge
 _atom_site_pbe_bader_spin_density
 _atom_site_pbe_cm5_charge
 _atom_site_pbe_ddec_charge
 _atom_site_pbe_ddec_spin_density
 _atom_site_pbe_ddec_sum_bond_order
 _atom_site_pbe_magmom
Zn  Zn0  1  0.72699619  0.24749192  0.11568117  1  0  1.052367  0  1.850755  0  0  0.86961  0  2.3218  0  0  0.911458  0  2.272287  0  1.24276  0  0.738121  0.840413  0  2.355781  0
Zn  Zn1  1  0.22699874  0.25250766  0.38431767  1  0  1.052299  0  1.850778  0  0  0.869522  0  2.321821  0  0  0.911372  0  2.272312  0  1.242641  0  0.738107  0.840323  0  2.355802  0
Zn  Zn2  1  0.27300183  0.75250975  0.88431805  1  0  1.052374  0  1.850703  0  0  0.869592  0  2.321734  0  0  0.911444  0  2.272222  0  1.242602  0  0.738115  0.840396  0  2.355713  0
Zn  Zn3  1  0.77300553  0.74749401  0.61568083  1  0  1.052341  0  1.85075  0  0  0.86961  0  2.321753  0  0  0.911468  0  2.272243  0  1.242775  0  0.738126  0.840412  0  2.355734  0
H  H4  1  0.61852013  0.32322767  0.92638522  1  0  0.062208  0  0.931222  0  0  0.079372  0  0.983845  0  0  0.081228  0  0.980981  0  0.093324  0  0.120581  0.077944  0  0.985966  0
H  H5  1  0.11851226  0.17677610  0.57361810  1  0  0.062156  0  0.931154  0  0  0.079332  0  0.983767  0  0  0.081194  0  0.980902  0  0.093255  0  0.120555  0.077903  0  0.985891  0
H  H6  1  0.38147997  0.67677567  0.07361622  1  0  0.062189  0  0.931273  0  0  0.079359  0  0.983893  0  0  0.08121  0  0.981033  0  0.093302  0  0.120568  0.077932  0  0.986013  0
H  H7  1  0.88148576  0.82322388  0.42638033  1  0  0.062188  0  0.931163  0  0  0.079386  0  0.983752  0  0  0.081247  0  0.980888  0  0.093265  0  0.120569  0.077957  0  0.985873  0
H  H8  1  0.98594442  0.44004077  0.17252712  1  0  0.118688  0  0.948539  0  0  0.130937  0  1.006608  0  0  0.134882  0  1.003844  0  0.071104  0  0.100337  0.128093  0  1.008704  0
H  H9  1  0.48595948  0.05996888  0.32748076  1  0  0.118698  0  0.948444  0  0  0.130987  0  1.006475  0  0  0.134935  0  1.003704  0  0.071305  0  0.100363  0.128137  0  1.008576  0
H  H10  1  0.01405048  0.55996173  0.82748143  1  0  0.118584  0  0.948388  0  0  0.130839  0  1.006475  0  0  0.134785  0  1.003707  0  0.071225  0  0.100279  0.12799  0  1.008572  0
H  H11  1  0.51403646  0.94002691  0.67251962  1  0  0.118675  0  0.948507  0  0  0.130962  0  1.006539  0  0  0.134909  0  1.00377  0  0.071276  0  0.100342  0.128113  0  1.008638  0
H  H12  1  0.57684925  0.00057270  0.10520700  1  0  0.070547  0  0.927532  0  0  0.082529  0  0.986811  0  0  0.084699  0  0.983569  0  0.095277  0  0.121004  0.080877  0  0.989136  0
H  H13  1  0.07685597  0.49942603  0.39479537  1  0  0.070508  0  0.927673  0  0  0.082497  0  0.986934  0  0  0.084689  0  0.983669  0  0.095016  0  0.120977  0.080846  0  0.989259  0
H  H14  1  0.42313939  0.99942393  0.89479342  1  0  0.070484  0  0.927712  0  0  0.08254  0  0.986895  0  0  0.084731  0  0.98363  0  0.095044  0  0.120993  0.080889  0  0.98922  0
H  H15  1  0.92314831  0.50057647  0.60521175  1  0  0.070517  0  0.9276  0  0  0.082507  0  0.98687  0  0  0.084676  0  0.983629  0  0.095329  0  0.12095  0.080855  0  0.989193  0
H  H16  1  0.99051325  0.78588336  0.97585868  1  0  0.109704  0  0.970752  0  0  0.120246  0  1.034088  0  0  0.123058  0  1.033234  0  0.039963  0  0.096307  0.118169  0  1.034873  0
H  H17  1  0.49052622  0.71411368  0.52414062  1  0  0.109764  0  0.970732  0  0  0.120313  0  1.034055  0  0  0.123125  0  1.033202  0  0.040011  0  0.096331  0.118235  0  1.03484  0
H  H18  1  0.00947539  0.21411410  0.02414821  1  0  0.109762  0  0.970709  0  0  0.120317  0  1.034029  0  0  0.123129  0  1.033175  0  0.040018  0  0.096318  0.118236  0  1.034819  0
H  H19  1  0.50948222  0.28588463  0.47585487  1  0  0.109731  0  0.970733  0  0  0.120279  0  1.034058  0  0  0.123091  0  1.033203  0  0.03999  0  0.096314  0.1182  0  1.034846  0
H  H20  1  0.85165651  0.01252214  0.27522235  1  0  0.195228  0  0.942374  0  0  0.199889  0  1.010649  0  0  0.204738  0  1.007503  0  0.200227  0  0.117296  0.19633  0  1.012982  0
H  H21  1  0.35164656  0.48747408  0.22478205  1  0  0.195195  0  0.942338  0  0  0.199893  0  1.010587  0  0  0.204727  0  1.007451  0  0.200115  0  0.117295  0.196335  0  1.012915  0
H  H22  1  0.14835298  0.98747617  0.72477957  1  0  0.195234  0  0.942397  0  0  0.199878  0  1.010702  0  0  0.204728  0  1.007556  0  0.200076  0  0.117258  0.19632  0  1.01303  0
H  H23  1  0.64835147  0.51252507  0.77521420  1  0  0.19516  0  0.942409  0  0  0.19987  0  1.010646  0  0  0.204706  0  1.007511  0  0.200242  0  0.117289  0.196312  0  1.012975  0
H  H24  1  0.02841888  0.03611619  0.31586245  1  0  0.169778  0  0.908791  0  0  0.18824  0  0.95923  0  0  0.191  0  0.958215  0  0.10079  0  0.118726  0.186182  0  0.960121  0
H  H25  1  0.52840799  0.46388338  0.18413567  1  0  0.169838  0  0.908603  0  0  0.18828  0  0.959084  0  0  0.191037  0  0.958074  0  0.100916  0  0.11874  0.186224  0  0.959973  0
H  H26  1  0.97159373  0.96389387  0.68413858  1  0  0.169863  0  0.908747  0  0  0.188297  0  0.9592  0  0  0.191054  0  0.958191  0  0.101038  0  0.118748  0.186241  0  0.960089  0
H  H27  1  0.47158899  0.53611240  0.81585970  1  0  0.169812  0  0.908637  0  0  0.188261  0  0.95912  0  0  0.19102  0  0.958108  0  0.10091  0  0.118723  0.186205  0  0.960008  0
H  H28  1  0.98027378  0.07638991  0.19748589  1  0  0.182419  0  0.941902  0  0  0.194172  0  1.000417  0  0  0.197065  0  1.000445  0  0.168802  0  0.117466  0.192012  0  1.000581  0
H  H29  1  0.48027216  0.42360463  0.30251414  1  0  0.18242  0  0.94192  0  0  0.194184  0  1.00043  0  0  0.197078  0  1.000457  0  0.168863  0  0.117479  0.192024  0  1.000592  0
H  H30  1  0.01973988  0.92361427  0.80251487  1  0  0.182432  0  0.941982  0  0  0.194202  0  1.00048  0  0  0.197086  0  1.000516  0  0.168943  0  0.117421  0.192046  0  1.000637  0
H  H31  1  0.51973316  0.57639452  0.69748282  1  0  0.18246  0  0.941841  0  0  0.194227  0  1.000356  0  0  0.19712  0  1.000382  0  0.16878  0  0.117471  0.192072  0  1.000513  0
H  H32  1  0.72520431  0.14162981  0.42162339  1  0  0.178318  0  0.953794  0  0  0.189656  0  1.01237  0  0  0.192201  0  1.013075  0  0.145044  0  0.115015  0.187848  0  1.011905  0
H  H33  1  0.22518289  0.35836641  0.07838601  1  0  0.178311  0  0.953785  0  0  0.189651  0  1.012348  0  0  0.192188  0  1.013051  0  0.144595  0  0.11496  0.187841  0  1.011883  0
H  H34  1  0.27481352  0.85836010  0.57838029  1  0  0.178393  0  0.953734  0  0  0.189691  0  1.012317  0  0  0.192231  0  1.013019  0  0.144549  0  0.114999  0.187881  0  1.011855  0
H  H35  1  0.77481618  0.64163106  0.92161373  1  0  0.178332  0  0.953785  0  0  0.189687  0  1.012335  0  0  0.192224  0  1.013039  0  0.144696  0  0.114979  0.187877  0  1.01187  0
H  H36  1  0.81230913  0.26900510  0.46958219  1  0  0.196371  0  0.976525  0  0  0.195631  0  1.050332  0  0  0.201432  0  1.046429  0  0.246791  0  0.115294  0.191534  0  1.053019  0
H  H37  1  0.31229605  0.23098943  0.03041784  1  0  0.196449  0  0.976513  0  0  0.195658  0  1.050335  0  0  0.201459  0  1.046431  0  0.246687  0  0.115276  0.19156  0  1.053023  0
H  H38  1  0.18769619  0.73099068  0.53041890  1  0  0.196433  0  0.976503  0  0  0.195651  0  1.050308  0  0  0.201453  0  1.046403  0  0.246693  0  0.115284  0.191555  0  1.052993  0
H  H39  1  0.68770093  0.76900635  0.96957896  1  0  0.196466  0  0.976448  0  0  0.195688  0  1.05028  0  0  0.201489  0  1.046376  0  0.246751  0  0.11531  0.191591  0  1.052967  0
H  H40  1  0.89716759  0.13237676  0.47152389  1  0  0.162466  0  0.916731  0  0  0.179686  0  0.970496  0  0  0.18171  0  0.970261  0  0.095562  0  0.115109  0.178059  0  0.970956  0
H  H41  1  0.39714825  0.36762533  0.02847792  1  0  0.162452  0  0.916736  0  0  0.179673  0  0.970439  0  0  0.181691  0  0.970209  0  0.095552  0  0.115144  0.178044  0  0.970907  0
H  H42  1  0.10285441  0.86762490  0.52847533  1  0  0.162583  0  0.916655  0  0  0.17975  0  0.9704  0  0  0.181768  0  0.970171  0  0.095519  0  0.115197  0.178122  0  0.970867  0
H  H43  1  0.60284977  0.63237129  0.97151892  1  0  0.162466  0  0.916779  0  0  0.179699  0  0.970496  0  0  0.181717  0  0.970266  0  0.095529  0  0.115144  0.178072  0  0.970958  0
C  C44  1  0.71364621  0.36966925  0.94470208  1  0  0.216528  0  3.831941  0  0  0.168249  0  4.109785  0  0  0.183831  0  4.122731  0  0.966193  0  0.11328  0.158042  0  4.100548  0
C  C45  1  0.21364667  0.13033620  0.55529489  1  0  0.21666  0  3.831809  0  0  0.168392  0  4.109593  0  0  0.183966  0  4.122545  0  0.965998  0  0.113373  0.158183  0  4.100359  0
C  C46  1  0.28634765  0.63033577  0.05530444  1  0  0.216508  0  3.8323  0  0  0.16822  0  4.110167  0  0  0.183809  0  4.12311  0  0.9663  0  0.113284  0.15801  0  4.100931  0
C  C47  1  0.78634927  0.86966126  0.44470271  1  0  0.216519  0  3.831962  0  0  0.168223  0  4.109791  0  0  0.183797  0  4.122743  0  0.965972  0  0.1133  0.158013  0  4.100556  0
C  C48  1  0.89063072  0.43437507  0.02990167  1  0  0.148716  0  3.859648  0  0  0.143924  0  4.105337  0  0  0.147734  0  4.131799  0  0.292189  0  0.065069  0.141301  0  4.087259  0
C  C49  1  0.39063014  0.06562870  0.47011094  1  0  0.148637  0  3.859721  0  0  0.144004  0  4.105325  0  0  0.147813  0  4.131786  0  0.292069  0  0.065014  0.141379  0  4.087249  0
C  C50  1  0.10935897  0.56563667  0.97010372  1  0  0.148773  0  3.859655  0  0  0.144006  0  4.105298  0  0  0.147815  0  4.131763  0  0.291745  0  0.065  0.14138  0  4.08722  0
C  C51  1  0.60937622  0.93437801  0.52989066  1  0  0.148697  0  3.859759  0  0  0.144077  0  4.105292  0  0  0.147888  0  4.131751  0  0.292156  0  0.064998  0.141452  0  4.087218  0
C  C52  1  0.99138469  0.46466182  0.09860153  1  0  -0.253  0  3.75336  0  0  -0.274472  0  4.001618  0  0  -0.279096  0  4.020081  0  0.012337  0  -0.113949  -0.271233  0  3.989091  0
C  C53  1  0.49137995  0.03536043  0.40140549  1  0  -0.25313  0  3.75321  0  0  -0.274582  0  4.001488  0  0  -0.279216  0  4.019963  0  0.012597  0  -0.113963  -0.271339  0  3.988958  0
C  C54  1  0.00860499  0.53534488  0.90140506  1  0  -0.253025  0  3.753388  0  0  -0.274511  0  4.001673  0  0  -0.279135  0  4.020136  0  0.012405  0  -0.113927  -0.271272  0  3.989156  0
C  C55  1  0.50862120  0.96463788  0.59859286  1  0  -0.25316  0  3.75337  0  0  -0.274607  0  4.001668  0  0  -0.279233  0  4.020129  0  0.012555  0  -0.113949  -0.271366  0  3.989141  0
C  C56  1  0.10079359  0.53158623  0.06708115  1  0  0.138529  0  3.856196  0  0  0.142927  0  4.102349  0  0  0.145358  0  4.127023  0  0.37686  0  0.067969  0.141288  0  4.085448  0
C  C57  1  0.60077957  0.96841585  0.43291337  1  0  0.138905  0  3.855666  0  0  0.143039  0  4.102139  0  0  0.145469  0  4.126814  0  0.376578  0  0.068028  0.1414  0  4.085237  0
C  C58  1  0.89919505  0.46841880  0.93292251  1  0  0.138779  0  3.856157  0  0  0.143153  0  4.102359  0  0  0.145584  0  4.12703  0  0.376792  0  0.068018  0.141511  0  4.085457  0
C  C59  1  0.39921116  0.03157238  0.56708309  1  0  0.138909  0  3.855632  0  0  0.142984  0  4.102204  0  0  0.145414  0  4.126878  0  0.376807  0  0.068014  0.141346  0  4.085302  0
C  C60  1  0.68294864  0.99847502  0.07761141  1  0  0.241839  0  3.802833  0  0  0.189505  0  4.083157  0  0  0.205713  0  4.095602  0  0.989604  0  0.121941  0.178949  0  4.074018  0
C  C61  1  0.18296057  0.50152789  0.42238672  1  0  0.241831  0  3.802917  0  0  0.189487  0  4.083239  0  0  0.205674  0  4.095692  0  0.990223  0  0.121967  0.178927  0  4.074102  0
C  C62  1  0.31704104  0.00152412  0.92239055  1  0  0.241827  0  3.802979  0  0  0.189428  0  4.083296  0  0  0.205616  0  4.095747  0  0.990227  0  0.121896  0.178869  0  4.074158  0
C  C63  1  0.81704996  0.49847461  0.57761039  1  0  0.241833  0  3.802752  0  0  0.189488  0  4.083086  0  0  0.205696  0  4.095534  0  0.989619  0  0.121962  0.178932  0  4.073944  0
C  C64  1  0.87936970  0.93988415  0.01975971  1  0  0.147472  0  3.85986  0  0  0.149362  0  4.105235  0  0  0.152025  0  4.130352  0  0.431513  0  0.066159  0.147522  0  4.088168  0
C  C65  1  0.37938163  0.56011289  0.48023315  1  0  0.147492  0  3.860053  0  0  0.149374  0  4.10537  0  0  0.152036  0  4.130487  0  0.432121  0  0.066107  0.147533  0  4.088301  0
C  C66  1  0.12061895  0.06010911  0.98024413  1  0  0.147768  0  3.859819  0  0  0.149657  0  4.105167  0  0  0.152321  0  4.130283  0  0.431895  0  0.06622  0.147815  0  4.088099  0
C  C67  1  0.62062786  0.43988962  0.51975967  1  0  0.147405  0  3.860011  0  0  0.149293  0  4.105391  0  0  0.151955  0  4.130509  0  0.431231  0  0.066102  0.147453  0  4.088321  0
C  C68  1  0.99378742  0.87734736  0.98505874  1  0  -0.258594  0  3.767159  0  0  -0.277002  0  4.013623  0  0  -0.281635  0  4.033106  0  -0.06311  0  -0.118849  -0.273745  0  4.000444  0
C  C69  1  0.49379414  0.62265051  0.51493773  1  0  -0.258741  0  3.767134  0  0  -0.277165  0  4.013617  0  0  -0.281798  0  4.0331  0  -0.063107  0  -0.118937  -0.273911  0  4.000445  0
C  C70  1  0.00620122  0.12264926  0.01493953  1  0  -0.258919  0  3.766862  0  0  -0.277351  0  4.013324  0  0  -0.281985  0  4.032806  0  -0.063504  0  -0.118995  -0.274092  0  4.000148  0
C  C71  1  0.50621431  0.37734947  0.48505855  1  0  -0.258588  0  3.767223  0  0  -0.277028  0  4.013647  0  0  -0.281663  0  4.033133  0  -0.06313  0  -0.118828  -0.273769  0  4.000466  0
C  C72  1  0.88721895  0.05981941  0.03394355  1  0  0.124852  0  3.907612  0  0  0.122145  0  4.149129  0  0  0.125376  0  4.176127  0  0.330102  0  0.05888  0.1199  0  4.130762  0
C  C73  1  0.38723505  0.44017765  0.46605445  1  0  0.124621  0  3.908041  0  0  0.121995  0  4.149423  0  0  0.125231  0  4.176413  0  0.329677  0  0.058827  0.119751  0  4.131055  0
C  C74  1  0.11276448  0.94017386  0.96605028  1  0  0.124585  0  3.907919  0  0  0.121877  0  4.149426  0  0  0.125112  0  4.176415  0  0.329981  0  0.058797  0.119632  0  4.13106  0
C  C75  1  0.61277548  0.55982486  0.53394266  1  0  0.124751  0  3.907728  0  0  0.122037  0  4.149253  0  0  0.125269  0  4.17625  0  0.33019  0  0.058859  0.119791  0  4.130887  0
C  C76  1  0.94412969  0.06713602  0.27118478  1  0  -0.501083  0  3.511017  0  0  -0.565697  0  3.747254  0  0  -0.57286  0  3.748178  0  -0.322922  0  -0.218949  -0.560567  0  3.746866  0
C  C77  1  0.44412181  0.43286019  0.22881676  1  0  -0.501054  0  3.510808  0  0  -0.565681  0  3.747039  0  0  -0.572825  0  3.747982  0  -0.323103  0  -0.218903  -0.560564  0  3.746677  0
C  C78  1  0.05587876  0.93286564  0.72881515  1  0  -0.501201  0  3.511132  0  0  -0.565773  0  3.747341  0  0  -0.572927  0  3.748271  0  -0.323009  0  -0.218852  -0.560656  0  3.746973  0
C  C79  1  0.55587621  0.56713895  0.77118091  1  0  -0.50107  0  3.510856  0  0  -0.565732  0  3.747136  0  0  -0.572881  0  3.748073  0  -0.323045  0  -0.218914  -0.56062  0  3.746771  0
C  C80  1  0.82549651  0.18469565  0.43197693  1  0  -0.504522  0  3.521135  0  0  -0.56173  0  3.757973  0  0  -0.569911  0  3.759446  0  -0.316571  0  -0.222987  -0.555962  0  3.757112  0
C  C81  1  0.32547925  0.31530141  0.06802465  1  0  -0.504625  0  3.521175  0  0  -0.561712  0  3.757825  0  0  -0.569877  0  3.759287  0  -0.316093  0  -0.222903  -0.555943  0  3.756963  0
C  C82  1  0.17451715  0.81530182  0.56802210  1  0  -0.504845  0  3.521227  0  0  -0.561849  0  3.757901  0  0  -0.570017  0  3.759361  0  -0.316125  0  -0.222998  -0.556082  0  3.75704  0
C  C83  1  0.67451981  0.68469522  0.93197219  1  0  -0.504634  0  3.520988  0  0  -0.561808  0  3.75778  0  0  -0.569973  0  3.759239  0  -0.316223  0  -0.222947  -0.556038  0  3.756917  0
S  S84  1  0.89960680  0.20198496  0.31964502  1  0  1.307915  0  5.013927  0  0  1.240667  0  5.511962  0  0  1.277679  0  5.499655  0  2.35513  0  0.5003  1.214896  0  5.520023  0
S  S85  1  0.39960414  0.29800957  0.18035501  1  0  1.3079  0  5.013487  0  0  1.240599  0  5.511529  0  0  1.277616  0  5.499208  0  2.355373  0  0.500235  1.214831  0  5.519591  0
S  S86  1  0.10039852  0.79802006  0.68035292  1  0  1.308127  0  5.013814  0  0  1.240808  0  5.511865  0  0  1.27783  0  5.499537  0  2.355082  0  0.500266  1.215037  0  5.519928  0
S  S87  1  0.60039388  0.70198957  0.81964266  1  0  1.307975  0  5.013393  0  0  1.240681  0  5.511486  0  0  1.277701  0  5.499163  0  2.355236  0  0.500237  1.214912  0  5.51955  0
N  N88  1  0.76869522  0.37069960  0.03574341  1  0  -0.561071  0  3.299148  0  0  -0.475362  0  3.609966  0  0  -0.501463  0  3.620172  0  -1.258117  0  -0.409238  -0.457355  0  3.602324  0
N  N89  1  0.26870194  0.12930501  0.46425780  1  0  -0.561004  0  3.299149  0  0  -0.475326  0  3.609935  0  0  -0.501423  0  3.620145  0  -1.257974  0  -0.40919  -0.45732  0  3.602298  0
N  N90  1  0.23130176  0.62930458  0.96426164  1  0  -0.561022  0  3.29914  0  0  -0.47533  0  3.609975  0  0  -0.501432  0  3.620182  0  -1.2577  0  -0.409195  -0.457322  0  3.602335  0
N  N91  1  0.73129712  0.87069246  0.53573980  1  0  -0.56101  0  3.299242  0  0  -0.475342  0  3.610035  0  0  -0.501442  0  3.620244  0  -1.25797  0  -0.409173  -0.457336  0  3.602397  0
N  N92  1  0.75955131  0.09454331  0.07177887  1  0  -0.550839  0  3.358804  0  0  -0.462972  0  3.662711  0  0  -0.490189  0  3.676338  0  -1.256455  0  -0.41536  -0.444191  0  3.652675  0
N  N93  1  0.25956012  0.40545710  0.42822144  1  0  -0.550725  0  3.358717  0  0  -0.462877  0  3.662583  0  0  -0.4901  0  3.676222  0  -1.256364  0  -0.415351  -0.444095  0  3.652546  0
N  N94  1  0.24044359  0.90545415  0.92822159  1  0  -0.550729  0  3.358749  0  0  -0.462864  0  3.662681  0  0  -0.490084  0  3.676315  0  -1.256471  0  -0.415332  -0.444082  0  3.652646  0
N  N95  1  0.74044937  0.59454456  0.57177921  1  0  -0.550815  0  3.358601  0  0  -0.462948  0  3.662518  0  0  -0.490168  0  3.676148  0  -1.256575  0  -0.415351  -0.444166  0  3.652483  0
N  N96  1  0.74784935  0.90460686  0.04717288  1  0  -0.449607  0  3.024215  0  0  -0.406259  0  3.284041  0  0  -0.422786  0  3.297233  0  -1.204014  0  -0.363343  -0.394691  0  3.274412  0
N  N97  1  0.24785920  0.59539354  0.45283014  1  0  -0.449512  0  3.024199  0  0  -0.406168  0  3.284017  0  0  -0.422697  0  3.297226  0  -1.204612  0  -0.363277  -0.394598  0  3.274387  0
N  N98  1  0.25213616  0.09538977  0.95282896  1  0  -0.44966  0  3.02412  0  0  -0.406312  0  3.283971  0  0  -0.422841  0  3.297176  0  -1.204569  0  -0.363328  -0.394741  0  3.27434  0
N  N99  1  0.75214508  0.40460813  0.54717337  1  0  -0.44954  0  3.024144  0  0  -0.406197  0  3.283965  0  0  -0.422723  0  3.297162  0  -1.204085  0  -0.363315  -0.394628  0  3.274333  0
N  N100  1  0.21558136  0.57336055  0.11814054  1  0  -0.447464  0  3.015322  0  0  -0.411234  0  3.280504  0  0  -0.426592  0  3.293689  0  -1.194847  0  -0.365828  -0.400535  0  3.27104  0
N  N101  1  0.71558819  0.92665160  0.38187160  1  0  -0.447661  0  3.01526  0  0  -0.411355  0  3.280522  0  0  -0.42671  0  3.293718  0  -1.194662  0  -0.36592  -0.400655  0  3.271057  0
N  N102  1  0.78441041  0.42664279  0.88186376  1  0  -0.447516  0  3.015096  0  0  -0.411272  0  3.280271  0  0  -0.426631  0  3.293458  0  -1.194774  0  -0.36583  -0.400573  0  3.270808  0
N  N103  1  0.28441400  0.07335258  0.61812917  1  0  -0.447719  0  3.015188  0  0  -0.411391  0  3.280453  0  0  -0.426746  0  3.293644  0  -1.194896  0  -0.365952  -0.40069  0  3.270987  0
O  O104  1  0.79676177  0.25600180  0.25919848  1  0  -0.638662  0  1.995383  0  0  -0.566322  0  2.270294  0  0  -0.588347  0  2.252047  0  -1.319767  0  -0.316787  -0.551054  0  2.282663  0
O  O105  1  0.29676328  0.24398770  0.24080562  1  0  -0.638624  0  1.995192  0  0  -0.56626  0  2.270108  0  0  -0.58829  0  2.25186  0  -1.319916  0  -0.316744  -0.55098  0  2.282451  0
O  O106  1  0.20323833  0.74399735  0.74079991  1  0  -0.63874  0  1.995352  0  0  -0.566375  0  2.270254  0  0  -0.588405  0  2.252008  0  -1.319726  0  -0.316769  -0.551102  0  2.282615  0
O  O107  1  0.70323995  0.75600809  0.75919405  1  0  -0.638663  0  1.995138  0  0  -0.566333  0  2.270097  0  0  -0.58837  0  2.251853  0  -1.319866  0  -0.316755  -0.551056  0  2.282448  0
O  O108  1  0.02814265  0.26891945  0.33241388  1  0  -0.658989  0  2.049719  0  0  -0.585591  0  2.336574  0  0  -0.608201  0  2.318174  0  -1.317736  0  -0.323483  -0.569914  0  2.348978  0
O  O109  1  0.52814844  0.23107844  0.16758059  1  0  -0.659073  0  2.049642  0  0  -0.585695  0  2.336547  0  0  -0.608308  0  2.318144  0  -1.31757  0  -0.323548  -0.570016  0  2.348951  0
O  O110  1  0.97186059  0.73108473  0.66758831  1  0  -0.659069  0  2.049537  0  0  -0.585705  0  2.336444  0  0  -0.608323  0  2.318042  0  -1.317656  0  -0.323543  -0.570022  0  2.348846  0
O  O111  1  0.47185167  0.76891818  0.83241697  1  0  -0.659109  0  2.049665  0  0  -0.585659  0  2.336507  0  0  -0.608272  0  2.318105  0  -1.317631  0  -0.323516  -0.56998  0  2.348912  0
