# generated using pymatgen
data_Al6H62C102O31
_symmetry_space_group_name_H-M   'P 1'
_cell_length_a   12.92673211
_cell_length_b   12.70755906
_cell_length_c   27.81878116
_cell_angle_alpha   89.80904757
_cell_angle_beta   90.43189167
_cell_angle_gamma   59.04847510
_symmetry_Int_Tables_number   1
_chemical_formula_structural   Al6H62C102O31
_chemical_formula_sum   'Al6 H62 C102 O31'
_cell_volume   3918.74909942
_cell_formula_units_Z   1
loop_
 _symmetry_equiv_pos_site_id
 _symmetry_equiv_pos_as_xyz
  1  'x, y, z'
loop_
 _atom_site_type_symbol
 _atom_site_label
 _atom_site_symmetry_multiplicity
 _atom_site_fract_x
 _atom_site_fract_y
 _atom_site_fract_z
 _atom_site_occupancy
 _atom_site_pbe_bader_charge
 _atom_site_pbe_bader_spin_density
 _atom_site_pbe_cm5_charge
 _atom_site_pbe_ddec_charge
 _atom_site_pbe_ddec_spin_density
 _atom_site_pbe_ddec_sum_bond_order
 _atom_site_pbe_magmom
Al  Al0  1  0.41013530  0.19000243  0.49760924  1  2.490066  0  0.396556  1.689369  0  2.552215  0
Al  Al1  1  0.41169953  0.93750913  0.49664058  1  2.481454  0  0.501609  1.657117  0  2.515241  0
Al  Al2  1  0.65059109  0.92281923  0.49861998  1  2.477728  0  0.503145  1.662621  0  2.508831  0
Al  Al3  1  0.92545578  0.15891916  0.98516091  1  2.494959  0  0.397325  1.685745  0  2.556922  0
Al  Al4  1  0.66976193  0.41001294  0.98349404  1  2.47837  0  0.504642  1.663798  0  2.504778  0
Al  Al5  1  0.89472090  0.42439614  0.98276357  1  2.480841  0  0.503437  1.662147  0  2.510561  0
H  H6  1  0.17975888  0.34333710  0.19394536  1  0.081847  0  0.111775  0.11649  0  0.982579  0
H  H7  1  0.11984456  0.04083191  0.28343527  1  0.107029  0  0.10571  0.110532  0  1.026076  0
H  H8  1  0.43827214  0.77853797  0.62287029  1  0.077759  0  0.110113  0.108263  0  1.013006  0
H  H9  1  0.80088587  0.69724138  0.77688442  1  0.056647  0  0.101549  0.09785  0  1.011433  0
H  H10  1  0.82598160  0.64712759  0.86403806  1  0.08917  0  0.11349  0.117101  0  0.983327  0
H  H11  1  0.46257742  0.72880118  0.70996580  1  0.080458  0  0.103183  0.101035  0  1.006011  0
H  H12  1  0.53157658  0.59371516  0.76737679  1  0.052215  0  0.102053  0.09927  0  1.00951  0
H  H13  1  0.55081256  0.55410345  0.85533917  1  0.095398  0  0.10899  0.109385  0  1.010259  0
H  H14  1  0.83570235  0.62873237  0.70259259  1  0.060235  0  0.10371  0.102013  0  1.004358  0
H  H15  1  0.46276933  0.69739551  0.19521622  1  0.11084  0  0.111787  0.123916  0  1.005659  0
H  H16  1  0.80723332  0.68687513  0.61620730  1  0.116416  0  0.114944  0.118463  0  0.981824  0
H  H17  1  0.72099504  0.92362111  0.63563198  1  0.08391  0  0.103123  0.103802  0  1.025453  0
H  H18  1  0.51078811  0.34352366  0.76924055  1  0.047353  0  0.10087  0.099197  0  1.006868  0
H  H19  1  0.52961570  0.37981363  0.85599213  1  0.103964  0  0.105178  0.100469  0  1.030069  0
H  H20  1  0.73709280  0.95161166  0.72322142  1  0.072647  0  0.098302  0.09599  0  1.018197  0
H  H21  1  0.84057821  0.99293589  0.78026092  1  0.046128  0  0.102396  0.100665  0  1.00347  0
H  H22  1  0.85570878  0.02950961  0.86739780  1  0.123133  0  0.114147  0.116636  0  0.987503  0
H  H23  1  0.60167021  0.33575002  0.69731349  1  0.0683  0  0.100427  0.100634  0  1.021037  0
H  H24  1  0.23466835  0.30622362  0.61705370  1  0.116329  0  0.11972  0.12901  0  0.977804  0
H  H25  1  0.82254106  0.63938759  0.19601119  1  0.083037  0  0.11775  0.137483  0  0.984626  0
H  H26  1  0.00530597  0.13143691  0.75648194  1  0.065568  0  0.098163  0.10077  0  1.016957  0
H  H27  1  0.95707817  0.15619621  0.84344657  1  0.102024  0  0.103088  0.103173  0  1.028038  0
H  H28  1  0.16963657  0.34663841  0.70272705  1  0.049182  0  0.098916  0.097488  0  1.007449  0
H  H29  1  0.23847929  0.27661157  0.77916616  1  0.052068  0  0.099836  0.105119  0  1.051038  0
H  H30  1  0.15815758  0.01377364  0.70638718  1  0.056051  0  0.100424  0.098949  0  1.008512  0
H  H31  1  0.21976235  0.97664590  0.62058518  1  0.086351  0  0.107081  0.108664  0  0.999152  0
H  H32  1  0.85760649  0.99503666  0.28542628  1  0.104098  0  0.107295  0.113297  0  1.010376  0
H  H33  1  0.86007303  0.01920197  0.19652314  1  0.138577  0  0.10357  0.105442  0  1.049542  0
H  H34  1  0.49643458  0.31145269  0.28885426  1  0.108145  0  0.11628  0.138049  0  0.979688  0
H  H35  1  0.20879800  0.32381067  0.28309337  1  0.074929  0  0.111993  0.116981  0  0.983641  0
H  H36  1  0.42270009  0.57351786  0.25920937  1  0.063951  0  0.099124  0.097883  0  1.037808  0
H  H37  1  0.24390356  0.60556781  0.30379304  1  0.04128  0  0.0996  0.091688  0  1.0116  0
H  H38  1  0.14331773  0.77725679  0.36224283  1  0.071937  0  0.105703  0.103981  0  0.994417  0
H  H39  1  0.22071812  0.91956197  0.37374223  1  0.087766  0  0.102693  0.103194  0  1.015105  0
H  H40  1  0.39598251  0.89008880  0.32795290  1  0.07299  0  0.101774  0.102252  0  1.009733  0
H  H41  1  0.98128148  0.14683945  0.13066670  1  0.060684  0  0.101335  0.103413  0  1.028378  0
H  H42  1  0.95713219  0.99207383  0.08874382  1  0.170183  0  0.110091  0.122014  0  1.01622  0
H  H43  1  0.04035070  0.78297000  0.12483742  1  0.034012  0  0.103774  0.100626  0  0.987266  0
H  H44  1  0.15306695  0.73269817  0.20332655  1  0.019584  0  0.093214  0.085174  0  1.033144  0
H  H45  1  0.19436582  0.88138467  0.24123599  1  0.070557  0  0.091663  0.087074  0  1.071384  0
H  H46  1  0.71211222  0.24149917  0.55047137  1  0.06118  0  0.101952  0.099191  0  0.996743  0
H  H47  1  0.63998522  0.42002107  0.49546815  1  0.063421  0  0.103285  0.09773  0  0.989737  0
H  H48  1  0.45775095  0.61980483  0.51576502  1  0.056261  0  0.100946  0.096828  0  1.002932  0
H  H49  1  0.34653694  0.63892131  0.59116430  1  0.03685  0  0.098347  0.089316  0  0.997433  0
H  H50  1  0.41811565  0.45934975  0.64591887  1  0.03755  0  0.093907  0.086698  0  1.012184  0
H  H51  1  0.23110170  0.42194541  0.82948339  1  0.034531  0  0.094786  0.048997  0  0.97252  0
H  H52  1  0.35385157  0.27159155  0.84391206  1  0.053955  0  0.098356  0.057541  0  0.975214  0
H  H53  1  0.34391232  0.33231399  0.93060068  1  0.065041  0  0.100539  0.139697  0  0.97756  0
H  H54  1  0.36608920  0.43223127  0.89309578  1  0.020018  0  0.090383  0.121079  0  1.026392  0
H  H55  1  0.22042779  0.48156695  0.91660690  1  0.027622  0  0.0979  0.133062  0  0.985004  0
H  H56  1  0.78878965  0.84748499  0.28084482  1  0.064234  0  0.097375  0.056753  0  0.992943  0
H  H57  1  0.89430647  0.73996538  0.23924825  1  0.021002  0  0.096681  0.053349  0  0.982351  0
H  H58  1  0.04430545  0.63574133  0.30714693  1  0.038724  0  0.093473  0.126534  0  0.997099  0
H  H59  1  0.00239773  0.79191070  0.30028421  1  0.054987  0  0.091052  0.118132  0  1.033689  0
H  H60  1  0.94005595  0.74753744  0.34783813  1  0.050076  0  0.101885  0.143193  0  0.976061  0
H  H61  1  0.56217654  0.39898647  0.14232674  1  0.079192  0  0.097352  0.064974  0  1.030158  0
H  H62  1  0.53262954  0.48695683  0.19557894  1  0.039237  0  0.088599  0.040701  0  1.027048  0
H  H63  1  0.30907188  0.58550618  0.17821599  1  0.054061  0  0.084758  0.111063  0  1.047174  0
H  H64  1  0.38367402  0.61113194  0.13008709  1  0.059456  0  0.099808  0.13809  0  0.98657  0
H  H65  1  0.34261514  0.49792000  0.12452411  1  0.0535  0  0.098336  0.137109  0  0.978898  0
H  H66  1  0.34465577  0.38978841  0.47080477  1  0.590714  0  0.292194  0.381942  0  0.925942  0
H  H67  1  0.00650538  0.95375236  0.96264580  1  0.565941  0  0.289192  0.374234  0  0.936422  0
C  C68  1  0.27923149  0.11650602  0.42733225  1  1.672418  0  0.275005  0.70683  0  4.167292  0
C  C69  1  0.74137222  0.65962956  0.21527044  1  0.039229  0  -0.085205  -0.243341  0  3.923001  0
C  C70  1  0.73473260  0.67713303  0.26479843  1  0.558462  0  0.100031  0.234632  0  4.056167  0
C  C71  1  0.63064119  0.69977095  0.29037360  1  0.081615  0  0.002026  -0.022132  0  4.026294  0
C  C72  1  0.64403565  0.66450111  0.19009832  1  0.043992  0  0.008673  0.154593  0  4.122489  0
C  C73  1  0.65502041  0.63882076  0.14021373  1  -0.438309  0  -0.005483  -0.001155  0  4.032426  0
C  C74  1  0.62752212  0.71701869  0.34056360  1  -0.272468  0  -0.002819  0.027664  0  4.086354  0
C  C75  1  0.67023855  0.61115312  0.09780688  1  0.207194  0  -0.03307  -0.195481  0  3.9221  0
C  C76  1  0.65924192  0.11702295  0.38521700  1  0.207867  0  -0.037201  -0.194069  0  3.94244  0
C  C77  1  0.77959560  0.06838595  0.26654759  1  -0.075698  0  -0.086401  -0.144451  0  3.972628  0
C  C78  1  0.78123969  0.08225058  0.21727609  1  -0.020288  0  -0.073348  -0.085949  0  3.956417  0
C  C79  1  0.59692265  0.78773716  0.43078852  1  1.641131  0  0.281737  0.718543  0  4.149736  0
C  C80  1  0.57824953  0.26327701  0.21931229  1  0.516352  0  0.096907  0.224731  0  4.048365  0
C  C81  1  0.57605687  0.24705677  0.26876455  1  0.07256  0  -0.08423  -0.230757  0  3.910894  0
C  C82  1  0.67575422  0.14948593  0.29276510  1  0.069546  0  0.006043  0.148177  0  4.129246  0
C  C83  1  0.68081843  0.17826987  0.19257607  1  0.078366  0  -0.00377  0.015324  0  4.080977  0
C  C84  1  0.68554595  0.18931087  0.14232071  1  -0.465762  0  -0.0077  0.009507  0  4.086542  0
C  C85  1  0.66946309  0.13231108  0.34264265  1  -0.485253  0  -0.015784  -0.020445  0  4.068268  0
C  C86  1  0.69222918  0.20257771  0.09923958  1  0.184295  0  -0.034004  -0.201743  0  3.918937  0
C  C87  1  0.22201142  0.14361451  0.38076740  1  -0.316227  0  -0.034685  -0.193945  0  3.938676  0
C  C88  1  0.18298499  0.26675245  0.26338669  1  0.027538  0  -0.077581  -0.120247  0  3.960673  0
C  C89  1  0.16684019  0.27728265  0.21404454  1  -0.042747  0  -0.074798  -0.108913  0  3.971719  0
C  C90  1  0.62787622  0.09537753  0.43210261  1  1.6676  0  0.274829  0.710204  0  4.168582  0
C  C91  1  0.11897570  0.11299490  0.21310773  1  0.001881  0  0.012418  0.05256  0  3.919023  0
C  C92  1  0.13345117  0.10610886  0.26319016  1  0.011129  0  -0.073332  -0.160577  0  3.896304  0
C  C93  1  0.16711818  0.17944213  0.28856677  1  0.069033  0  0.005729  0.132766  0  4.118577  0
C  C94  1  0.13613574  0.20131660  0.18818069  1  0.077013  0  0.007951  0.077379  0  4.051431  0
C  C95  1  0.12303476  0.21648656  0.13776158  1  -0.49436  0  -0.006199  -0.001697  0  4.084887  0
C  C96  1  0.19192508  0.16177762  0.33850788  1  0.008996  0  -0.01227  -0.018018  0  4.063832  0
C  C97  1  0.10707175  0.23366868  0.09444526  1  0.274495  0  -0.03781  -0.20674  0  3.923581  0
C  C98  1  0.62084445  0.73633217  0.61420486  1  0.017207  0  -0.012787  -0.0514  0  3.974271  0
C  C99  1  0.52500048  0.74500246  0.64074156  1  -0.003277  0  -0.072149  -0.070381  0  3.96966  0
C  C100  1  0.53968806  0.71609251  0.68947342  1  -0.038149  0  -0.084901  -0.128528  0  3.966921  0
C  C101  1  0.27859203  0.11290453  0.56426717  1  1.544178  0  0.272385  0.632161  0  4.101204  0
C  C102  1  0.65074548  0.67590107  0.71313195  1  -0.023972  0  0.002503  0.078032  0  3.9796  0
C  C103  1  0.74751815  0.66362252  0.68564822  1  -0.049715  0  -0.085774  -0.130696  0  3.9701  0
C  C104  1  0.73274276  0.69427879  0.63704927  1  -0.063125  0  -0.073381  -0.076345  0  3.972746  0
C  C105  1  0.74674279  0.66418295  0.79362085  1  -0.02099  0  -0.085971  -0.131179  0  3.971829  0
C  C106  1  0.75989576  0.63833823  0.84265023  1  0.001509  0  -0.072175  -0.070151  0  3.96329  0
C  C107  1  0.60433718  0.58641347  0.83766668  1  -0.007716  0  -0.075697  -0.074247  0  3.971345  0
C  C108  1  0.59356011  0.60961448  0.78851101  1  -0.024127  0  -0.087366  -0.130459  0  3.973414  0
C  C109  1  0.66406401  0.64952359  0.76535452  1  -0.028763  0  0.004515  0.082098  0  3.976313  0
C  C110  1  0.68819759  0.59969343  0.86525266  1  -0.04756  0  -0.014344  -0.053751  0  3.97794  0
C  C111  1  0.64750481  0.11382265  0.61788427  1  -0.055194  0  -0.009025  -0.080293  0  3.927696  0
C  C112  1  0.59915330  0.78463928  0.56423869  1  1.535706  0  0.278402  0.645846  0  4.081227  0
C  C113  1  0.69579490  0.01355345  0.64968944  1  -0.018724  0  -0.083382  -0.083386  0  3.995333  0
C  C114  1  0.70490480  0.02948902  0.69860388  1  -0.139958  0  -0.095181  -0.141199  0  4.003782  0
C  C115  1  0.66744219  0.14675175  0.71666168  1  0.060402  0  -0.008405  0.071085  0  4.025758  0
C  C116  1  0.62389949  0.24574290  0.68419822  1  -0.107506  0  -0.087581  -0.181538  0  3.941596  0
C  C117  1  0.61287777  0.23201870  0.63487466  1  0.100158  0  0.009117  0.0741  0  3.971054  0
C  C118  1  0.58700569  0.27468118  0.79058775  1  -0.025256  0  -0.090468  -0.138758  0  3.988814  0
C  C119  1  0.59623655  0.29482043  0.83904249  1  -0.052846  0  -0.079857  -0.082456  0  4.000321  0
C  C120  1  0.77988501  0.09667874  0.84551288  1  -0.077136  0  -0.075527  -0.076699  0  3.981761  0
C  C121  1  0.77063289  0.07680396  0.79701081  1  -0.034941  0  -0.088749  -0.134542  0  3.977094  0
C  C122  1  0.67485042  0.16589388  0.76850525  1  -0.009857  0  0.002165  0.086369  0  3.989025  0
C  C123  1  0.61692190  0.09371595  0.56834383  1  1.571641  0  0.26917  0.634754  0  4.115294  0
C  C124  1  0.69315747  0.20657944  0.86691779  1  -0.040959  0  -0.017384  -0.055972  0  3.988997  0
C  C125  1  0.23067803  0.13941190  0.61385191  1  -0.02593  0  -0.016545  -0.052491  0  3.988172  0
C  C126  1  0.21659016  0.24370938  0.63716416  1  -0.051062  0  -0.072335  -0.073872  0  3.957535  0
C  C127  1  0.18167667  0.26470833  0.68497416  1  0.008366  0  -0.090955  -0.134819  0  3.98244  0
C  C128  1  0.15991906  0.18264985  0.71076755  1  -0.058526  0  0.000179  0.08247  0  3.97876  0
C  C129  1  0.17282481  0.07927455  0.68671696  1  -0.040067  0  -0.091046  -0.135929  0  3.983986  0
C  C130  1  0.20781072  0.05773233  0.63893378  1  -0.012654  0  -0.080552  -0.08311  0  3.993464  0
C  C131  1  0.04636521  0.16802103  0.78031051  1  -0.056133  0  -0.10678  -0.169821  0  4.017171  0
C  C132  1  0.01795828  0.18327416  0.82879336  1  -0.033128  0  -0.082744  -0.062388  0  4.009096  0
C  C133  1  0.14301240  0.27178816  0.84178991  1  0.500092  0  0.094489  0.256319  0  4.054463  0
C  C134  1  0.62177262  0.73583005  0.38373359  1  0.034074  0  -0.032728  -0.200644  0  3.910345  0
C  C135  1  0.17351589  0.25422735  0.79302522  1  -0.011022  0  -0.114142  -0.287635  0  3.986149  0
C  C136  1  0.12561162  0.20258684  0.76189274  1  0.008024  0  -0.0056  0.099858  0  4.024144  0
C  C137  1  0.06401607  0.23559399  0.86012498  1  0.000119  0  -0.023441  -0.149697  0  3.941152  0
C  C138  1  0.72126707  0.23065089  0.05312331  1  1.653325  0  0.27532  0.701544  0  4.17514  0
C  C139  1  0.70026299  0.55761192  0.05085238  1  1.630231  0  0.281772  0.720055  0  4.149959  0
C  C140  1  0.05117387  0.25651705  0.04781276  1  1.614453  0  0.280323  0.704673  0  4.164873  0
C  C141  1  0.71160038  0.23347590  0.91709132  1  1.557775  0  0.268539  0.635345  0  4.100724  0
C  C142  1  0.70888718  0.56003640  0.91637333  1  1.525515  0  0.277879  0.645905  0  4.079811  0
C  C143  1  0.02354731  0.25253865  0.91087417  1  1.562206  0  0.272312  0.666152  0  4.073663  0
C  C144  1  0.53140994  0.70644617  0.26479128  1  0.015132  0  0.013186  0.06728  0  3.961599  0
C  C145  1  0.53931126  0.68953287  0.21514100  1  0.001292  0  -0.080668  -0.190589  0  3.916752  0
C  C146  1  0.42226173  0.72917481  0.29059942  1  -0.057444  0  -0.011138  0.059038  0  4.007322  0
C  C147  1  0.37712982  0.65056755  0.28372837  1  -0.013981  0  -0.090465  -0.132456  0  3.973479  0
C  C148  1  0.27699878  0.66817349  0.30915932  1  -0.04838  0  -0.093564  -0.084288  0  4.041109  0
C  C149  1  0.22047163  0.76451798  0.34178335  1  -0.068327  0  -0.089752  -0.086824  0  4.006761  0
C  C150  1  0.26377346  0.84406066  0.34842598  1  -0.003588  0  -0.088413  -0.075982  0  4.010276  0
C  C151  1  0.36364528  0.82682214  0.32288257  1  -0.06829  0  -0.084437  -0.120036  0  3.966852  0
C  C152  1  0.09218214  0.02617449  0.18873302  1  -0.003839  0  -0.013549  0.054829  0  3.997159  0
C  C153  1  0.02327599  0.05512163  0.14609726  1  -0.036587  0  -0.083555  -0.11511  0  3.941763  0
C  C154  1  0.00646240  0.96783587  0.12281580  1  -0.03325  0  -0.081773  -0.064385  0  3.966861  0
C  C155  1  0.05328187  0.85122383  0.14311555  1  -0.083889  0  -0.089579  -0.085602  0  4.009896  0
C  C156  1  0.11709900  0.82280034  0.18668693  1  -0.059487  0  -0.101346  -0.097245  0  4.067219  0
C  C157  1  0.13853899  0.90802896  0.20876703  1  -0.050595  0  -0.098693  -0.139884  0  3.984849  0
C  C158  1  0.57026802  0.33856818  0.60210425  1  -0.019166  0  -0.007364  0.069955  0  4.004682  0
C  C159  1  0.63172978  0.32873702  0.55940425  1  -0.031144  0  -0.086098  -0.119642  0  3.972774  0
C  C160  1  0.59147951  0.42924920  0.52859053  1  -0.061773  0  -0.08816  -0.07511  0  4.024776  0
C  C161  1  0.48913937  0.54135909  0.53997310  1  0.009013  0  -0.088418  -0.075439  0  4.005536  0
C  C162  1  0.42761580  0.55221195  0.58243112  1  0.015855  0  -0.091638  -0.074889  0  4.039902  0
C  C163  1  0.46806206  0.45176406  0.61336324  1  -0.080949  0  -0.090381  -0.126331  0  3.98337  0
C  C164  1  0.27271093  0.35234188  0.85845936  1  0.413039  0  -0.063335  0.088347  0  3.924673  0
C  C165  1  0.30246146  0.40267635  0.90225972  1  -0.043215  0  -0.239947  -0.3942  0  3.964881  0
C  C166  1  0.86657265  0.75349802  0.27719675  1  0.401368  0  -0.0641  0.090142  0  3.911848  0
C  C167  1  0.96921903  0.73085769  0.31025760  1  -0.06834  0  -0.242137  -0.401642  0  3.975382  0
C  C168  1  0.49618515  0.44626378  0.17073029  1  0.371456  0  -0.073637  0.076044  0  3.910661  0
C  C169  1  0.37560941  0.54063575  0.14975300  1  -0.101563  0  -0.244668  -0.396299  0  3.977741  0
O  O170  1  0.52858109  0.17784241  0.44904402  1  -1.220915  0  -0.211456  -0.567822  0  2.292162  0
O  O171  1  0.49881409  0.81338948  0.54387590  1  -1.266923  0  -0.232369  -0.602357  0  2.338955  0
O  O172  1  0.67938507  0.80222535  0.54541522  1  -1.264559  0  -0.235192  -0.599379  0  2.298797  0
O  O173  1  0.69386609  0.99288194  0.54747662  1  -1.279771  0  -0.252835  -0.62127  0  2.284344  0
O  O174  1  0.49217839  0.01463112  0.49689189  1  -1.611979  0  -0.39131  -1.266071  0  2.289862  0
O  O175  1  0.03342357  0.17490800  0.03087139  1  -1.213458  0  -0.198372  -0.530195  0  2.269943  0
O  O176  1  0.82977301  0.16415659  0.04041929  1  -1.224846  0  -0.202072  -0.545764  0  2.334736  0
O  O177  1  0.63708879  0.32364351  0.02964433  1  -1.25486  0  -0.24539  -0.608907  0  2.22971  0
O  O178  1  0.62741229  0.52895512  0.03163731  1  -1.246516  0  -0.231398  -0.593696  0  2.234651  0
O  O179  1  0.79934600  0.53729827  0.03283544  1  -1.237137  0  -0.225939  -0.586319  0  2.250077  0
O  O180  1  0.01705919  0.36220831  0.02822135  1  -1.25504  0  -0.24322  -0.604736  0  2.225422  0
O  O181  1  0.31516488  0.18639689  0.44183292  1  -1.213773  0  -0.208147  -0.556723  0  2.298115  0
O  O182  1  0.00424836  0.17191238  0.92822710  1  -1.250179  0  -0.224253  -0.588324  0  2.355309  0
O  O183  1  0.80701937  0.15666416  0.93910625  1  -1.243052  0  -0.222503  -0.583502  0  2.353007  0
O  O184  1  0.63025972  0.33827175  0.93425439  1  -1.278218  0  -0.248945  -0.613401  0  2.286212  0
O  O185  1  0.63636651  0.53260819  0.93584794  1  -1.268695  0  -0.234371  -0.598739  0  2.305827  0
O  O186  1  0.80303927  0.54837910  0.93749846  1  -1.260282  0  -0.235697  -0.59805  0  2.286289  0
O  O187  1  0.00447670  0.34962970  0.93306331  1  -1.26795  0  -0.246715  -0.618921  0  2.313253  0
O  O188  1  0.82812346  0.33338650  0.98398526  1  -1.609528  0  -0.392174  -1.271454  0  2.302108  0
O  O189  1  0.29307681  0.02018937  0.44945415  1  -1.258393  0  -0.244875  -0.610366  0  2.23258  0
O  O190  1  0.49413323  0.81768524  0.44872322  1  -1.251392  0  -0.231319  -0.595086  0  2.246625  0
O  O191  1  0.67590125  0.80638623  0.45042807  1  -1.244008  0  -0.22822  -0.589236  0  2.251746  0
O  O192  1  0.70189845  0.99079818  0.45207621  1  -1.254688  0  -0.243731  -0.60406  0  2.227328  0
O  O193  1  0.51482212  0.17241895  0.55171396  1  -1.244508  0  -0.206258  -0.554281  0  2.382776  0
O  O194  1  0.30073863  0.18845303  0.54432083  1  -1.24244  0  -0.208562  -0.548477  0  2.353271  0
O  O195  1  0.29934725  0.01095624  0.54526527  1  -1.278001  0  -0.252072  -0.618578  0  2.283756  0
O  O196  1  0.18858812  0.31761932  0.87399215  1  -1.075051  0  -0.172561  -0.18669  0  2.559636  0
O  O197  1  0.82823110  0.66877392  0.29102086  1  -1.07418  0  -0.190917  -0.221752  0  2.505118  0
O  O198  1  0.47804863  0.35933806  0.19836364  1  -1.07546  0  -0.200063  -0.236  0  2.492325  0
O  O199  1  0.33372957  0.35070454  0.49855311  1  -1.372753  0  -0.573958  -0.991831  0  1.804552  0
O  O200  1  0.01312285  0.99809472  0.98947597  1  -1.354805  0  -0.571881  -0.985769  0  1.81358  0
