# generated using pymatgen
data_AgH16C23IN2
_symmetry_space_group_name_H-M   'P 1'
_cell_length_a   9.36094262
_cell_length_b   13.55078537
_cell_length_c   34.82548725
_cell_angle_alpha   93.51077221
_cell_angle_beta   90.00000343
_cell_angle_gamma   90.00015250
_symmetry_Int_Tables_number   1
_chemical_formula_structural   AgH16C23IN2
_chemical_formula_sum   'Ag8 H128 C184 I8 N16'
_cell_volume   4409.25733608
_cell_formula_units_Z   8
loop_
 _symmetry_equiv_pos_site_id
 _symmetry_equiv_pos_as_xyz
  1  'x, y, z'
loop_
 _atom_site_type_symbol
 _atom_site_label
 _atom_site_symmetry_multiplicity
 _atom_site_fract_x
 _atom_site_fract_y
 _atom_site_fract_z
 _atom_site_occupancy
 _atom_site_pbe_bader_charge
 _atom_site_pbe_bader_spin_density
 _atom_site_pbe_cm5_charge
 _atom_site_pbe_ddec_charge
 _atom_site_pbe_ddec_spin_density
 _atom_site_pbe_ddec_sum_bond_order
 _atom_site_pbe_magmom
Ag  Ag0  1  0.48823127  0.76736704  0.97811582  1  0.376767  0  0.272113  0.181185  0  2.367611  0
Ag  Ag1  1  0.98823101  0.73263439  0.52188381  1  0.376832  0  0.272136  0.181227  0  2.367568  0
Ag  Ag2  1  0.51176835  0.23263393  0.02188346  1  0.376791  0  0.272108  0.1812  0  2.367573  0
Ag  Ag3  1  0.01176648  0.26736879  0.47811637  1  0.376839  0  0.272114  0.181205  0  2.367602  0
Ag  Ag4  1  0.52642760  0.41110282  0.97590564  1  0.333185  0  0.221754  0.192872  0  2.501314  0
Ag  Ag5  1  0.02643027  0.08889559  0.52409297  1  0.333053  0  0.221766  0.192906  0  2.501226  0
Ag  Ag6  1  0.47356989  0.58889517  0.02409184  1  0.333039  0  0.221773  0.192908  0  2.501296  0
Ag  Ag7  1  0.97357363  0.91110389  0.47590599  1  0.333203  0  0.221753  0.192899  0  2.501298  0
H  H8  1  0.31185281  0.90169514  0.04681146  1  0.070927  0  0.105101  0.073004  0  1.038543  0
H  H9  1  0.81185321  0.59830289  0.45318922  1  0.070912  0  0.105121  0.073038  0  1.038512  0
H  H10  1  0.68814468  0.09830287  0.95318889  1  0.070965  0  0.105098  0.073015  0  1.038519  0
H  H11  1  0.18814535  0.40169733  0.54681148  1  0.07096  0  0.105096  0.07297  0  1.038543  0
H  H12  1  0.86162756  0.89584510  0.01952816  1  0.119585  0  0.095554  0.104128  0  1.027572  0
H  H13  1  0.36162612  0.60415820  0.48047178  1  0.119568  0  0.09553  0.104088  0  1.027562  0
H  H14  1  0.13837100  0.10415808  0.98047203  1  0.119604  0  0.095541  0.104089  0  1.027581  0
H  H15  1  0.63837136  0.39584425  0.51952810  1  0.1196  0  0.095544  0.1041  0  1.027591  0
H  H16  1  0.92592446  0.81448701  0.95546465  1  0.094542  0  0.107478  0.114294  0  0.999149  0
H  H17  1  0.42592644  0.68551503  0.54453499  1  0.094564  0  0.107496  0.114323  0  0.999119  0
H  H18  1  0.07407196  0.18551543  0.04453523  1  0.094577  0  0.107502  0.114312  0  0.999124  0
H  H19  1  0.57407212  0.31448741  0.45546518  1  0.094581  0  0.107494  0.11432  0  0.999137  0
H  H20  1  0.18465718  0.79069427  0.93890791  1  0.073591  0  0.106204  0.078047  0  1.022256  0
H  H21  1  0.68465898  0.70930659  0.56109199  1  0.073539  0  0.106216  0.078072  0  1.022239  0
H  H22  1  0.81533924  0.20930670  0.06109194  1  0.073529  0  0.106208  0.078105  0  1.022211  0
H  H23  1  0.31533958  0.29069437  0.43890843  1  0.073549  0  0.106215  0.078129  0  1.022238  0
H  H24  1  0.23617825  0.05460279  0.07727416  1  0.065858  0  0.096226  0.093303  0  1.043727  0
H  H25  1  0.73617784  0.44539739  0.42272619  1  0.065869  0  0.096229  0.093319  0  1.043701  0
H  H26  1  0.76382030  0.94539743  0.92272625  1  0.065861  0  0.096242  0.093351  0  1.043659  0
H  H27  1  0.26382179  0.55460210  0.57727448  1  0.065726  0  0.096228  0.093297  0  1.043721  0
H  H28  1  0.18457891  0.13383207  0.14115945  1  0.061218  0  0.097447  0.098514  0  1.038968  0
H  H29  1  0.68457924  0.36616728  0.35884117  1  0.061209  0  0.09745  0.098528  0  1.038954  0
H  H30  1  0.81542072  0.86616742  0.85884123  1  0.06121  0  0.097464  0.098563  0  1.038911  0
H  H31  1  0.31542038  0.63383147  0.64115949  1  0.061207  0  0.097436  0.098482  0  1.039013  0
H  H32  1  0.80833818  0.95364385  0.14915102  1  0.078783  0  0.099623  0.103941  0  1.010009  0
H  H33  1  0.30833756  0.54635492  0.35084882  1  0.078799  0  0.099641  0.103973  0  1.009989  0
H  H34  1  0.19166252  0.04635637  0.85084910  1  0.079058  0  0.099637  0.103983  0  1.009978  0
H  H35  1  0.69166206  0.45364457  0.64915129  1  0.079118  0  0.099632  0.103978  0  1.009988  0
H  H36  1  0.85794627  0.87488463  0.08492929  1  0.064693  0  0.085593  0.09836  0  1.054816  0
H  H37  1  0.35794597  0.62511423  0.41507083  1  0.064711  0  0.085591  0.098373  0  1.054791  0
H  H38  1  0.14205335  0.12511560  0.91507083  1  0.064687  0  0.085624  0.098439  0  1.054795  0
H  H39  1  0.64205259  0.37488452  0.58492926  1  0.064683  0  0.085624  0.09843  0  1.054789  0
H  H40  1  0.71029940  0.09255554  0.23070588  1  0.086936  0  0.097475  0.100214  0  1.032637  0
H  H41  1  0.21030015  0.40744459  0.26929447  1  0.086949  0  0.097497  0.10026  0  1.032615  0
H  H42  1  0.28970343  0.90744542  0.76929455  1  0.086917  0  0.09747  0.100208  0  1.032617  0
H  H43  1  0.78970161  0.59255489  0.73070620  1  0.086939  0  0.097474  0.100216  0  1.032643  0
H  H44  1  0.63559280  0.96831212  0.27567709  1  0.084296  0  0.09874  0.098928  0  1.012339  0
H  H45  1  0.13559423  0.53168855  0.22432364  1  0.084331  0  0.098729  0.098917  0  1.01239  0
H  H46  1  0.36440896  0.03168885  0.72432276  1  0.084272  0  0.098731  0.098921  0  1.012322  0
H  H47  1  0.86440646  0.46831168  0.77567734  1  0.084114  0  0.098737  0.098921  0  1.012351  0
H  H48  1  0.03314035  0.81180234  0.25466717  1  0.077278  0  0.098423  0.094491  0  1.022693  0
H  H49  1  0.53313997  0.68819962  0.24533445  1  0.077219  0  0.098413  0.094485  0  1.02264  0
H  H50  1  0.96686142  0.18819937  0.74533442  1  0.077197  0  0.098406  0.094447  0  1.022692  0
H  H51  1  0.46685859  0.31180135  0.75466712  1  0.07727  0  0.098432  0.094514  0  1.022723  0
H  H52  1  0.10127901  0.93239778  0.20793563  1  0.056905  0  0.096995  0.098782  0  1.053505  0
H  H53  1  0.60128032  0.56760356  0.29206540  1  0.056874  0  0.096984  0.09876  0  1.053553  0
H  H54  1  0.89872275  0.06760171  0.79206504  1  0.056924  0  0.096976  0.098775  0  1.053476  0
H  H55  1  0.39872038  0.43239740  0.70793559  1  0.056957  0  0.096994  0.098777  0  1.053508  0
H  H56  1  0.89949089  0.68485950  0.26670658  1  0.082078  0  0.107736  0.074908  0  0.998158  0
H  H57  1  0.39949234  0.81514239  0.23329390  1  0.082041  0  0.107717  0.074932  0  0.998156  0
H  H58  1  0.10050767  0.31514072  0.73329411  1  0.082037  0  0.107715  0.074897  0  0.998149  0
H  H59  1  0.60050835  0.18485931  0.76670597  1  0.082055  0  0.107734  0.074935  0  0.998116  0
H  H60  1  0.72998113  0.61253804  0.37091887  1  0.079066  0  0.101024  0.06615  0  1.052374  0
H  H61  1  0.22998283  0.88746280  0.12908130  1  0.07887  0  0.101027  0.066146  0  1.0524  0
H  H62  1  0.27001423  0.38746662  0.62908222  1  0.078886  0  0.101007  0.066133  0  1.052396  0
H  H63  1  0.77001466  0.11253299  0.87091814  1  0.078884  0  0.100998  0.066128  0  1.052387  0
H  H64  1  0.62242604  0.78088952  0.38266182  1  0.079636  0  0.103019  0.109181  0  1.011959  0
H  H65  1  0.12242924  0.71910890  0.11733800  1  0.079662  0  0.102994  0.109128  0  1.011945  0
H  H66  1  0.37757038  0.21911292  0.61733692  1  0.079661  0  0.103021  0.109178  0  1.011907  0
H  H67  1  0.87757039  0.28088615  0.88266228  1  0.079672  0  0.103012  0.109178  0  1.011931  0
H  H68  1  0.66604795  0.90763058  0.33471953  1  0.079764  0  0.100999  0.096161  0  1.03919  0
H  H69  1  0.16605174  0.59236866  0.16528088  1  0.079762  0  0.101001  0.096153  0  1.039248  0
H  H70  1  0.33395060  0.09237186  0.66528064  1  0.079736  0  0.101023  0.096197  0  1.039223  0
H  H71  1  0.83395109  0.40762861  0.83472003  1  0.079615  0  0.101026  0.096199  0  1.039204  0
H  H72  1  0.86403658  0.36615039  0.22602103  1  0.059352  0  0.100621  0.104247  0  1.003478  0
H  H73  1  0.36403201  0.13384855  0.27397872  1  0.059338  0  0.100602  0.10423  0  1.003511  0
H  H74  1  0.13596732  0.63384836  0.77397906  1  0.059319  0  0.100593  0.104185  0  1.003541  0
H  H75  1  0.63596655  0.86615241  0.72602141  1  0.05933  0  0.100613  0.104229  0  1.003552  0
H  H76  1  0.86533788  0.44246148  0.29237689  1  0.097452  0  0.100794  0.101409  0  1.030688  0
H  H77  1  0.36533407  0.05753746  0.20762258  1  0.097429  0  0.100772  0.101299  0  1.030715  0
H  H78  1  0.13466495  0.55753726  0.70762291  1  0.097423  0  0.100777  0.101332  0  1.030736  0
H  H79  1  0.63466342  0.94246277  0.79237725  1  0.097421  0  0.100782  0.101362  0  1.030767  0
H  H80  1  0.09000629  0.18795152  0.33050347  1  0.068443  0  0.099537  0.09992  0  1.018467  0
H  H81  1  0.59000424  0.31204691  0.16949569  1  0.068299  0  0.099549  0.099929  0  1.018438  0
H  H82  1  0.90999440  0.81204723  0.66949662  1  0.068341  0  0.09954  0.099916  0  1.018479  0
H  H83  1  0.40999325  0.68795331  0.83050385  1  0.068318  0  0.099549  0.099949  0  1.018393  0
H  H84  1  0.08400033  0.11150497  0.26465355  1  0.082028  0  0.101693  0.105113  0  1.015143  0
H  H85  1  0.58399752  0.38849492  0.23534507  1  0.082034  0  0.101678  0.105106  0  1.015131  0
H  H86  1  0.91600250  0.88849303  0.73534595  1  0.082064  0  0.10171  0.105139  0  1.015088  0
H  H87  1  0.41600104  0.61150678  0.76465451  1  0.082071  0  0.101689  0.105128  0  1.015099  0
H  H88  1  0.96700889  0.23798847  0.38696913  1  0.074401  0  0.100688  0.074159  0  1.040061  0
H  H89  1  0.46701011  0.26200991  0.11302946  1  0.07444  0  0.100664  0.074169  0  1.04005  0
H  H90  1  0.03298967  0.76201101  0.61303069  1  0.074413  0  0.100695  0.074177  0  1.040065  0
H  H91  1  0.53298952  0.73798957  0.88697007  1  0.074423  0  0.100683  0.074166  0  1.040052  0
H  H92  1  0.04605619  0.49038373  0.45698621  1  0.09385  0  0.106601  0.075813  0  1.012269  0
H  H93  1  0.54605935  0.00961166  0.04301432  1  0.093846  0  0.106585  0.075814  0  1.012215  0
H  H94  1  0.95394130  0.50961575  0.54301390  1  0.093851  0  0.10662  0.075856  0  1.012253  0
H  H95  1  0.45393921  0.99038782  0.95698550  1  0.093858  0  0.106583  0.075768  0  1.012265  0
H  H96  1  0.04576688  0.59687655  0.40110222  1  0.076575  0  0.08953  0.107692  0  1.050202  0
H  H97  1  0.54576409  0.90312247  0.09889877  1  0.076598  0  0.089494  0.107624  0  1.050166  0
H  H98  1  0.95423167  0.40312294  0.59889760  1  0.076559  0  0.089524  0.107678  0  1.050209  0
H  H99  1  0.45423447  0.09687775  0.90110107  1  0.076591  0  0.089495  0.107605  0  1.050176  0
H  H100  1  0.01015813  0.51810012  0.33485427  1  0.11664  0  0.106452  0.103651  0  1.029267  0
H  H101  1  0.51015566  0.98190032  0.16514646  1  0.116643  0  0.106436  0.103623  0  1.029281  0
H  H102  1  0.98984149  0.48190011  0.66514585  1  0.116633  0  0.106445  0.103635  0  1.029269  0
H  H103  1  0.48984290  0.01809917  0.83485336  1  0.116676  0  0.106469  0.103696  0  1.02927  0
H  H104  1  0.81350508  0.23518677  0.13932662  1  0.065565  0  0.097904  0.098939  0  1.017704  0
H  H105  1  0.31350744  0.26481429  0.36067260  1  0.06559  0  0.097911  0.098907  0  1.017724  0
H  H106  1  0.18649454  0.76481493  0.86067296  1  0.06555  0  0.097888  0.098863  0  1.017752  0
H  H107  1  0.68649539  0.73518593  0.63932723  1  0.065537  0  0.097891  0.098901  0  1.017722  0
H  H108  1  0.85613457  0.36290565  0.09268735  1  0.070935  0  0.082054  0.089167  0  1.084814  0
H  H109  1  0.35613752  0.13709697  0.40731249  1  0.071002  0  0.082045  0.089163  0  1.084867  0
H  H110  1  0.14386398  0.63709902  0.90731374  1  0.070933  0  0.082065  0.089175  0  1.084815  0
H  H111  1  0.64386424  0.86290029  0.59268613  1  0.070912  0  0.082052  0.089152  0  1.084846  0
H  H112  1  0.25757962  0.43670554  0.14832119  1  0.078435  0  0.100875  0.101134  0  1.012442  0
H  H113  1  0.75758199  0.06329542  0.35167861  1  0.078417  0  0.100885  0.10116  0  1.012348  0
H  H114  1  0.74241787  0.56329616  0.85167954  1  0.078426  0  0.100866  0.10112  0  1.012402  0
H  H115  1  0.24241977  0.93670332  0.64831975  1  0.078465  0  0.100875  0.101165  0  1.012426  0
H  H116  1  0.20924772  0.31425745  0.19619551  1  0.092393  0  0.098998  0.105051  0  1.020169  0
H  H117  1  0.70924628  0.18574120  0.30380394  1  0.092377  0  0.098989  0.10504  0  1.020198  0
H  H118  1  0.79075298  0.68574278  0.80380489  1  0.092416  0  0.098997  0.105041  0  1.02022  0
H  H119  1  0.29075442  0.81425828  0.69619472  1  0.092446  0  0.099031  0.105081  0  1.020165  0
H  H120  1  0.31252071  0.46448333  0.08466054  1  0.095494  0  0.091532  0.067973  0  1.07525  0
H  H121  1  0.81252299  0.03551773  0.41533782  1  0.095465  0  0.091523  0.067942  0  1.075267  0
H  H122  1  0.68747785  0.53551689  0.91533814  1  0.095463  0  0.091543  0.06798  0  1.075226  0
H  H123  1  0.18747984  0.96447731  0.58465959  1  0.095469  0  0.091527  0.067962  0  1.075258  0
H  H124  1  0.16024690  0.66807545  0.01113424  1  0.089451  0  0.101759  0.070951  0  1.04943  0
H  H125  1  0.66025140  0.83192452  0.48886505  1  0.089469  0  0.101753  0.070913  0  1.04947  0
H  H126  1  0.83975059  0.33192404  0.98886472  1  0.089473  0  0.101761  0.070926  0  1.049441  0
H  H127  1  0.33975249  0.16807644  0.51113480  1  0.089503  0  0.101764  0.070917  0  1.04944  0
H  H128  1  0.90691525  0.64474935  0.03309790  1  0.132542  0  0.089486  0.106924  0  1.049779  0
H  H129  1  0.40691798  0.85525034  0.46690253  1  0.132541  0  0.089518  0.106944  0  1.049707  0
H  H130  1  0.09308438  0.35525014  0.96690220  1  0.132527  0  0.089482  0.106893  0  1.049798  0
H  H131  1  0.59308378  0.14475062  0.53309876  1  0.132533  0  0.089485  0.106923  0  1.049775  0
H  H132  1  0.85889316  0.52622569  0.08330708  1  0.102639  0  0.09322  0.104936  0  1.035145  0
H  H133  1  0.35889206  0.97377687  0.41669370  1  0.102374  0  0.093232  0.10494  0  1.03514  0
H  H134  1  0.14110861  0.47377898  0.91669400  1  0.102537  0  0.093207  0.104924  0  1.035185  0
H  H135  1  0.64110970  0.02622262  0.58330669  1  0.102637  0  0.093218  0.104933  0  1.035134  0
C  C136  1  0.22311278  0.88749252  0.02685537  1  0.518357  0  0.04069  0.033368  0  3.92652  0
C  C137  1  0.72311217  0.61250609  0.47314503  1  0.518382  0  0.040687  0.033324  0  3.926504  0
C  C138  1  0.77688577  0.11250623  0.97314471  1  0.518287  0  0.040684  0.033306  0  3.926493  0
C  C139  1  0.27688532  0.38749413  0.52685538  1  0.518877  0  0.040774  0.033561  0  3.926356  0
C  C140  1  0.08207575  0.90947811  0.03824708  1  -0.007962  0  -0.004584  0.02626  0  3.993449  0
C  C141  1  0.58207612  0.59051949  0.46175301  1  -0.008251  0  -0.004617  0.026242  0  3.993533  0
C  C142  1  0.91792174  0.09051989  0.96175328  1  -0.007943  0  -0.004603  0.026272  0  3.993513  0
C  C143  1  0.41792351  0.40947999  0.53824738  1  -0.008024  0  -0.004611  0.02617  0  3.993571  0
C  C144  1  0.97317399  0.88161833  0.01202705  1  -0.077868  0  -0.069345  -0.077211  0  3.9319  0
C  C145  1  0.47317475  0.61838370  0.48797315  1  -0.077814  0  -0.069316  -0.077121  0  3.931883  0
C  C146  1  0.02682350  0.11838411  0.98797341  1  -0.077811  0  -0.06933  -0.077123  0  3.931894  0
C  C147  1  0.52682488  0.38161800  0.51202700  1  -0.077863  0  -0.069324  -0.077162  0  3.932009  0
C  C148  1  0.00841007  0.83685062  0.97625890  1  -0.0659  0  -0.083247  -0.115965  0  3.986276  0
C  C149  1  0.50840954  0.66315065  0.52374100  1  -0.065932  0  -0.083291  -0.116081  0  3.986258  0
C  C150  1  0.99158849  0.16315108  0.02374096  1  -0.065935  0  -0.083299  -0.116072  0  3.986284  0
C  C151  1  0.49158902  0.33685105  0.47625915  1  -0.065896  0  -0.08325  -0.115953  0  3.986285  0
C  C152  1  0.15207719  0.82284705  0.96702550  1  0.521925  0  0.036262  0.076808  0  3.957132  0
C  C153  1  0.65207886  0.67715375  0.53297411  1  0.522005  0  0.036293  0.07689  0  3.957056  0
C  C154  1  0.84792029  0.17715465  0.03297408  1  0.521994  0  0.036215  0.076741  0  3.957184  0
C  C155  1  0.34791970  0.32284722  0.46702603  1  0.522005  0  0.03619  0.076646  0  3.957322  0
C  C156  1  0.05066769  0.95885722  0.07615542  1  -0.012978  0  -0.011847  0.059793  0  4.019993  0
C  C157  1  0.55066786  0.54114180  0.42384470  1  -0.013244  0  -0.011828  0.059815  0  4.020053  0
C  C158  1  0.94933301  0.04114448  0.92384531  1  -0.012499  0  -0.011801  0.059881  0  4.019926  0
C  C159  1  0.44933497  0.45885472  0.57615533  1  -0.012638  0  -0.011893  0.059795  0  4.01998  0
C  C160  1  0.14145378  0.03242642  0.09279564  1  -0.038535  0  -0.093567  -0.136758  0  3.999182  0
C  C161  1  0.64145344  0.46757211  0.40720467  1  -0.03801  0  -0.093521  -0.136702  0  3.999063  0
C  C162  1  0.85854692  0.96757307  0.90720475  1  -0.038645  0  -0.09354  -0.136771  0  3.998988  0
C  C163  1  0.35854725  0.53242590  0.59279626  1  -0.038327  0  -0.09351  -0.136689  0  3.999084  0
C  C164  1  0.11181049  0.07792062  0.12878383  1  -0.090579  0  -0.088229  -0.115744  0  3.962775  0
C  C165  1  0.61181104  0.42207785  0.37121619  1  -0.090651  0  -0.088296  -0.115885  0  3.962712  0
C  C166  1  0.88818914  0.92207812  0.87121625  1  -0.090618  0  -0.088299  -0.115887  0  3.962713  0
C  C167  1  0.38818752  0.57792090  0.62878418  1  -0.090628  0  -0.088252  -0.115781  0  3.962826  0
C  C168  1  0.99087148  0.05121129  0.14979041  1  0.016953  0  -0.007656  0.071248  0  4.002474  0
C  C169  1  0.49087348  0.44878788  0.35021021  1  0.016969  0  -0.007566  0.071429  0  4.002314  0
C  C170  1  0.00912601  0.94878819  0.85020998  1  0.016943  0  -0.007597  0.071385  0  4.002358  0
C  C171  1  0.50912828  0.55121160  0.64979047  1  0.016981  0  -0.007595  0.071353  0  4.002298  0
C  C172  1  0.90142073  0.97681051  0.13320249  1  -0.032794  0  -0.088724  -0.117894  0  3.972597  0
C  C173  1  0.40142216  0.52318842  0.36679706  1  -0.032791  0  -0.088768  -0.11801  0  3.972517  0
C  C174  1  0.09857676  0.02318897  0.86679732  1  -0.033012  0  -0.088796  -0.118047  0  3.972444  0
C  C175  1  0.59857853  0.47681180  0.63320335  1  -0.033164  0  -0.088788  -0.118051  0  3.972509  0
C  C176  1  0.92937402  0.93251257  0.09695461  1  -0.087381  0  -0.092142  -0.120752  0  3.969342  0
C  C177  1  0.42937456  0.56748642  0.40304523  1  -0.087355  0  -0.092163  -0.120798  0  3.969337  0
C  C178  1  0.07062561  0.06748766  0.90304551  1  -0.087768  0  -0.092155  -0.120842  0  3.96932  0
C  C179  1  0.57062613  0.43251232  0.59695515  1  -0.087757  0  -0.092136  -0.120777  0  3.969356  0
C  C180  1  0.96027529  0.09426397  0.18904166  1  0.011458  0  -0.00316  -0.027893  0  3.929705  0
C  C181  1  0.46027498  0.40573367  0.31095892  1  0.011469  0  -0.003202  -0.027929  0  3.929789  0
C  C182  1  0.03972861  0.90573404  0.81095927  1  0.011456  0  -0.003156  -0.027882  0  3.929722  0
C  C183  1  0.53972572  0.59426582  0.68904176  1  0.011519  0  -0.003232  -0.027923  0  3.929804  0
C  C184  1  0.97887724  0.19210788  0.19992352  1  -0.037331  0  -0.004311  -0.03167  0  3.935334  0
C  C185  1  0.47887762  0.30789127  0.30007595  1  -0.03736  0  -0.004275  -0.031645  0  3.93564  0
C  C186  1  0.02112025  0.80789234  0.80007631  1  -0.037361  0  -0.004267  -0.03165  0  3.935433  0
C  C187  1  0.52111987  0.69210895  0.69992388  1  -0.037375  0  -0.00426  -0.031656  0  3.935476  0
C  C188  1  0.91154288  0.02145988  0.21640951  1  -0.003019  0  -0.008808  0.070767  0  4.024343  0
C  C189  1  0.41154177  0.47853988  0.28359113  1  -0.003142  0  -0.008808  0.070843  0  4.024168  0
C  C190  1  0.08845995  0.97854034  0.78359119  1  -0.003086  0  -0.008832  0.0708  0  4.024207  0
C  C191  1  0.58845785  0.52146034  0.71640986  1  -0.003087  0  -0.008754  0.07084  0  4.024277  0
C  C192  1  0.78047063  0.03048733  0.23586500  1  -0.080878  0  -0.090943  -0.124757  0  3.977792  0
C  C193  1  0.28047055  0.46951368  0.26413565  1  -0.080808  0  -0.091002  -0.1249  0  3.977892  0
C  C194  1  0.21953220  0.96951290  0.76413540  1  -0.080886  0  -0.090994  -0.124853  0  3.977759  0
C  C195  1  0.71953014  0.53048729  0.73586534  1  -0.080872  0  -0.090963  -0.124799  0  3.977776  0
C  C196  1  0.73915286  0.96048108  0.26139615  1  -0.032764  0  -0.092127  -0.127387  0  3.978702  0
C  C197  1  0.23915326  0.53952052  0.23860489  1  -0.032755  0  -0.092062  -0.127271  0  3.97862  0
C  C198  1  0.26084997  0.03951989  0.73860427  1  -0.032771  0  -0.092073  -0.127316  0  3.978548  0
C  C199  1  0.76084743  0.46047971  0.76139637  1  -0.032606  0  -0.092143  -0.127393  0  3.978599  0
C  C200  1  0.82868002  0.88031824  0.26877072  1  -0.041712  0  -0.013771  0.058791  0  4.025614  0
C  C201  1  0.32868072  0.61968426  0.23123006  1  -0.041805  0  -0.013835  0.058696  0  4.025557  0
C  C202  1  0.17132174  0.11968347  0.73122972  1  -0.041712  0  -0.013765  0.058807  0  4.025441  0
C  C203  1  0.67132104  0.38031744  0.76877096  1  -0.041731  0  -0.013772  0.058771  0  4.02553  0
C  C204  1  0.95961019  0.87157142  0.24891377  1  -0.06575  0  -0.092913  -0.126894  0  3.991078  0
C  C205  1  0.45960987  0.62842985  0.25108728  1  -0.067721  0  -0.092903  -0.126868  0  3.990974  0
C  C206  1  0.04039264  0.12842955  0.75108695  1  -0.065646  0  -0.092882  -0.126781  0  3.99093  0
C  C207  1  0.54039083  0.37157038  0.74891399  1  -0.065753  0  -0.092928  -0.126921  0  3.991098  0
C  C208  1  0.99905720  0.93994293  0.22279423  1  -0.035504  0  -0.093552  -0.127238  0  3.98428  0
C  C209  1  0.49905662  0.56005915  0.27720655  1  -0.033329  0  -0.093494  -0.12719  0  3.984175  0
C  C210  1  0.00094563  0.06005878  0.77720679  1  -0.035356  0  -0.093493  -0.127266  0  3.984209  0
C  C211  1  0.50094194  0.43994182  0.72279445  1  -0.035411  0  -0.093553  -0.127245  0  3.984243  0
C  C212  1  0.79092514  0.80787127  0.29699516  1  -0.076402  0  -0.007852  0.019937  0  4.009974  0
C  C213  1  0.29092932  0.69212969  0.20300529  1  -0.076414  0  -0.007853  0.019941  0  4.010183  0
C  C214  1  0.20907662  0.19213044  0.70300556  1  -0.076601  0  -0.007861  0.019909  0  4.009943  0
C  C215  1  0.70907458  0.30786906  0.79699479  1  -0.076634  0  -0.007868  0.019957  0  4.009951  0
C  C216  1  0.84065499  0.70972296  0.29266230  1  0.522342  0  0.040157  0.035036  0  3.971258  0
C  C217  1  0.34065634  0.79027808  0.20733788  1  0.522613  0  0.040101  0.034846  0  3.971362  0
C  C218  1  0.15934357  0.29027948  0.70733816  1  0.522612  0  0.040086  0.034901  0  3.971357  0
C  C219  1  0.65934542  0.20972140  0.79266222  1  0.522585  0  0.040108  0.034905  0  3.971363  0
C  C220  1  0.74436867  0.66888107  0.35018976  1  0.562387  0  0.036787  0.083619  0  3.981687  0
C  C221  1  0.24437123  0.83111684  0.14980977  1  0.562398  0  0.036803  0.083623  0  3.981834  0
C  C222  1  0.25562668  0.33111989  0.64981009  1  0.562549  0  0.036868  0.083706  0  3.981616  0
C  C223  1  0.75562732  0.16887895  0.85018996  1  0.562547  0  0.036869  0.083742  0  3.9816  0
C  C224  1  0.68477122  0.76280701  0.35671655  1  -0.113456  0  -0.087127  -0.119414  0  3.985089  0
C  C225  1  0.18477770  0.73719152  0.14328299  1  -0.113415  0  -0.087069  -0.11932  0  3.985196  0
C  C226  1  0.31522199  0.23719543  0.64328305  1  -0.113668  0  -0.087137  -0.119469  0  3.98507  0
C  C227  1  0.81522514  0.26280426  0.85671674  1  -0.113676  0  -0.087141  -0.119485  0  3.984987  0
C  C228  1  0.70842068  0.83295975  0.32984536  1  -0.019826  0  -0.074577  -0.090247  0  3.947772  0
C  C229  1  0.20842689  0.66703957  0.17015448  1  -0.019894  0  -0.074577  -0.090241  0  3.947997  0
C  C230  1  0.29157681  0.16704269  0.67015395  1  -0.019565  0  -0.074611  -0.090258  0  3.947853  0
C  C231  1  0.79157701  0.33295770  0.82984614  1  -0.019429  0  -0.074586  -0.090239  0  3.947715  0
C  C232  1  0.97277858  0.23267580  0.24031452  1  -0.121541  0  -0.007436  0.071555  0  4.00413  0
C  C233  1  0.47277345  0.26732482  0.25968469  1  -0.121562  0  -0.007487  0.071569  0  4.004222  0
C  C234  1  0.02722746  0.76732442  0.75968502  1  -0.121577  0  -0.007541  0.071501  0  4.004184  0
C  C235  1  0.52722618  0.73267688  0.74031517  1  -0.121545  0  -0.007527  0.07156  0  4.004259  0
C  C236  1  0.91236711  0.32661349  0.24907128  1  -0.04577  0  -0.088863  -0.122768  0  3.977793  0
C  C237  1  0.41236161  0.17338776  0.25092881  1  -0.045771  0  -0.088836  -0.122798  0  3.977817  0
C  C238  1  0.08763786  0.67338747  0.75092943  1  -0.045791  0  -0.088807  -0.122686  0  3.977786  0
C  C239  1  0.58763694  0.82661395  0.74907105  1  -0.04579  0  -0.08882  -0.122745  0  3.977897  0
C  C240  1  0.91367903  0.36976671  0.28632922  1  -0.023212  0  -0.090535  -0.12659  0  3.974037  0
C  C241  1  0.41367443  0.13023454  0.21367001  1  -0.023792  0  -0.090498  -0.126405  0  3.974018  0
C  C242  1  0.08632594  0.63023352  0.71367061  1  -0.023782  0  -0.090467  -0.126429  0  3.974042  0
C  C243  1  0.58632413  0.86976716  0.78632986  1  -0.023808  0  -0.090543  -0.12655  0  3.974174  0
C  C244  1  0.97796627  0.32085598  0.31637724  1  -0.046275  0  -0.011669  0.057043  0  4.027419  0
C  C245  1  0.47796078  0.17914464  0.18362256  1  -0.045713  0  -0.011736  0.056962  0  4.027613  0
C  C246  1  0.02203763  0.67914276  0.68362256  1  -0.045668  0  -0.011743  0.056908  0  4.027551  0
C  C247  1  0.52203671  0.82085706  0.81637760  1  -0.045676  0  -0.011763  0.056898  0  4.027629  0
C  C248  1  0.03655128  0.22640287  0.30792742  1  -0.010548  0  -0.092391  -0.132769  0  3.989259  0
C  C249  1  0.53654801  0.27359842  0.19207239  1  -0.010407  0  -0.092369  -0.132708  0  3.989119  0
C  C250  1  0.96345155  0.77359736  0.69207299  1  -0.010398  0  -0.092389  -0.132744  0  3.98925  0
C  C251  1  0.46344948  0.72640254  0.80792718  1  -0.010398  0  -0.092402  -0.132785  0  3.989204  0
C  C252  1  0.03396598  0.18327705  0.27068620  1  -0.034423  0  -0.086982  -0.11592  0  3.979249  0
C  C253  1  0.53396289  0.31672275  0.22931328  1  -0.034402  0  -0.086979  -0.115989  0  3.979173  0
C  C254  1  0.96603792  0.81672169  0.72931360  1  -0.034413  0  -0.086962  -0.115938  0  3.97927  0
C  C255  1  0.46603567  0.68327895  0.77068630  1  -0.034425  0  -0.08696  -0.115968  0  3.979285  0
C  C256  1  0.99082619  0.37033766  0.35504347  1  -0.024045  0  -0.003377  0.025948  0  3.995225  0
C  C257  1  0.49082370  0.12966225  0.14495717  1  -0.023888  0  -0.003362  0.025881  0  3.995269  0
C  C258  1  0.00917558  0.62966108  0.64495633  1  -0.023945  0  -0.003365  0.025978  0  3.995354  0
C  C259  1  0.50917593  0.87033871  0.85504354  1  -0.02394  0  -0.0033  0.026132  0  3.995395  0
C  C260  1  0.98615882  0.31768393  0.38854199  1  0.484447  0  0.038918  0.031351  0  3.909422  0
C  C261  1  0.48615974  0.18231376  0.11145744  1  0.484333  0  0.038978  0.031443  0  3.909409  0
C  C262  1  0.01384187  0.68231556  0.61145782  1  0.484354  0  0.038958  0.031376  0  3.909455  0
C  C263  1  0.51384202  0.81768498  0.88854235  1  0.484357  0  0.038966  0.03138  0  3.909443  0
C  C264  1  0.02750457  0.45854173  0.42786170  1  0.450131  0  0.034965  0.069793  0  3.95944  0
C  C265  1  0.52750573  0.04145511  0.07213886  1  0.450132  0  0.034937  0.069761  0  3.959399  0
C  C266  1  0.97249505  0.54145850  0.57213842  1  0.450198  0  0.034941  0.069692  0  3.959527  0
C  C267  1  0.47249283  0.95854364  0.92786122  1  0.450074  0  0.034981  0.069843  0  3.95939  0
C  C268  1  0.02877272  0.51740964  0.39645966  1  0.020914  0  -0.088316  -0.121098  0  3.991458  0
C  C269  1  0.52877236  0.98259304  0.10354055  1  0.020902  0  -0.088279  -0.121081  0  3.991557  0
C  C270  1  0.97122477  0.48258984  0.60354016  1  0.020915  0  -0.088309  -0.121078  0  3.99149  0
C  C271  1  0.47122726  0.01740718  0.89645957  1  0.020916  0  -0.088264  -0.120971  0  3.991484  0
C  C272  1  0.01006938  0.47313784  0.35976617  1  -0.056741  0  -0.064824  -0.072072  0  3.919797  0
C  C273  1  0.51006729  0.02686192  0.14023360  1  -0.056785  0  -0.064786  -0.071977  0  3.919842  0
C  C274  1  0.98993131  0.52686165  0.64023394  1  -0.056746  0  -0.064818  -0.072048  0  3.91982  0
C  C275  1  0.48993127  0.97313904  0.85976625  1  -0.056843  0  -0.064848  -0.072211  0  3.919956  0
C  C276  1  0.00776471  0.26608723  0.17113284  1  0.009404  0  -0.008113  0.072812  0  4.02365  0
C  C277  1  0.50776346  0.23391252  0.32886636  1  0.009207  0  -0.008127  0.072744  0  4.023726  0
C  C278  1  0.99223599  0.73391373  0.82886702  1  0.00922  0  -0.008133  0.072792  0  4.0236  0
C  C279  1  0.49223724  0.76608770  0.67113319  1  0.00923  0  -0.008148  0.072713  0  4.023688  0
C  C280  1  0.90988969  0.28056154  0.14149079  1  -0.088211  0  -0.091873  -0.127743  0  3.98563  0
C  C281  1  0.40989188  0.21943822  0.35850898  1  -0.088159  0  -0.091892  -0.127726  0  3.985644  0
C  C282  1  0.09010886  0.71944016  0.85850993  1  -0.088158  0  -0.091849  -0.127666  0  3.985617  0
C  C283  1  0.59011095  0.78055978  0.64148994  1  -0.088373  0  -0.09182  -0.127619  0  3.985583  0
C  C284  1  0.93454333  0.35188913  0.11522114  1  -0.018949  0  -0.096459  -0.124452  0  3.97713  0
C  C285  1  0.43454525  0.14811290  0.38477868  1  -0.018843  0  -0.096415  -0.124404  0  3.977129  0
C  C286  1  0.06545523  0.64811479  0.88477964  1  -0.018847  0  -0.096431  -0.124419  0  3.977124  0
C  C287  1  0.56545652  0.85188437  0.61521993  1  -0.018703  0  -0.096452  -0.124468  0  3.977163  0
C  C288  1  0.05939332  0.40961129  0.11697314  1  -0.008055  0  -0.011475  0.065713  0  4.00904  0
C  C289  1  0.55939581  0.09038930  0.38302722  1  -0.008083  0  -0.011458  0.065773  0  4.008947  0
C  C290  1  0.94060737  0.59038967  0.88302757  1  -0.007998  0  -0.011475  0.065726  0  4.008934  0
C  C291  1  0.44061023  0.90960871  0.61697199  1  -0.00788  0  -0.011466  0.065783  0  4.008903  0
C  C292  1  0.15907022  0.39351851  0.14620972  1  -0.076327  0  -0.092919  -0.135176  0  3.99142  0
C  C293  1  0.65906742  0.10648152  0.35378919  1  -0.076359  0  -0.093001  -0.13533  0  3.99158  0
C  C294  1  0.84093368  0.60648319  0.85378986  1  -0.076281  0  -0.092929  -0.135211  0  3.991505  0
C  C295  1  0.34093434  0.89351574  0.64620971  1  -0.076277  0  -0.092933  -0.135284  0  3.991549  0
C  C296  1  0.13201299  0.32437182  0.17330548  1  -0.090973  0  -0.091835  -0.129552  0  3.977642  0
C  C297  1  0.63201365  0.17562669  0.32669397  1  -0.090888  0  -0.091752  -0.129416  0  3.977697  0
C  C298  1  0.86798770  0.67562693  0.82669461  1  -0.091007  0  -0.091833  -0.129523  0  3.977753  0
C  C299  1  0.36798918  0.82437280  0.67330498  1  -0.091007  0  -0.091832  -0.129485  0  3.977748  0
C  C300  1  0.08206960  0.48456326  0.08855844  1  -0.009783  0  -0.007081  0.023271  0  3.992096  0
C  C301  1  0.58206860  0.01543663  0.41144190  1  -0.009851  0  -0.007069  0.023321  0  3.992045  0
C  C302  1  0.91793323  0.51543770  0.91144256  1  -0.009849  0  -0.007121  0.023325  0  3.992053  0
C  C303  1  0.41793423  0.98455841  0.58855609  1  -0.009928  0  -0.007097  0.023265  0  3.992027  0
C  C304  1  0.21925454  0.50422531  0.07473681  1  0.466066  0  0.037696  0.03575  0  3.916117  0
C  C305  1  0.71925432  0.99577477  0.42526219  1  0.466037  0  0.037642  0.035728  0  3.916153  0
C  C306  1  0.78074616  0.49577418  0.92526243  1  0.466078  0  0.037625  0.035665  0  3.916115  0
C  C307  1  0.28074745  0.00422323  0.57473616  1  0.466082  0  0.037658  0.0357  0  3.916112  0
C  C308  1  0.13448124  0.61758554  0.03329324  1  0.444626  0  0.035241  0.076756  0  3.951027  0
C  C309  1  0.63448166  0.88241216  0.46670542  1  0.44462  0  0.035237  0.076747  0  3.950921  0
C  C310  1  0.86551946  0.38241172  0.96670509  1  0.444612  0  0.035274  0.076784  0  3.950849  0
C  C311  1  0.36551904  0.11758437  0.53329404  1  0.444639  0  0.03525  0.07681  0  3.951022  0
C  C312  1  0.99443521  0.60374246  0.04530122  1  -0.005408  0  -0.090187  -0.117987  0  3.982191  0
C  C313  1  0.49443596  0.89625591  0.45469861  1  -0.00535  0  -0.090223  -0.117956  0  3.982042  0
C  C314  1  0.00556549  0.39625629  0.95469887  1  -0.005354  0  -0.090236  -0.117924  0  3.982118  0
C  C315  1  0.50556581  0.10374357  0.54530092  1  -0.005419  0  -0.090244  -0.11803  0  3.982212  0
C  C316  1  0.96796339  0.53728061  0.07340891  1  -0.090982  0  -0.071274  -0.078  0  3.916707  0
C  C317  1  0.46796546  0.96272140  0.42659100  1  -0.090719  0  -0.071274  -0.078054  0  3.916704  0
C  C318  1  0.03203517  0.46272331  0.92659158  1  -0.090909  0  -0.071169  -0.078026  0  3.916727  0
C  C319  1  0.53203524  0.03727808  0.57340767  1  -0.090993  0  -0.071241  -0.078002  0  3.916723  0
I  I320  1  0.40521470  0.58032049  0.94064210  1  -0.414306  0  -0.195835  -0.352527  0  1.906358  0
I  I321  1  0.90521089  0.91968004  0.55935809  1  -0.41431  0  -0.195837  -0.35253  0  1.906303  0
I  I322  1  0.59478386  0.41967973  0.05935774  1  -0.414316  0  -0.195812  -0.352499  0  1.906296  0
I  I323  1  0.09478767  0.08032092  0.44064176  1  -0.41439  0  -0.195833  -0.352522  0  1.906321  0
I  I324  1  0.64006306  0.75419320  0.04445171  1  -0.418846  0  -0.217411  -0.379687  0  1.875138  0
I  I325  1  0.14006430  0.74580599  0.45554813  1  -0.418933  0  -0.217421  -0.379731  0  1.875187  0
I  I326  1  0.35993336  0.24580628  0.95554781  1  -0.418899  0  -0.21742  -0.379706  0  1.875176  0
I  I327  1  0.85993532  0.25419349  0.54445198  1  -0.418845  0  -0.217415  -0.379719  0  1.875155  0
N  N328  1  0.25774502  0.84627639  0.99212637  1  -1.225729  0  -0.335314  -0.214587  0  3.540634  0
N  N329  1  0.75774659  0.65372239  0.50787377  1  -1.225774  0  -0.335347  -0.21463  0  3.5406  0
N  N330  1  0.74225247  0.15372236  0.00787371  1  -1.225779  0  -0.335275  -0.214527  0  3.540641  0
N  N331  1  0.24225304  0.34627857  0.49212666  1  -1.22627  0  -0.335314  -0.214636  0  3.540833  0
N  N332  1  0.81958433  0.64173633  0.31837937  1  -1.226004  0  -0.325104  -0.273016  0  3.378267  0
N  N333  1  0.31958487  0.85826393  0.18162049  1  -1.226008  0  -0.325065  -0.272889  0  3.378195  0
N  N334  1  0.18041636  0.35826463  0.68162105  1  -1.226077  0  -0.325085  -0.272933  0  3.378331  0
N  N335  1  0.68041689  0.14173407  0.81837900  1  -1.226073  0  -0.325094  -0.272996  0  3.378379  0
N  N336  1  0.00378348  0.36033118  0.42406720  1  -1.218531  0  -0.337892  -0.190228  0  3.564412  0
N  N337  1  0.50378501  0.13966709  0.07593253  1  -1.218559  0  -0.337904  -0.190271  0  3.564335  0
N  N338  1  0.99621508  0.63966830  0.57593290  1  -1.218605  0  -0.337919  -0.190207  0  3.564403  0
N  N339  1  0.49621461  0.86033166  0.92406698  1  -1.218499  0  -0.33792  -0.190257  0  3.564294  0
N  N340  1  0.24515376  0.56900435  0.04798866  1  -1.214937  0  -0.338332  -0.185198  0  3.572222  0
N  N341  1  0.74515543  0.93099651  0.45200978  1  -1.214901  0  -0.338278  -0.185169  0  3.572181  0
N  N342  1  0.75484587  0.43099587  0.95201002  1  -1.214901  0  -0.338301  -0.185166  0  3.572015  0
N  N343  1  0.25484526  0.06900075  0.54798855  1  -1.214961  0  -0.338275  -0.185135  0  3.572225  0
