# generated using pymatgen
data_Zn4H42C64N4O25
_symmetry_space_group_name_H-M   'P 1'
_cell_length_a   11.13712211
_cell_length_b   14.07975424
_cell_length_c   26.62038056
_cell_angle_alpha   90.02260547
_cell_angle_beta   89.76736901
_cell_angle_gamma   89.90650511
_symmetry_Int_Tables_number   1
_chemical_formula_structural   Zn4H42C64N4O25
_chemical_formula_sum   'Zn4 H42 C64 N4 O25'
_cell_volume   4174.24679521
_cell_formula_units_Z   1
loop_
 _symmetry_equiv_pos_site_id
 _symmetry_equiv_pos_as_xyz
  1  'x, y, z'
loop_
 _atom_site_type_symbol
 _atom_site_label
 _atom_site_symmetry_multiplicity
 _atom_site_fract_x
 _atom_site_fract_y
 _atom_site_fract_z
 _atom_site_occupancy
 _atom_site_pbe_bader_charge
 _atom_site_pbe_bader_spin_density
 _atom_site_pbe_cm5_charge
 _atom_site_pbe_ddec_charge
 _atom_site_pbe_ddec_spin_density
 _atom_site_pbe_ddec_sum_bond_order
 _atom_site_pbe_magmom
Zn  Zn0  1  0.50308875  0.39990606  0.49891706  1  1.290606  0  0.665904  0.81142  0  2.431278  0
Zn  Zn1  1  0.50159056  0.59804987  0.50000766  1  1.260224  0  0.666324  0.810552  0  2.431814  0
Zn  Zn2  1  0.50336101  0.60150127  0.08041482  1  1.276355  0  0.664918  0.812877  0  2.438198  0
Zn  Zn3  1  0.50258854  0.40353323  0.08121195  1  1.301263  0  0.664516  0.807145  0  2.436985  0
H  H4  1  0.63148160  0.24742802  0.44376023  1  0.125101  0  0.130544  0.111691  0  0.986391  0
H  H5  1  0.36821287  0.75008474  0.55426209  1  0.090614  0  0.129459  0.110837  0  0.987294  0
H  H6  1  0.63457823  0.75130567  0.44569163  1  0.124683  0  0.130129  0.105756  0  0.976155  0
H  H7  1  0.63725590  0.92607240  0.44341818  1  0.149966  0  0.116492  0.135135  0  1.040476  0
H  H8  1  0.36888037  0.24716684  0.55395728  1  0.128769  0  0.129421  0.107408  0  0.971106  0
H  H9  1  0.36439744  0.07224787  0.55587420  1  0.117662  0  0.115281  0.133971  0  1.04022  0
H  H10  1  0.50097847  0.65511105  0.24313431  1  0.100691  0  0.103377  0.126863  0  1.001062  0
H  H11  1  0.42168264  0.27986749  0.24251279  1  0.055288  0  0.091648  0.099685  0  0.987451  0
H  H12  1  0.58188991  0.27861428  0.24227285  1  0.051582  0  0.086952  0.090516  0  0.998885  0
H  H13  1  0.58223371  0.28040934  0.33678913  1  0.049694  0  0.083452  0.083406  0  1.006085  0
H  H14  1  0.42194485  0.28121357  0.33729803  1  0.056996  0  0.092598  0.101653  0  0.985524  0
H  H15  1  0.49779890  0.34725033  0.65974885  1  0.091453  0  0.100931  0.11056  0  1.021907  0
H  H16  1  0.49952821  0.65192748  0.92012948  1  0.0593  0  0.101472  0.111407  0  1.022447  0
H  H17  1  0.50005853  0.34811584  0.91936072  1  0.06573  0  0.09737  0.102513  0  1.013398  0
H  H18  1  0.49983463  0.34930506  0.82752880  1  0.129585  0  0.100999  0.115278  0  1.066467  0
H  H19  1  0.50006433  0.65117606  0.66082290  1  0.068807  0  0.096423  0.10138  0  1.014024  0
H  H20  1  0.50056118  0.64961901  0.75259002  1  0.125962  0  0.101056  0.115594  0  1.0668  0
H  H21  1  0.89020024  0.34501075  0.49979261  1  0.096141  0  0.102582  0.125557  0  1.001833  0
H  H22  1  0.88812285  0.72088310  0.46607409  1  0.048009  0  0.088963  0.093696  0  0.99752  0
H  H23  1  0.88556281  0.72103032  0.53314806  1  0.050419  0  0.090129  0.097199  0  0.990486  0
H  H24  1  0.11161066  0.71948200  0.53412296  1  0.051502  0  0.084049  0.084202  0  1.00488  0
H  H25  1  0.11426636  0.71988595  0.46703509  1  0.050561  0  0.093575  0.103361  0  0.984955  0
H  H26  1  0.63188142  0.75287895  0.13443470  1  0.115673  0  0.131302  0.115174  0  0.978948  0
H  H27  1  0.37024346  0.25245064  0.02601034  1  0.124779  0  0.129026  0.110349  0  0.990293  0
H  H28  1  0.63415279  0.24946122  0.13456020  1  0.116855  0  0.129017  0.103397  0  0.982188  0
H  H29  1  0.63836244  0.07424664  0.13565301  1  0.128487  0  0.114527  0.132691  0  1.045249  0
H  H30  1  0.36944963  0.75534689  0.02513693  1  0.097795  0  0.12885  0.106071  0  0.971518  0
H  H31  1  0.36600030  0.93031606  0.02345338  1  0.14847  0  0.11438  0.133318  0  1.042132  0
H  H32  1  0.89012161  0.65564540  0.07986733  1  0.09178  0  0.102275  0.124833  0  1.002916  0
H  H33  1  0.88903312  0.28004280  0.11427978  1  0.059924  0  0.08735  0.091096  0  0.999033  0
H  H34  1  0.88769567  0.27938201  0.04724483  1  0.064082  0  0.089641  0.096413  0  0.990864  0
H  H35  1  0.11380966  0.28113840  0.04618420  1  0.01465  0  0.083981  0.08426  0  1.005321  0
H  H36  1  0.11533815  0.28075588  0.11324594  1  0.035877  0  0.092108  0.101329  0  0.987379  0
H  H37  1  0.70080230  0.11424066  0.41647282  1  0.63173  0  0.353706  0.378085  0  0.852918  0
H  H38  1  0.29987811  0.88320031  0.58229650  1  0.624065  0  0.352282  0.376576  0  0.854541  0
H  H39  1  0.49984756  0.27680406  0.72895205  1  0.600989  0  0.335786  0.360546  0  0.878948  0
H  H40  1  0.50164086  0.72219345  0.85095987  1  0.608131  0  0.336468  0.362025  0  0.878226  0
H  H41  1  0.70142358  0.88529103  0.16187964  1  0.625607  0  0.354821  0.379612  0  0.848922  0
H  H42  1  0.30214140  0.11989120  0.99764975  1  0.616541  0  0.351167  0.375634  0  0.856095  0
H  H43  1  0.49829964  0.65859254  0.37596963  1  0.636074  0  0.29539  0.345636  0  0.989595  0
H  H44  1  0.20764425  0.34244357  0.49830576  1  0.661507  0  0.295177  0.34514  0  0.991615  0
H  H45  1  0.20778487  0.65803466  0.08167156  1  0.661857  0  0.294956  0.343476  0  0.994578  0
C  C46  1  0.49735067  0.49884173  0.59772505  1  1.53396  0  0.214393  0.596834  0  4.158706  0
C  C47  1  0.26303988  0.49953672  0.49935269  1  1.475745  0  0.214585  0.612819  0  4.158304  0
C  C48  1  0.50168984  0.50112008  0.39948204  1  1.508148  0  0.214681  0.614264  0  4.155787  0
C  C49  1  0.73689799  0.49606771  0.49856309  1  1.519306  0  0.215613  0.598961  0  4.166921  0
C  C50  1  0.49839863  0.50115533  0.98233083  1  1.544156  0  0.213221  0.59364  0  4.163512  0
C  C51  1  0.26355772  0.50105362  0.08056562  1  1.469741  0  0.213471  0.611098  0  4.161703  0
C  C52  1  0.50241998  0.50335808  0.17919652  1  1.499122  0  0.215965  0.598502  0  4.16652  0
C  C53  1  0.73774508  0.50443469  0.08055401  1  1.54844  0  0.215246  0.598557  0  4.171104  0
C  C54  1  0.57305330  0.20547228  0.46830369  1  0.592534  0  0.042457  -0.051079  0  3.952664  0
C  C55  1  0.57772540  0.10624657  0.46697871  1  0.429624  0  0.097346  0.228016  0  4.032022  0
C  C56  1  0.42723127  0.79231605  0.53009789  1  0.560939  0  0.041069  -0.054028  0  3.953279  0
C  C57  1  0.42296134  0.89154810  0.53182114  1  0.503509  0  0.096437  0.227184  0  4.030824  0
C  C58  1  0.57500008  0.79297722  0.46965359  1  0.386355  0  0.048095  0.075144  0  3.950767  0
C  C59  1  0.57572144  0.89133461  0.46896597  1  0.049143  0  -0.079518  -0.158513  0  3.946771  0
C  C60  1  0.42695788  0.20526079  0.52946170  1  0.450532  0  0.04544  0.071033  0  3.952662  0
C  C61  1  0.42581995  0.10687631  0.53021087  1  0.028703  0  -0.081186  -0.159742  0  3.951963  0
C  C62  1  0.50144132  0.05166602  0.49891843  1  -0.029598  0  0.007891  0.014537  0  3.901658  0
C  C63  1  0.49953400  0.94634028  0.50010639  1  0.053324  0  0.008099  0.015442  0  3.90038  0
C  C64  1  0.50276333  0.50264579  0.23538651  1  0.076881  0  -0.011934  -0.04402  0  3.994138  0
C  C65  1  0.50234851  0.50216897  0.34403915  1  0.019844  0  -0.038392  -0.230761  0  3.985157  0
C  C66  1  0.50297323  0.41835880  0.26316584  1  -0.003675  0  -0.021626  0.025232  0  3.912801  0
C  C67  1  0.50189480  0.58857541  0.31584503  1  0.537504  0  0.086715  0.310242  0  4.055223  0
C  C68  1  0.50285791  0.41901707  0.31539426  1  -0.076808  0  -0.010055  0.081096  0  3.927637  0
C  C69  1  0.50225186  0.58750120  0.26299362  1  -0.056485  0  -0.103854  -0.229206  0  3.941167  0
C  C70  1  0.50206971  0.31083917  0.25980975  1  0.001655  0  -0.156018  -0.191657  0  3.903603  0
C  C71  1  0.50206498  0.31163074  0.31926595  1  -0.076633  0  -0.155976  -0.194391  0  3.902074  0
C  C72  1  0.49775659  0.49900522  0.65381491  1  0.028282  0  -0.022651  -0.002876  0  4.019213  0
C  C73  1  0.49869476  0.50028887  0.92615808  1  -0.023783  0  -0.020284  0.002627  0  4.011013  0
C  C74  1  0.49779836  0.41413184  0.68065371  1  -0.000798  0  -0.112125  -0.255247  0  4.029112  0
C  C75  1  0.49855086  0.41232711  0.73305424  1  0.332449  0  0.081135  0.262691  0  4.022188  0
C  C76  1  0.49909508  0.58503310  0.89923962  1  -0.087189  0  -0.111513  -0.255538  0  4.027061  0
C  C77  1  0.49958649  0.58670952  0.84685275  1  0.472842  0  0.081152  0.264368  0  4.020967  0
C  C78  1  0.49921100  0.41527206  0.89909411  1  0.098331  0  -0.103851  -0.125542  0  4.0443  0
C  C79  1  0.49941199  0.41671253  0.84700141  1  -0.08418  0  -0.100392  -0.129759  0  3.998763  0
C  C80  1  0.49891519  0.58391152  0.68098237  1  0.050655  0  -0.103512  -0.123909  0  4.045786  0
C  C81  1  0.49947877  0.58228087  0.73305908  1  -0.074461  0  -0.099724  -0.129706  0  3.997892  0
C  C82  1  0.49909178  0.49780868  0.76210417  1  -0.074925  0  -0.010602  -0.009221  0  3.899637  0
C  C83  1  0.49935643  0.50114133  0.81789507  1  0.033907  0  -0.011727  -0.012919  0  3.901462  0
C  C84  1  0.87097231  0.49750507  0.49941183  1  0.067423  0  -0.013065  -0.047106  0  4.000642  0
C  C85  1  0.13047393  0.49842308  0.49984412  1  0.063497  0  -0.037224  -0.230235  0  3.984067  0
C  C86  1  0.93687773  0.58192864  0.49983300  1  0.022766  0  -0.021647  0.025292  0  3.91322  0
C  C87  1  0.06354720  0.41187845  0.49967682  1  0.487961  0  0.087145  0.312321  0  4.056274  0
C  C88  1  0.06173104  0.58145225  0.50015268  1  -0.096527  0  -0.008679  0.084558  0  3.925134  0
C  C89  1  0.93727873  0.41273729  0.49965225  1  -0.012392  0  -0.104312  -0.22928  0  3.942745  0
C  C90  1  0.92849933  0.68945038  0.49983308  1  0.01476  0  -0.156112  -0.193086  0  3.907008  0
C  C91  1  0.07058910  0.68884382  0.50026524  1  -0.088911  0  -0.1558  -0.195511  0  3.901265  0
C  C92  1  0.57381858  0.79541042  0.11013025  1  0.494228  0  0.042644  -0.0509  0  3.948404  0
C  C93  1  0.57895165  0.89460249  0.11164135  1  0.553716  0  0.097245  0.229401  0  4.028881  0
C  C94  1  0.42893618  0.20976032  0.04996735  1  0.480516  0  0.04176  -0.053142  0  3.955643  0
C  C95  1  0.42492024  0.11056301  0.04780038  1  0.525621  0  0.094365  0.223467  0  4.033332  0
C  C96  1  0.57558865  0.20798311  0.11035642  1  0.535203  0  0.048005  0.072823  0  3.956457  0
C  C97  1  0.57684916  0.10958937  0.11047237  1  -0.080969  0  -0.082401  -0.165646  0  3.955405  0
C  C98  1  0.42788989  0.79680505  0.04943220  1  0.557424  0  0.045547  0.071564  0  3.953872  0
C  C99  1  0.42730471  0.89519057  0.04882377  1  -0.077971  0  -0.081812  -0.162499  0  3.954887  0
C  C100  1  0.50305991  0.94980923  0.08000613  1  -0.006186  0  0.007169  0.014309  0  3.901118  0
C  C101  1  0.50121210  0.05514478  0.07916214  1  0.040098  0  0.00664  0.017906  0  3.898636  0
C  C102  1  0.87178202  0.50317562  0.08030472  1  0.057043  0  -0.014372  -0.048302  0  4.005953  0
C  C103  1  0.13106177  0.50228121  0.08024698  1  0.043903  0  -0.037688  -0.230156  0  3.989038  0
C  C104  1  0.93795753  0.41873106  0.08026635  1  0.043019  0  -0.022734  0.024032  0  3.917003  0
C  C105  1  0.06385852  0.58883213  0.08032902  1  0.495629  0  0.086396  0.311473  0  4.059732  0
C  C106  1  0.06275832  0.41922714  0.08008716  1  -0.121143  0  -0.009814  0.082593  0  3.929418  0
C  C107  1  0.93762290  0.58797366  0.08015324  1  -0.012289  0  -0.105123  -0.229566  0  3.946639  0
C  C108  1  0.92998949  0.31122877  0.08045655  1  -0.091568  0  -0.156621  -0.191067  0  3.907673  0
C  C109  1  0.07209181  0.31182918  0.08004533  1  0.063545  0  -0.156313  -0.196165  0  3.90369  0
N  N110  1  0.49988012  0.25413067  0.49864982  1  -1.251631  0  -0.317575  -0.157886  0  3.575002  0
N  N111  1  0.50108363  0.74386797  0.49991560  1  -1.21401  0  -0.316894  -0.157875  0  3.573608  0
N  N112  1  0.50048718  0.74735809  0.07993115  1  -1.230977  0  -0.317456  -0.156239  0  3.573209  0
N  N113  1  0.50199415  0.25761437  0.08038923  1  -1.252504  0  -0.314926  -0.151673  0  3.567936  0
O  O114  1  0.49683852  0.41847236  0.57554053  1  -1.157525  0  -0.322159  -0.55274  0  2.319504  0
O  O115  1  0.49771625  0.57966795  0.57606986  1  -1.166947  0  -0.321847  -0.552873  0  2.333479  0
O  O116  1  0.31666040  0.57895206  0.49985519  1  -1.168781  0  -0.310415  -0.529772  0  2.304715  0
O  O117  1  0.31702139  0.41800209  0.49825401  1  -1.162393  0  -0.313163  -0.559124  0  2.362135  0
O  O118  1  0.49933235  0.58255694  0.42213109  1  -1.157032  0  -0.313695  -0.560877  0  2.357478  0
O  O119  1  0.50316708  0.42160577  0.42195761  1  -1.163684  0  -0.311763  -0.532971  0  2.308375  0
O  O120  1  0.68543125  0.41524641  0.49836086  1  -1.170556  0  -0.321502  -0.549738  0  2.327418  0
O  O121  1  0.68391516  0.57650501  0.49808805  1  -1.152087  0  -0.314317  -0.541347  0  2.311028  0
O  O122  1  0.49742059  0.58208591  0.00393124  1  -1.160378  0  -0.321437  -0.551179  0  2.321361  0
O  O123  1  0.49916463  0.42086353  0.00436709  1  -1.171085  0  -0.319931  -0.550936  0  2.329648  0
O  O124  1  0.31711858  0.42154148  0.08004901  1  -1.167794  0  -0.31027  -0.52936  0  2.305848  0
O  O125  1  0.31725757  0.58257400  0.08144803  1  -1.169271  0  -0.312915  -0.557069  0  2.358153  0
O  O126  1  0.50068076  0.42241011  0.15765924  1  -1.149149  0  -0.314395  -0.540011  0  2.312213  0
O  O127  1  0.50364602  0.58372364  0.15717161  1  -1.17378  0  -0.32184  -0.552016  0  2.320544  0
O  O128  1  0.68586666  0.58524078  0.08022750  1  -1.176391  0  -0.322596  -0.551513  0  2.327387  0
O  O129  1  0.68549363  0.42390634  0.08104700  1  -1.164498  0  -0.31413  -0.540465  0  2.309775  0
O  O130  1  0.65703365  0.06468258  0.43441641  1  -1.131863  0  -0.329612  -0.420241  0  2.320744  0
O  O131  1  0.34376477  0.93295438  0.56455413  1  -1.128648  0  -0.331839  -0.422911  0  2.317032  0
O  O132  1  0.49892996  0.32412913  0.75565938  1  -1.121687  0  -0.351184  -0.443784  0  2.317041  0
O  O133  1  0.50038272  0.67492123  0.82423063  1  -1.125592  0  -0.352058  -0.446013  0  2.317424  0
O  O134  1  0.65834009  0.93540583  0.14412678  1  -1.12833  0  -0.331452  -0.423006  0  2.315651  0
O  O135  1  0.34623943  0.06975283  0.01493323  1  -1.122663  0  -0.33257  -0.423831  0  2.318839  0
O  O136  1  0.50076620  0.67425885  0.33910073  1  -1.157606  0  -0.376254  -0.469301  0  2.246173  0
O  O137  1  0.11952603  0.32635525  0.49934934  1  -1.178384  0  -0.376727  -0.471053  0  2.247649  0
O  O138  1  0.11960798  0.67429424  0.08062994  1  -1.182079  0  -0.377116  -0.470771  0  2.249831  0
