# generated using pymatgen
data_Cd2H8C10N8O5
_symmetry_space_group_name_H-M   'P 1'
_cell_length_a   9.29650841
_cell_length_b   10.02064730
_cell_length_c   15.73129126
_cell_angle_alpha   90.00000449
_cell_angle_beta   89.99999808
_cell_angle_gamma   89.36837355
_symmetry_Int_Tables_number   1
_chemical_formula_structural   Cd2H8C10N8O5
_chemical_formula_sum   'Cd8 H32 C40 N32 O20'
_cell_volume   1465.39135526
_cell_formula_units_Z   4
loop_
 _symmetry_equiv_pos_site_id
 _symmetry_equiv_pos_as_xyz
  1  'x, y, z'
loop_
 _atom_site_type_symbol
 _atom_site_label
 _atom_site_symmetry_multiplicity
 _atom_site_fract_x
 _atom_site_fract_y
 _atom_site_fract_z
 _atom_site_occupancy
 _atom_site_pbe_bader_spin_density
 _atom_site_pbe_cm5_charge
 _atom_site_pbe_ddec_charge
 _atom_site_pbe_ddec_spin_density
 _atom_site_pbe_ddec_sum_bond_order
 _atom_site_pbe_magmom
Cd  Cd0  1  0.09888075  0.90349878  0.27378937  1  0  0.824737  0.855776  0  2.275683  0
Cd  Cd1  1  0.40111987  0.59650120  0.77378900  1  0  0.82472  0.855794  0  2.275638  0
Cd  Cd2  1  0.90112006  0.09650206  0.72621056  1  0  0.82473  0.855807  0  2.275632  0
Cd  Cd3  1  0.59888096  0.40349765  0.22621093  1  0  0.824737  0.855799  0  2.275623  0
Cd  Cd4  1  0.11028586  0.61764785  0.44193004  1  0  0.794079  0.863191  0  2.234586  0
Cd  Cd5  1  0.38971367  0.88235215  0.94193096  1  0  0.794102  0.863235  0  2.234571  0
Cd  Cd6  1  0.88971280  0.38235300  0.55806989  1  0  0.794062  0.863175  0  2.2346  0
Cd  Cd7  1  0.61028715  0.11764769  0.05806897  1  0  0.794081  0.863208  0  2.234586  0
H  H8  1  0.41432494  0.89458380  0.60568329  1  0  0.103717  0.110086  0  1.022621  0
H  H9  1  0.08567460  0.60541715  0.10568301  1  0  0.103721  0.110074  0  1.022606  0
H  H10  1  0.58567479  0.10541704  0.39431664  1  0  0.103723  0.110062  0  1.022617  0
H  H11  1  0.91432514  0.39458269  0.89431692  1  0  0.103717  0.110082  0  1.022619  0
H  H12  1  0.53105859  0.10229960  0.65614575  1  0  0.095087  0.091585  0  1.042021  0
H  H13  1  0.96893920  0.39770210  0.15614484  1  0  0.095073  0.091551  0  1.042039  0
H  H14  1  0.46894008  0.89770125  0.34385418  1  0  0.095088  0.091579  0  1.042022  0
H  H15  1  0.03105946  0.60229974  0.84385446  1  0  0.095088  0.091572  0  1.042027  0
H  H16  1  0.45044793  0.32363312  0.59833741  1  0  0.105323  0.111041  0  1.00558  0
H  H17  1  0.04954979  0.17636632  0.09833713  1  0  0.105319  0.111036  0  1.00557  0
H  H18  1  0.54955180  0.67636772  0.40166253  1  0  0.105314  0.111032  0  1.0056  0
H  H19  1  0.95044781  0.82363254  0.90166280  1  0  0.105328  0.111067  0  1.005542  0
H  H20  1  0.12655199  0.12823136  0.44972342  1  0  0.104801  0.112148  0  1.008647  0
H  H21  1  0.37344787  0.37176712  0.94972497  1  0  0.1048  0.112164  0  1.008636  0
H  H22  1  0.87344883  0.87176848  0.55027588  1  0  0.104795  0.11214  0  1.008631  0
H  H23  1  0.62655082  0.62823073  0.05027624  1  0  0.10479  0.112127  0  1.008645  0
H  H24  1  0.42418128  0.75525043  0.16203312  1  0  0.140737  0.11714  0  1.004986  0
H  H25  1  0.07581934  0.74475053  0.66203404  1  0  0.140749  0.117129  0  1.005041  0
H  H26  1  0.57581847  0.24474941  0.83796681  1  0  0.140734  0.117114  0  1.005009  0
H  H27  1  0.92418255  0.25525031  0.33796526  1  0  0.140711  0.11705  0  1.005034  0
H  H28  1  0.77803013  0.75009462  0.17652017  1  0  0.14019  0.113587  0  0.999035  0
H  H29  1  0.72197057  0.74990560  0.67652108  1  0  0.140195  0.113628  0  0.999009  0
H  H30  1  0.22197069  0.24990522  0.82348040  1  0  0.140179  0.113574  0  0.999017  0
H  H31  1  0.27802917  0.25009424  0.32347822  1  0  0.140195  0.113625  0  0.998999  0
H  H32  1  0.14258495  0.82291851  0.09004730  1  0  0.293711  0.397499  0  0.934174  0
H  H33  1  0.35741567  0.67708244  0.59004821  1  0  0.293708  0.397496  0  0.934179  0
H  H34  1  0.85741480  0.17708133  0.90995263  1  0  0.293709  0.397493  0  0.934185  0
H  H35  1  0.64258515  0.32291740  0.40995109  1  0  0.293709  0.39752  0  0.934137  0
H  H36  1  0.00007762  0.91004031  0.09032319  1  0  0.298444  0.395104  0  0.929595  0
H  H37  1  0.49992193  0.58995964  0.59032345  1  0  0.29845  0.395109  0  0.929588  0
H  H38  1  0.99992320  0.08995953  0.90967738  1  0  0.298441  0.395089  0  0.929621  0
H  H39  1  0.50007889  0.41004020  0.40967648  1  0  0.298461  0.395121  0  0.929573  0
C  C40  1  0.26458349  0.99868094  0.52345101  1  0  -0.020438  -0.04437  0  3.988906  0
C  C41  1  0.23541607  0.50131801  0.02345199  1  0  -0.020421  -0.044343  0  3.988895  0
C  C42  1  0.73541624  0.00131990  0.47654829  1  0  -0.020411  -0.04438  0  3.98889  0
C  C43  1  0.76458368  0.49868084  0.97654794  1  0  -0.020427  -0.044356  0  3.988911  0
C  C44  1  0.37674756  0.99163401  0.58303989  1  0  -0.075778  -0.069161  0  3.921946  0
C  C45  1  0.12325199  0.50836594  0.08303897  1  0  -0.07577  -0.069135  0  3.92195  0
C  C46  1  0.62325325  0.00836683  0.41696068  1  0  -0.075772  -0.069095  0  3.921985  0
C  C47  1  0.87674775  0.49163390  0.91696033  1  0  -0.075792  -0.06921  0  3.921972  0
C  C48  1  0.44284387  0.10813655  0.61065934  1  0  -0.093936  -0.083585  0  3.989536  0
C  C49  1  0.05715383  0.39186489  0.11065844  1  0  -0.093945  -0.083571  0  3.98962  0
C  C50  1  0.55715585  0.89186529  0.38934123  1  0  -0.093969  -0.083626  0  3.989644  0
C  C51  1  0.94284483  0.60813695  0.88934086  1  0  -0.093911  -0.0835  0  3.989531  0
C  C52  1  0.39829556  0.23170789  0.57886285  1  0  -0.075868  -0.065842  0  3.910557  0
C  C53  1  0.10170107  0.26829355  0.07886257  1  0  -0.075849  -0.065825  0  3.910576  0
C  C54  1  0.60170310  0.76829395  0.42113709  1  0  -0.075853  -0.065839  0  3.910641  0
C  C55  1  0.89829652  0.73170630  0.92113736  1  0  -0.075879  -0.065903  0  3.910623  0
C  C56  1  0.28319390  0.23964290  0.52122931  1  0  -0.021514  -0.043868  0  3.996061  0
C  C57  1  0.21680382  0.26035654  0.02122903  1  0  -0.021531  -0.043842  0  3.996061  0
C  C58  1  0.71680584  0.76035695  0.47877063  1  0  -0.02149  -0.043821  0  3.996047  0
C  C59  1  0.78319377  0.73964331  0.97877090  1  0  -0.021492  -0.043806  0  3.996042  0
C  C60  1  0.21627886  0.12306547  0.49413935  1  0  -0.075795  -0.094726  0  3.926181  0
C  C61  1  0.28371991  0.37693402  0.99414027  1  0  -0.075822  -0.094813  0  3.926223  0
C  C62  1  0.78372087  0.87693537  0.50585995  1  0  -0.075824  -0.094741  0  3.926109  0
C  C63  1  0.71627877  0.62306483  0.00586030  1  0  -0.075822  -0.094741  0  3.926127  0
C  C64  1  0.19783703  0.87533378  0.48957967  1  0  0.210867  0.585873  0  4.164553  0
C  C65  1  0.30216467  0.62466522  0.98957930  1  0  0.210887  0.585924  0  4.16463  0
C  C66  1  0.80216380  0.12466606  0.51042090  1  0  0.210873  0.585877  0  4.164676  0
C  C67  1  0.69783616  0.37533362  0.01042063  1  0  0.210868  0.58588  0  4.164565  0
C  C68  1  0.23456535  0.37286894  0.48951545  1  0  0.196306  0.557936  0  4.212591  0
C  C69  1  0.26543235  0.12713055  0.98951572  1  0  0.19636  0.558012  0  4.212644  0
C  C70  1  0.76543439  0.62713191  0.51048449  1  0  0.196343  0.557976  0  4.21253  0
C  C71  1  0.73456526  0.87286830  0.01048421  1  0  0.196324  0.557934  0  4.212612  0
C  C72  1  0.38197257  0.69490787  0.21329846  1  0  0.15492  0.137342  0  3.942889  0
C  C73  1  0.11802805  0.80509210  0.71329938  1  0  0.154953  0.137343  0  3.942889  0
C  C74  1  0.61802825  0.30509197  0.78670147  1  0  0.154925  0.137357  0  3.942923  0
C  C75  1  0.88197277  0.19490774  0.28669992  1  0  0.154982  0.137443  0  3.942826  0
C  C76  1  0.81816670  0.69065715  0.22906004  1  0  0.153534  0.135504  0  3.95372  0
C  C77  1  0.68183400  0.80934308  0.72906159  1  0  0.153507  0.135457  0  3.953832  0
C  C78  1  0.18183412  0.30934270  0.77093990  1  0  0.153573  0.135581  0  3.953729  0
C  C79  1  0.31816573  0.19065776  0.27093835  1  0  0.15353  0.135491  0  3.953736  0
N  N80  1  0.27850661  0.73571082  0.26696984  1  0  -0.235104  -0.217247  0  3.408095  0
N  N81  1  0.22149293  0.76428916  0.76697139  1  0  -0.235097  -0.217175  0  3.408035  0
N  N82  1  0.72149313  0.26429002  0.73303010  1  0  -0.235096  -0.21723  0  3.408135  0
N  N83  1  0.77850789  0.23571068  0.23302855  1  0  -0.235091  -0.217183  0  3.408044  0
N  N84  1  0.25780688  0.63186371  0.31994832  1  0  -0.113752  -0.07453  0  3.485936  0
N  N85  1  0.24219375  0.86813428  0.81994987  1  0  -0.113817  -0.074681  0  3.485906  0
N  N86  1  0.74219394  0.36813613  0.68005161  1  0  -0.113774  -0.074569  0  3.485949  0
N  N87  1  0.75780707  0.13186556  0.18005070  1  0  -0.113806  -0.074661  0  3.485974  0
N  N88  1  0.34215677  0.53226221  0.29955584  1  0  -0.094303  -0.055813  0  3.254926  0
N  N89  1  0.15784386  0.96773677  0.79955740  1  0  -0.094246  -0.055679  0  3.254785  0
N  N90  1  0.65784405  0.46773763  0.70044410  1  0  -0.094278  -0.055767  0  3.254944  0
N  N91  1  0.84215589  0.03226307  0.20044253  1  0  -0.094261  -0.055728  0  3.25485  0
N  N92  1  0.42244256  0.56933294  0.23234839  1  0  -0.241359  -0.237463  0  3.433398  0
N  N93  1  0.07755806  0.93066703  0.73234995  1  0  -0.241431  -0.237541  0  3.433453  0
N  N94  1  0.57755934  0.43066690  0.76765155  1  0  -0.241367  -0.237463  0  3.433451  0
N  N95  1  0.92244276  0.06933281  0.26764999  1  0  -0.241408  -0.237497  0  3.433371  0
N  N96  1  0.92170549  0.73028934  0.28218473  1  0  -0.227125  -0.20724  0  3.391272  0
N  N97  1  0.57829521  0.76971090  0.78218565  1  0  -0.227159  -0.207322  0  3.391225  0
N  N98  1  0.07829532  0.26971150  0.71781521  1  0  -0.227113  -0.207237  0  3.391245  0
N  N99  1  0.42170453  0.23028895  0.21781365  1  0  -0.227129  -0.207268  0  3.39134  0
N  N100  1  0.93848098  0.62853761  0.33717004  1  0  -0.117068  -0.068748  0  3.532394  0
N  N101  1  0.56151864  0.87146263  0.83717160  1  0  -0.116984  -0.068613  0  3.532088  0
N  N102  1  0.06151984  0.37146223  0.66283053  1  0  -0.117043  -0.068744  0  3.532392  0
N  N103  1  0.43848109  0.12853821  0.16282897  1  0  -0.117044  -0.068701  0  3.532346  0
N  N104  1  0.85135555  0.53103252  0.31903802  1  0  -0.095048  -0.066168  0  3.2268  0
N  N105  1  0.64864622  0.96896772  0.81903895  1  0  -0.095066  -0.066174  0  3.226875  0
N  N106  1  0.14864526  0.46896832  0.68096191  1  0  -0.095049  -0.066125  0  3.226785  0
N  N107  1  0.35135459  0.03103312  0.18095971  1  0  -0.095066  -0.066206  0  3.226906  0
N  N108  1  0.77330940  0.56805825  0.25062533  1  0  -0.237345  -0.24277  0  3.44989  0
N  N109  1  0.72669132  0.93194098  0.75062626  1  0  -0.237363  -0.242818  0  3.450013  0
N  N110  1  0.22669143  0.43194059  0.74937524  1  0  -0.237387  -0.242871  0  3.449999  0
N  N111  1  0.27330735  0.06805887  0.24937304  1  0  -0.23734  -0.242765  0  3.44993  0
O  O112  1  0.22210008  0.76423442  0.52826117  1  0  -0.314434  -0.540256  0  2.301404  0
O  O113  1  0.27790163  0.73576552  0.02826089  1  0  -0.314423  -0.540252  0  2.301444  0
O  O114  1  0.77790074  0.23576542  0.47173940  1  0  -0.314438  -0.540256  0  2.301478  0
O  O115  1  0.72210134  0.26423431  0.97173905  1  0  -0.314429  -0.540262  0  2.30142  0
O  O116  1  0.11731279  0.88060262  0.42413876  1  0  -0.334111  -0.577101  0  2.317406  0
O  O117  1  0.38268998  0.61939537  0.92413903  1  0  -0.334121  -0.577161  0  2.317441  0
O  O118  1  0.88268695  0.11939723  0.57586118  1  0  -0.334114  -0.577121  0  2.317469  0
O  O119  1  0.61731192  0.38060347  0.07586091  1  0  -0.334117  -0.57711  0  2.317422  0
O  O120  1  0.10104838  0.38770361  0.46562994  1  0  -0.34661  -0.58155  0  2.297154  0
O  O121  1  0.39894932  0.11229588  0.96563084  1  0  -0.346615  -0.58159  0  2.297257  0
O  O122  1  0.89895136  0.61229723  0.53436936  1  0  -0.346606  -0.581553  0  2.297173  0
O  O123  1  0.60104936  0.88770297  0.03437037  1  0  -0.34662  -0.581557  0  2.297173  0
O  O124  1  0.32228783  0.46754199  0.48629639  1  0  -0.306384  -0.532514  0  2.225622  0
O  O125  1  0.17770986  0.03245750  0.98629729  1  0  -0.306421  -0.532577  0  2.225692  0
O  O126  1  0.67771084  0.53245786  0.51370355  1  0  -0.306413  -0.532561  0  2.225572  0
O  O127  1  0.82228774  0.96754135  0.01370264  1  0  -0.306407  -0.532558  0  2.225681  0
O  O128  1  0.06164464  0.85307698  0.12611491  1  0  -0.590477  -0.780859  0  2.126577  0
O  O129  1  0.43835491  0.64692298  0.62611518  1  0  -0.590482  -0.78087  0  2.126577  0
O  O130  1  0.93835510  0.14692286  0.87388503  1  0  -0.590468  -0.780847  0  2.126589  0
O  O131  1  0.56164592  0.35307587  0.37388476  1  0  -0.590486  -0.78089  0  2.126538  0
