# generated using pymatgen
data_H14PbC9O4
_symmetry_space_group_name_H-M   'P 1'
_cell_length_a   4.78420516
_cell_length_b   7.34166959
_cell_length_c   14.91264262
_cell_angle_alpha   90.00023092
_cell_angle_beta   90.48958906
_cell_angle_gamma   90.00003792
_symmetry_Int_Tables_number   1
_chemical_formula_structural   H14PbC9O4
_chemical_formula_sum   'H28 Pb2 C18 O8'
_cell_volume   523.77333541
_cell_formula_units_Z   2
loop_
 _symmetry_equiv_pos_site_id
 _symmetry_equiv_pos_as_xyz
  1  'x, y, z'
loop_
 _atom_site_type_symbol
 _atom_site_label
 _atom_site_symmetry_multiplicity
 _atom_site_fract_x
 _atom_site_fract_y
 _atom_site_fract_z
 _atom_site_occupancy
 _atom_site_hle17_bader_spin_density
 _atom_site_hle17_ddec_charge
 _atom_site_hle17_ddec_spin_density
 _atom_site_hle17_ddec_sum_bond_order
 _atom_site_hle17_magmom
 _atom_site_hse06_10hf_bader_spin_density
 _atom_site_hse06_10hf_ddec_charge
 _atom_site_hse06_10hf_ddec_spin_density
 _atom_site_hse06_10hf_ddec_sum_bond_order
 _atom_site_hse06_10hf_magmom
 _atom_site_hse06_bader_spin_density
 _atom_site_hse06_ddec_charge
 _atom_site_hse06_ddec_spin_density
 _atom_site_hse06_ddec_sum_bond_order
 _atom_site_hse06_magmom
 _atom_site_pbe_bader_spin_density
 _atom_site_pbe_cm5_charge
 _atom_site_pbe_ddec_charge
 _atom_site_pbe_ddec_spin_density
 _atom_site_pbe_ddec_sum_bond_order
 _atom_site_pbe_magmom
H  H0  1  0.52196251  0.13272416  0.20652611  1  0  0.110269  0  0.9399  0  0  0.127588  0  0.998009  0  0  0.129694  0  0.997279  0  0  0.10395  0.126111  0  0.998637  0
H  H1  1  0.52196054  0.36727708  0.20652700  1  0  0.110246  0  0.939956  0  0  0.12757  0  0.998058  0  0  0.129675  0  0.997333  0  0  0.103944  0.126093  0  0.998688  0
H  H2  1  0.47803697  0.86727473  0.79347523  1  0  0.110249  0  0.939908  0  0  0.127566  0  0.998017  0  0  0.129671  0  0.99729  0  0  0.103963  0.126087  0  0.998646  0
H  H3  1  0.47804317  0.63272182  0.79347303  1  0  0.110208  0  0.939968  0  0  0.12752  0  0.998084  0  0  0.129612  0  0.997377  0  0  0.103939  0.126041  0  0.998714  0
H  H4  1  0.97289702  0.36904342  0.11652973  1  0  0.058351  0  0.949649  0  0  0.077504  0  1.012653  0  0  0.078188  0  1.013012  0  0  0.086444  0.07693  0  1.012513  0
H  H5  1  0.97290312  0.13096134  0.11653021  1  0  0.058337  0  0.94964  0  0  0.077485  0  1.012659  0  0  0.078169  0  1.013016  0  0  0.08643  0.076909  0  1.012519  0
H  H6  1  0.02710047  0.63095139  0.88346891  1  0  0.058364  0  0.949647  0  0  0.07754  0  1.012619  0  0  0.078213  0  1.01299  0  0  0.086463  0.076966  0  1.012475  0
H  H7  1  0.02709643  0.86903347  0.88346912  1  0  0.058371  0  0.949617  0  0  0.077523  0  1.012635  0  0  0.078205  0  1.012996  0  0  0.086416  0.076946  0  1.012499  0
H  H8  1  0.50748686  0.36943664  0.03516084  1  0  0.056886  0  0.95069  0  0  0.078512  0  1.009857  0  0  0.078774  0  1.011025  0  0  0.085878  0.078249  0  1.009139  0
H  H9  1  0.50749296  0.13055637  0.03516131  1  0  0.056874  0  0.950635  0  0  0.078514  0  1.009791  0  0  0.078776  0  1.01096  0  0  0.085883  0.078249  0  1.00908  0
H  H10  1  0.49250849  0.63055681  0.96483913  1  0  0.056877  0  0.95066  0  0  0.078509  0  1.009814  0  0  0.078771  0  1.010982  0  0  0.085861  0.078243  0  1.009101  0
H  H11  1  0.49250659  0.86943707  0.96483802  1  0  0.056867  0  0.950739  0  0  0.078512  0  1.009872  0  0  0.078774  0  1.011041  0  0  0.085877  0.078249  0  1.009153  0
H  H12  1  0.95159106  0.36947451  0.94512681  1  0  0.054854  0  0.951782  0  0  0.07553  0  1.013149  0  0  0.075982  0  1.013913  0  0  0.084971  0.075137  0  1.012691  0
H  H13  1  0.95159303  0.13052205  0.94512592  1  0  0.054841  0  0.951778  0  0  0.075519  0  1.013141  0  0  0.075969  0  1.013908  0  0  0.084973  0.075128  0  1.012681  0
H  H14  1  0.04840218  0.63052303  0.05487381  1  0  0.054827  0  0.951799  0  0  0.075508  0  1.013162  0  0  0.075956  0  1.01393  0  0  0.084966  0.075115  0  1.012705  0
H  H15  1  0.04840443  0.86947685  0.05487339  1  0  0.054847  0  0.951772  0  0  0.075526  0  1.013134  0  0  0.075975  0  1.013903  0  0  0.084972  0.075134  0  1.012674  0
H  H16  1  0.48699461  0.13049575  0.86409217  1  0  0.055916  0  0.950735  0  0  0.077634  0  1.010936  0  0  0.077723  0  1.012292  0  0  0.086305  0.077455  0  1.01012  0
H  H17  1  0.48699475  0.36950269  0.86409241  1  0  0.0559  0  0.950767  0  0  0.07762  0  1.01096  0  0  0.077709  0  1.012315  0  0  0.086302  0.07744  0  1.010144  0
H  H18  1  0.51300285  0.86950587  0.13590714  1  0  0.055903  0  0.950754  0  0  0.077616  0  1.010948  0  0  0.077704  0  1.012305  0  0  0.086292  0.077437  0  1.010132  0
H  H19  1  0.51300694  0.63049620  0.13590559  1  0  0.055924  0  0.950736  0  0  0.077625  0  1.010942  0  0  0.077713  0  1.012299  0  0  0.086291  0.077451  0  1.010122  0
H  H20  1  0.92814723  0.12930908  0.77320862  1  0  0.066825  0  0.934495  0  0  0.086813  0  0.993264  0  0  0.087425  0  0.994176  0  0  0.089306  0.086291  0  0.992736  0
H  H21  1  0.92814533  0.37069014  0.77320751  1  0  0.066879  0  0.934429  0  0  0.086833  0  0.993245  0  0  0.087448  0  0.994153  0  0  0.089304  0.086311  0  0.992718  0
H  H22  1  0.07185643  0.87068709  0.22679274  1  0  0.066886  0  0.934457  0  0  0.086864  0  0.993265  0  0  0.087478  0  0.994173  0  0  0.089305  0.086343  0  0.992737  0
H  H23  1  0.07185843  0.62930875  0.22679118  1  0  0.066835  0  0.934491  0  0  0.086842  0  0.993267  0  0  0.087454  0  0.994179  0  0  0.089319  0.086322  0  0.992739  0
H  H24  1  0.46825217  0.12803102  0.69137080  1  0  0.100473  0  0.933362  0  0  0.115175  0  0.995047  0  0  0.117069  0  0.994626  0  0  0.098134  0.113786  0  0.995405  0
H  H25  1  0.46825025  0.37196055  0.69137036  1  0  0.100519  0  0.93327  0  0  0.115192  0  0.994989  0  0  0.117083  0  0.994567  0  0  0.098137  0.113803  0  0.995348  0
H  H26  1  0.53174943  0.87196515  0.30862988  1  0  0.100461  0  0.933286  0  0  0.115156  0  0.994982  0  0  0.117049  0  0.994561  0  0  0.098122  0.113767  0  0.995341  0
H  H27  1  0.53175346  0.62803290  0.30862966  1  0  0.100479  0  0.933348  0  0  0.11518  0  0.99503  0  0  0.117074  0  0.99461  0  0  0.098135  0.113792  0  0.995386  0
Pb  Pb28  1  0.20907526  0.24999949  0.44463285  1  0  1.390066  0  1.366208  0  0  1.209472  0  1.762997  0  0  1.273022  0  1.717705  0  0  0.660805  1.163329  0  1.794781  0
Pb  Pb29  1  0.79092845  0.75000213  0.55536718  1  0  1.390075  0  1.366214  0  0  1.209483  0  1.763012  0  0  1.273032  0  1.717715  0  0  0.660812  1.16334  0  1.794789  0
C  C30  1  0.83751121  0.25000170  0.28891934  1  0  0.698907  0  3.839794  0  0  0.647345  0  4.139399  0  0  0.682566  0  4.132556  0  0  0.213797  0.623402  0  4.143102  0
C  C31  1  0.16249245  0.75000537  0.71108203  1  0  0.698927  0  3.839872  0  0  0.64738  0  4.13945  0  0  0.682605  0  4.132602  0  0  0.213801  0.623436  0  4.143149  0
C  C32  1  0.66456640  0.25000268  0.20366020  1  0  -0.274309  0  3.690771  0  0  -0.31364  0  3.945374  0  0  -0.319547  0  3.952658  0  0  -0.166664  -0.309771  0  3.940549  0
C  C33  1  0.33543519  0.74999622  0.79634048  1  0  -0.274131  0  3.690805  0  0  -0.313455  0  3.945414  0  0  -0.319352  0  3.9527  0  0  -0.166607  -0.309589  0  3.940587  0
C  C34  1  0.83303951  0.25000099  0.11748322  1  0  -0.082392  0  3.722981  0  0  -0.128875  0  3.991866  0  0  -0.128599  0  4.005439  0  0  -0.170016  -0.128824  0  3.982457  0
C  C35  1  0.16696209  0.74999518  0.88251746  1  0  -0.082505  0  3.723005  0  0  -0.129034  0  3.991917  0  0  -0.128748  0  4.005487  0  0  -0.170071  -0.128983  0  3.982505  0
C  C36  1  0.64721674  0.24999925  0.03373753  1  0  -0.112463  0  3.703941  0  0  -0.153668  0  3.968979  0  0  -0.154701  0  3.983719  0  0  -0.16896  -0.152754  0  3.958613  0
C  C37  1  0.35278272  0.74999692  0.96626448  1  0  -0.112465  0  3.704014  0  0  -0.153653  0  3.969019  0  0  -0.154678  0  3.983744  0  0  -0.168902  -0.152738  0  3.95865  0
C  C38  1  0.81197168  0.24999758  0.94643726  1  0  -0.110012  0  3.711869  0  0  -0.152689  0  3.979587  0  0  -0.153514  0  3.994089  0  0  -0.16835  -0.151955  0  3.969437  0
C  C39  1  0.18802573  0.74999996  0.05356340  1  0  -0.109978  0  3.711919  0  0  -0.152672  0  3.979627  0  0  -0.153493  0  3.994129  0  0  -0.168352  -0.151935  0  3.969476  0
C  C40  1  0.62645925  0.24999992  0.86260705  1  0  -0.105755  0  3.696725  0  0  -0.148463  0  3.962882  0  0  -0.149136  0  3.977488  0  0  -0.166611  -0.147766  0  3.952663  0
C  C41  1  0.37354028  0.75000034  0.13739295  1  0  -0.105772  0  3.696666  0  0  -0.148434  0  3.962804  0  0  -0.149106  0  3.97741  0  0  -0.166588  -0.147739  0  3.952587  0
C  C42  1  0.79149895  0.24999823  0.77533439  1  0  -0.077883  0  3.663943  0  0  -0.117821  0  3.925882  0  0  -0.11802  0  3.939083  0  0  -0.162118  -0.117541  0  3.916721  0
C  C43  1  0.20850474  0.74999930  0.22466631  1  0  -0.077919  0  3.663935  0  0  -0.117954  0  3.92598  0  0  -0.118153  0  3.93918  0  0  -0.162142  -0.117673  0  3.916819  0
C  C44  1  0.60163727  0.24999649  0.69152456  1  0  -0.268062  0  3.668006  0  0  -0.308561  0  3.925855  0  0  -0.314007  0  3.932833  0  0  -0.165977  -0.30474  0  3.920938  0
C  C45  1  0.39836641  0.74999832  0.30847614  1  0  -0.268019  0  3.667864  0  0  -0.308492  0  3.925714  0  0  -0.313938  0  3.9327  0  0  -0.165956  -0.304663  0  3.920787  0
C  C46  1  0.77671189  0.25000163  0.60747488  1  0  0.702322  0  3.891552  0  0  0.654779  0  4.189711  0  0  0.689372  0  4.183699  0  0  0.215118  0.63118  0  4.192846  0
C  C47  1  0.22327930  0.75000408  0.39252440  1  0  0.702491  0  3.891396  0  0  0.654904  0  4.189612  0  0  0.689484  0  4.183621  0  0  0.215149  0.631299  0  4.192749  0
O  O48  1  0.71905794  0.25001016  0.36591997  1  0  -0.705274  0  1.966682  0  0  -0.628477  0  2.214211  0  0  -0.661869  0  2.20574  0  0  -0.300612  -0.604893  0  2.219217  0
O  O49  1  0.28094361  0.75001734  0.63408205  1  0  -0.705324  0  1.966698  0  0  -0.628562  0  2.21426  0  0  -0.661946  0  2.205772  0  0  -0.300662  -0.604978  0  2.219264  0
O  O50  1  0.10257321  0.24999881  0.28283676  1  0  -0.627599  0  1.972878  0  0  -0.55498  0  2.210206  0  0  -0.58552  0  2.203789  0  0  -0.287743  -0.533669  0  2.213802  0
O  O51  1  0.89742841  0.75000554  0.71716325  1  0  -0.627611  0  1.972838  0  0  -0.554976  0  2.210141  0  0  -0.585529  0  2.20374  0  0  -0.287739  -0.533666  0  2.213733  0
O  O52  1  0.85368977  0.09897046  0.57319582  1  0  -0.717391  0  2.025118  0  0  -0.640988  0  2.271661  0  0  -0.674896  0  2.265363  0  0  -0.301342  -0.616983  0  2.27519  0
O  O53  1  0.85368365  0.40103663  0.57319675  1  0  -0.717342  0  2.025012  0  0  -0.640928  0  2.271533  0  0  -0.674839  0  2.265239  0  0  -0.301297  -0.616906  0  2.275026  0
O  O54  1  0.14630565  0.90103797  0.42680214  1  0  -0.717426  0  2.025078  0  0  -0.641003  0  2.271628  0  0  -0.67491  0  2.265341  0  0  -0.301307  -0.616992  0  2.275154  0
O  O55  1  0.14629094  0.59897180  0.42679906  1  0  -0.717422  0  2.024958  0  0  -0.641013  0  2.271537  0  0  -0.674914  0  2.265243  0  0  -0.301349  -0.617015  0  2.275088  0
