# generated using pymatgen
data_PrP2H17C16O11
_symmetry_space_group_name_H-M   'P 1'
_cell_length_a   5.63722215
_cell_length_b   9.53076390
_cell_length_c   18.31241350
_cell_angle_alpha   105.42212887
_cell_angle_beta   91.84344941
_cell_angle_gamma   95.85533036
_symmetry_Int_Tables_number   1
_chemical_formula_structural   PrP2H17C16O11
_chemical_formula_sum   'Pr2 P4 H34 C32 O22'
_cell_volume   941.69127623
_cell_formula_units_Z   2
loop_
 _symmetry_equiv_pos_site_id
 _symmetry_equiv_pos_as_xyz
  1  'x, y, z'
loop_
 _atom_site_type_symbol
 _atom_site_label
 _atom_site_symmetry_multiplicity
 _atom_site_fract_x
 _atom_site_fract_y
 _atom_site_fract_z
 _atom_site_occupancy
 _atom_site_hle17_bader_spin_density
 _atom_site_hle17_ddec_charge
 _atom_site_hle17_ddec_spin_density
 _atom_site_hle17_ddec_sum_bond_order
 _atom_site_hle17_magmom
 _atom_site_hse06_10hf_bader_spin_density
 _atom_site_hse06_10hf_ddec_charge
 _atom_site_hse06_10hf_ddec_spin_density
 _atom_site_hse06_10hf_ddec_sum_bond_order
 _atom_site_hse06_10hf_magmom
 _atom_site_hse06_bader_spin_density
 _atom_site_hse06_ddec_charge
 _atom_site_hse06_ddec_spin_density
 _atom_site_hse06_ddec_sum_bond_order
 _atom_site_hse06_magmom
 _atom_site_pbe_bader_spin_density
 _atom_site_pbe_cm5_charge
 _atom_site_pbe_ddec_charge
 _atom_site_pbe_ddec_spin_density
 _atom_site_pbe_ddec_sum_bond_order
 _atom_site_pbe_magmom
Pr  Pr0  1  0.12538577  0.80337174  0.00325740  1  0  2.411474  0  1.63547  0  0  2.273222  0  2.072301  0  0  2.339576  0  1.967132  0  0  1.573011  2.24869  0  2.104953  0
Pr  Pr1  1  0.87461595  0.19662511  0.99674269  1  0  2.411446  0  1.635492  0  0  2.273201  0  2.072287  0  0  2.339532  0  1.967154  0  0  1.572987  2.248653  0  2.104966  0
P  P2  1  0.38198215  0.10301386  0.10993060  1  0  1.552082  0  4.843799  0  0  1.397809  0  5.354557  0  0  1.446158  0  5.319577  0  0  0.328734  1.36392  0  5.382568  0
P  P3  1  0.61802005  0.89698517  0.89006870  1  0  1.552031  0  4.843621  0  0  1.397776  0  5.354362  0  0  1.446125  0  5.319389  0  0  0.328753  1.363888  0  5.382377  0
P  P4  1  0.25889599  0.53358969  0.11065590  1  0  1.584447  0  4.728378  0  0  1.438147  0  5.225167  0  0  1.487197  0  5.186267  0  0  0.386461  1.404815  0  5.252111  0
P  P5  1  0.74111109  0.46640710  0.88934261  1  0  1.584324  0  4.728508  0  0  1.438009  0  5.225314  0  0  1.487066  0  5.186412  0  0  0.386337  1.404675  0  5.252264  0
H  H6  1  0.59329211  0.14524892  0.32144053  1  0  0.096001  0  0.986963  0  0  0.103021  0  1.056274  0  0  0.106139  0  1.0551  0  0  0.098295  0.101004  0  1.056907  0
H  H7  1  0.40670820  0.85476659  0.67856154  1  0  0.095976  0  0.986954  0  0  0.10298  0  1.056289  0  0  0.106092  0  1.055117  0  0  0.09831  0.100965  0  1.056918  0
H  H8  1  0.47539970  0.00503121  0.41217973  1  0  0.118015  0  0.945619  0  0  0.126707  0  1.006358  0  0  0.130554  0  1.003106  0  0  0.112015  0.124112  0  1.008438  0
H  H9  1  0.52460217  0.99498318  0.58782111  1  0  0.11819  0  0.945522  0  0  0.126852  0  1.006281  0  0  0.130703  0  1.003029  0  0  0.112025  0.124255  0  1.008361  0
H  H10  1  0.77437376  0.88556746  0.29935395  1  0  0.09242  0  0.952671  0  0  0.103107  0  1.015372  0  0  0.106068  0  1.013412  0  0  0.104552  0.101112  0  1.016808  0
H  H11  1  0.22561975  0.11443276  0.70064814  1  0  0.092434  0  0.952711  0  0  0.103138  0  1.01539  0  0  0.1061  0  1.013425  0  0  0.104567  0.101141  0  1.016831  0
H  H12  1  0.88950075  0.02892926  0.20813040  1  0  0.101149  0  0.945748  0  0  0.11518  0  1.000583  0  0  0.118339  0  0.999526  0  0  0.106199  0.11314  0  1.001173  0
H  H13  1  0.11049811  0.97107090  0.79187066  1  0  0.101189  0  0.945716  0  0  0.115221  0  1.000553  0  0  0.118379  0  0.999496  0  0  0.106216  0.113181  0  1.001143  0
H  H14  1  0.49347169  0.26163006  0.23170083  1  0  0.13801  0  0.948382  0  0  0.15255  0  1.004549  0  0  0.154381  0  1.0049  0  0  0.111196  0.151298  0  1.004411  0
H  H15  1  0.50652392  0.73837120  0.76829651  1  0  0.138018  0  0.948406  0  0  0.152572  0  1.004552  0  0  0.154419  0  1.004881  0  0  0.111238  0.151321  0  1.004416  0
H  H16  1  0.19305365  0.26692905  0.20337796  1  0  0.150369  0  0.948003  0  0  0.163469  0  1.005142  0  0  0.165377  0  1.006351  0  0  0.116461  0.161856  0  1.004991  0
H  H17  1  0.80694617  0.73306668  0.79661759  1  0  0.150414  0  0.948014  0  0  0.163472  0  1.0052  0  0  0.165382  0  1.006407  0  0  0.116453  0.161861  0  1.005051  0
H  H18  1  0.52014903  0.65096821  0.31677017  1  0  0.10482  0  0.957911  0  0  0.112449  0  1.024514  0  0  0.115995  0  1.022893  0  0  0.101289  0.11009  0  1.025729  0
H  H19  1  0.47986423  0.34902414  0.68322726  1  0  0.104791  0  0.957876  0  0  0.112391  0  1.024536  0  0  0.115939  0  1.02291  0  0  0.10128  0.110034  0  1.025751  0
H  H20  1  0.46693873  0.51848884  0.41579508  1  0  0.114181  0  0.955546  0  0  0.122665  0  1.018057  0  0  0.126277  0  1.015038  0  0  0.110086  0.120226  0  1.020085  0
H  H21  1  0.53306960  0.48149697  0.58420249  1  0  0.114154  0  0.955578  0  0  0.122606  0  1.018125  0  0  0.126218  0  1.015102  0  0  0.110024  0.120166  0  1.020152  0
H  H22  1  0.74796789  0.35778713  0.32681245  1  0  0.086303  0  0.98624  0  0  0.095528  0  1.054172  0  0  0.098387  0  1.052106  0  0  0.101863  0.093534  0  1.055703  0
H  H23  1  0.25202854  0.64221855  0.67319042  1  0  0.086356  0  0.986241  0  0  0.09555  0  1.054191  0  0  0.098402  0  1.052147  0  0  0.101858  0.093558  0  1.055722  0
H  H24  1  0.80027710  0.48639433  0.22508465  1  0  0.104251  0  0.964051  0  0  0.113458  0  1.027315  0  0  0.116626  0  1.026023  0  0  0.102338  0.111372  0  1.027888  0
H  H25  1  0.19972642  0.51361129  0.77491829  1  0  0.104249  0  0.964022  0  0  0.11342  0  1.027339  0  0  0.116591  0  1.02604  0  0  0.102337  0.111333  0  1.027914  0
H  H26  1  0.33628790  0.74389317  0.21678826  1  0  0.147746  0  0.925611  0  0  0.162824  0  0.977907  0  0  0.164964  0  0.978424  0  0  0.11498  0.161013  0  0.978229  0
H  H27  1  0.66373344  0.25609586  0.78321373  1  0  0.147633  0  0.925584  0  0  0.162711  0  0.977913  0  0  0.164851  0  0.978435  0  0  0.114895  0.160902  0  0.978236  0
H  H28  1  0.02869682  0.69610572  0.19014098  1  0  0.143485  0  0.953489  0  0  0.156152  0  1.013036  0  0  0.15856  0  1.012805  0  0  0.114303  0.154295  0  1.013783  0
H  H29  1  0.97132375  0.30389647  0.80986061  1  0  0.143509  0  0.95352  0  0  0.156149  0  1.013091  0  0  0.158556  0  1.012861  0  0  0.114286  0.154296  0  1.013837  0
H  H30  1  0.16925508  0.81390503  0.51141067  1  0  0.394485  0  0.912882  0  0  0.362828  0  0.988591  0  0  0.375864  0  0.970538  0  0  0.303222  0.353652  0  1.000055  0
H  H31  1  0.83075780  0.18610270  0.48859049  1  0  0.394415  0  0.912958  0  0  0.36274  0  0.988714  0  0  0.375776  0  0.970662  0  0  0.303224  0.353566  0  1.000162  0
H  H32  1  0.53819506  0.38712247  0.10922105  1  0  0.435222  0  0.867249  0  0  0.403456  0  0.93276  0  0  0.414344  0  0.917136  0  0  0.317985  0.395836  0  0.943851  0
H  H33  1  0.46181687  0.61287209  0.89077721  1  0  0.435257  0  0.867212  0  0  0.403504  0  0.932692  0  0  0.414394  0  0.917064  0  0  0.318027  0.395888  0  0.943773  0
H  H34  1  0.19756899  0.30075074  0.52365269  1  0  0.395345  0  0.887834  0  0  0.363401  0  0.967267  0  0  0.37661  0  0.95357  0  0  0.303952  0.35409  0  0.976928  0
H  H35  1  0.80242319  0.69925169  0.47635077  1  0  0.39538  0  0.88783  0  0  0.363448  0  0.967238  0  0  0.376657  0  0.95354  0  0  0.303985  0.354134  0  0.976902  0
H  H36  1  0.70763637  0.67316332  0.08365074  1  0  0.454801  0  0.817919  0  0  0.428657  0  0.875229  0  0  0.437948  0  0.861549  0  0  0.324324  0.422112  0  0.884987  0
H  H37  1  0.29236976  0.32683790  0.91635273  1  0  0.454869  0  0.817896  0  0  0.428709  0  0.875181  0  0  0.438002  0  0.861497  0  0  0.324339  0.422165  0  0.884937  0
H  H38  1  0.66908257  0.84007176  0.09406969  1  0  0.468425  0  0.823408  0  0  0.435726  0  0.88903  0  0  0.446539  0  0.873345  0  0  0.307366  0.427884  0  0.900555  0
H  H39  1  0.33092114  0.15992617  0.90593166  1  0  0.46837  0  0.823491  0  0  0.435669  0  0.889116  0  0  0.446482  0  0.873431  0  0  0.307338  0.427827  0  0.900642  0
C  C40  1  0.25067096  0.09725958  0.25796938  1  0  0.168237  0  3.752959  0  0  0.184185  0  3.987599  0  0  0.187829  0  4.012361  0  0  0.002847  0.181948  0  3.972078  0
C  C41  1  0.74932509  0.90274389  0.74202991  1  0  0.168421  0  3.752575  0  0  0.184222  0  3.987427  0  0  0.187867  0  4.012187  0  0  0.002869  0.181983  0  3.971911  0
C  C42  1  0.41382597  0.08749867  0.31528497  1  0  -0.133837  0  3.71997  0  0  -0.153862  0  3.972733  0  0  -0.159695  0  3.994226  0  0  -0.093604  -0.149813  0  3.958075  0
C  C43  1  0.58617031  0.91251469  0.68471785  1  0  -0.133861  0  3.719925  0  0  -0.15383  0  3.972735  0  0  -0.159654  0  3.994218  0  0  -0.093627  -0.149779  0  3.958074  0
C  C44  1  0.34870503  0.00927467  0.36691874  1  0  -0.045048  0  3.704865  0  0  -0.07276  0  3.956557  0  0  -0.069902  0  3.974503  0  0  -0.078667  -0.074037  0  3.944252  0
C  C45  1  0.65128686  0.99074311  0.63308409  1  0  -0.045148  0  3.705257  0  0  -0.072887  0  3.956844  0  0  -0.070036  0  3.974793  0  0  -0.078652  -0.07416  0  3.944532  0
C  C46  1  0.11716921  0.93641585  0.36154600  1  0  -0.09223  0  3.780254  0  0  -0.07199  0  4.019649  0  0  -0.082563  0  4.044405  0  0  -0.02345  -0.065141  0  4.00515  0
C  C47  1  0.88282336  0.06358761  0.63844997  1  0  -0.092478  0  3.780766  0  0  -0.07206  0  4.019837  0  0  -0.082633  0  4.044594  0  0  -0.023475  -0.065207  0  4.005335  0
C  C48  1  0.95410704  0.94233480  0.30327036  1  0  -0.043739  0  3.729352  0  0  -0.069318  0  3.981553  0  0  -0.066745  0  4.000684  0  0  -0.076153  -0.07121  0  3.969542  0
C  C49  1  0.04588127  0.05767421  0.69673014  1  0  -0.043761  0  3.729571  0  0  -0.069421  0  3.981762  0  0  -0.06685  0  4.000895  0  0  -0.076192  -0.071317  0  3.969756  0
C  C50  1  0.01972822  0.02273628  0.25222156  1  0  -0.137828  0  3.705877  0  0  -0.157449  0  3.959095  0  0  -0.162845  0  3.979807  0  0  -0.089523  -0.154031  0  3.94599  0
C  C51  1  0.98027406  0.97727152  0.74777784  1  0  -0.137928  0  3.705701  0  0  -0.157508  0  3.959002  0  0  -0.162905  0  3.979716  0  0  -0.089565  -0.15409  0  3.945899  0
C  C52  1  0.32693471  0.19253972  0.20753528  1  0  -0.489694  0  3.670125  0  0  -0.504918  0  3.891825  0  0  -0.514635  0  3.899344  0  0  -0.158948  -0.498127  0  3.887013  0
C  C53  1  0.67306882  0.80745710  0.79246319  1  0  -0.489827  0  3.670104  0  0  -0.504949  0  3.891749  0  0  -0.514669  0  3.899242  0  0  -0.158989  -0.498161  0  3.886945  0
C  C54  1  0.04970160  0.85686111  0.41853245  1  0  0.658326  0  3.817925  0  0  0.602137  0  4.123381  0  0  0.636331  0  4.115372  0  0  0.234985  0.578023  0  4.13037  0
C  C55  1  0.95026719  0.14314807  0.58146893  1  0  0.658295  0  3.818069  0  0  0.60224  0  4.123292  0  0  0.636435  0  4.115285  0  0  0.235026  0.578125  0  4.130277  0
C  C56  1  0.16511053  0.57499415  0.26288540  1  0  0.162647  0  3.756636  0  0  0.179664  0  3.989458  0  0  0.183017  0  4.013889  0  0  0.001575  0.176954  0  3.975307  0
C  C57  1  0.83490553  0.42500370  0.73711827  1  0  0.162553  0  3.756519  0  0  0.179583  0  3.989366  0  0  0.182938  0  4.013793  0  0  0.001572  0.176871  0  3.97522  0
C  C58  1  0.35144314  0.58415493  0.31717527  1  0  -0.12827  0  3.691761  0  0  -0.148091  0  3.945119  0  0  -0.153753  0  3.966403  0  0  -0.089795  -0.14408  0  3.931986  0
C  C59  1  0.64857532  0.41582862  0.68282430  1  0  -0.128211  0  3.691578  0  0  -0.148045  0  3.94498  0  0  -0.153703  0  3.966249  0  0  -0.08983  -0.144032  0  3.931849  0
C  C60  1  0.32292166  0.51071689  0.37336136  1  0  -0.040675  0  3.688588  0  0  -0.067248  0  3.939351  0  0  -0.064478  0  3.957965  0  0  -0.077588  -0.069402  0  3.927016  0
C  C61  1  0.67707664  0.48926353  0.62663700  1  0  -0.040559  0  3.688577  0  0  -0.067072  0  3.93928  0  0  -0.064319  0  3.957936  0  0  -0.077516  -0.069224  0  3.926943  0
C  C62  1  0.10568294  0.42710819  0.37591287  1  0  -0.095557  0  3.79522  0  0  -0.075289  0  4.034796  0  0  -0.08596  0  4.059772  0  0  -0.024403  -0.067666  0  4.019095  0
C  C63  1  0.89430899  0.57288435  0.62408761  1  0  -0.095687  0  3.795368  0  0  -0.075425  0  4.034975  0  0  -0.086099  0  4.059946  0  0  -0.024427  -0.067794  0  4.019271  0
C  C64  1  0.91771292  0.41950587  0.32237611  1  0  -0.056915  0  3.75039  0  0  -0.085707  0  4.00527  0  0  -0.083708  0  4.025018  0  0  -0.081648  -0.086839  0  3.992298  0
C  C65  1  0.08228489  0.58049758  0.67762319  1  0  -0.056971  0  3.75045  0  0  -0.08571  0  4.005309  0  0  -0.083715  0  4.02506  0  0  -0.081634  -0.086838  0  3.992328  0
C  C66  1  0.94707521  0.49191192  0.26632600  1  0  -0.126765  0  3.710038  0  0  -0.144519  0  3.960348  0  0  -0.149015  0  3.979903  0  0  -0.090427  -0.1412  0  3.947022  0
C  C67  1  0.05294165  0.50808918  0.73367267  1  0  -0.126716  0  3.710009  0  0  -0.144464  0  3.960319  0  0  -0.148959  0  3.979868  0  0  -0.090418  -0.141141  0  3.946997  0
C  C68  1  0.19398829  0.65142510  0.20141220  1  0  -0.509935  0  3.719163  0  0  -0.528508  0  3.946897  0  0  -0.539018  0  3.95551  0  0  -0.158627  -0.521677  0  3.942183  0
C  C69  1  0.80602712  0.34856945  0.79858938  1  0  -0.509769  0  3.71923  0  0  -0.528286  0  3.94689  0  0  -0.538795  0  3.955509  0  0  -0.158476  -0.521456  0  3.94218  0
C  C70  1  0.06505140  0.34566223  0.43352416  1  0  0.657337  0  3.802556  0  0  0.602279  0  4.104746  0  0  0.636553  0  4.096566  0  0  0.23891  0.578439  0  4.110455  0
C  C71  1  0.93492304  0.65432275  0.56647290  1  0  0.657215  0  3.802594  0  0  0.602118  0  4.104894  0  0  0.636394  0  4.096716  0  0  0.23881  0.578275  0  4.110594  0
O  O72  1  0.46411927  0.95023972  0.09947518  1  0  -0.961309  0  1.942432  0  0  -0.882771  0  2.201452  0  0  -0.910831  0  2.18132  0  0  -0.416877  -0.8654  0  2.215446  0
O  O73  1  0.53587605  0.04976047  0.90052529  1  0  -0.961282  0  1.942363  0  0  -0.882745  0  2.201365  0  0  -0.910802  0  2.181234  0  0  -0.416871  -0.86537  0  2.21536  0
O  O74  1  0.13996556  0.07356942  0.06154457  1  0  -1.068593  0  2.022538  0  0  -0.98839  0  2.308217  0  0  -1.019805  0  2.285218  0  0  -0.528328  -0.972057  0  2.32364  0
O  O75  1  0.86003886  0.92643179  0.93845615  1  0  -1.068564  0  2.022476  0  0  -0.988364  0  2.308144  0  0  -1.019782  0  2.28515  0  0  -0.528305  -0.972032  0  2.32357  0
O  O76  1  0.56546000  0.21112275  0.08531227  1  0  -0.964742  0  1.970924  0  0  -0.884088  0  2.24306  0  0  -0.912163  0  2.218709  0  0  -0.453163  -0.867665  0  2.259684  0
O  O77  1  0.43454591  0.78886857  0.91468657  1  0  -0.964703  0  1.970851  0  0  -0.88408  0  2.243001  0  0  -0.91216  0  2.21865  0  0  -0.45319  -0.867661  0  2.259622  0
O  O78  1  0.21571488  0.87580629  0.47369882  1  0  -0.540677  0  2.122836  0  0  -0.48924  0  2.344232  0  0  -0.511861  0  2.327008  0  0  -0.321948  -0.47338  0  2.35522  0
O  O79  1  0.78427259  0.12418952  0.52629332  1  0  -0.5405  0  2.12285  0  0  -0.489183  0  2.344293  0  0  -0.511804  0  2.327074  0  0  -0.321989  -0.47332  0  2.355262  0
O  O80  1  0.85345637  0.77987507  0.41435999  1  0  -0.5712  0  1.98846  0  0  -0.517601  0  2.207974  0  0  -0.54097  0  2.200463  0  0  -0.284704  -0.501944  0  2.213991  0
O  O81  1  0.14652347  0.22013623  0.58564399  1  0  -0.571124  0  1.988352  0  0  -0.517612  0  2.207844  0  0  -0.54098  0  2.200332  0  0  -0.284672  -0.501955  0  2.213858  0
O  O82  1  0.26509757  0.62427639  0.05360536  1  0  -0.979251  0  1.960397  0  0  -0.905245  0  2.240451  0  0  -0.933845  0  2.215889  0  0  -0.487698  -0.888975  0  2.255507  0
O  O83  1  0.73490861  0.37572481  0.94639538  1  0  -0.979224  0  1.960427  0  0  -0.905203  0  2.240458  0  0  -0.9338  0  2.215896  0  0  -0.48768  -0.88893  0  2.255513  0
O  O84  1  0.52550417  0.49605507  0.12286322  1  0  -0.759971  0  1.98219  0  0  -0.686522  0  2.199564  0  0  -0.707113  0  2.174076  0  0  -0.37576  -0.672251  0  2.216726  0
O  O85  1  0.47450445  0.50394061  0.87713516  1  0  -0.759992  0  1.982317  0  0  -0.686501  0  2.199673  0  0  -0.707108  0  2.174191  0  0  -0.375723  -0.672225  0  2.216823  0
O  O86  1  0.08699489  0.39366723  0.08998522  1  0  -0.965364  0  1.957401  0  0  -0.892568  0  2.236734  0  0  -0.920833  0  2.213583  0  0  -0.475144  -0.87611  0  2.250986  0
O  O87  1  0.91302072  0.60632843  0.91001815  1  0  -0.965325  0  1.957299  0  0  -0.89257  0  2.236718  0  0  -0.920842  0  2.213565  0  0  -0.475134  -0.876115  0  2.250972  0
O  O88  1  0.24095787  0.36139923  0.48542335  1  0  -0.528515  0  2.106537  0  0  -0.476158  0  2.32724  0  0  -0.498637  0  2.313201  0  0  -0.314804  -0.460145  0  2.336552  0
O  O89  1  0.75901837  0.63859453  0.51457547  1  0  -0.528526  0  2.106625  0  0  -0.476182  0  2.327367  0  0  -0.498661  0  2.313327  0  0  -0.314832  -0.460169  0  2.336679  0
O  O90  1  0.87171000  0.26713355  0.43155232  1  0  -0.560176  0  2.02947  0  0  -0.504628  0  2.247408  0  0  -0.527886  0  2.238857  0  0  -0.279722  -0.488302  0  2.253122  0
O  O91  1  0.12826773  0.73285912  0.56844910  1  0  -0.560001  0  2.029184  0  0  -0.504476  0  2.247152  0  0  -0.527732  0  2.238603  0  0  -0.279618  -0.488149  0  2.252862  0
O  O92  1  0.79228859  0.76910470  0.08529067  1  0  -0.939302  0  1.774682  0  0  -0.89172  0  1.969538  0  0  -0.913322  0  1.93483  0  0  -0.635963  -0.879945  0  1.992731  0
O  O93  1  0.20771560  0.23089541  0.91470935  1  0  -0.939315  0  1.774733  0  0  -0.89174  0  1.969573  0  0  -0.91334  0  1.934864  0  0  -0.635942  -0.879961  0  1.992769  0
