# generated using pymatgen
data_PrP2H11C8O7
_symmetry_space_group_name_H-M   'P 1'
_cell_length_a   5.62257060
_cell_length_b   9.51066082
_cell_length_c   11.58844187
_cell_angle_alpha   73.63872498
_cell_angle_beta   81.20151103
_cell_angle_gamma   79.92327904
_symmetry_Int_Tables_number   1
_chemical_formula_structural   PrP2H11C8O7
_chemical_formula_sum   'Pr2 P4 H22 C16 O14'
_cell_volume   581.88240154
_cell_formula_units_Z   2
loop_
 _symmetry_equiv_pos_site_id
 _symmetry_equiv_pos_as_xyz
  1  'x, y, z'
loop_
 _atom_site_type_symbol
 _atom_site_label
 _atom_site_symmetry_multiplicity
 _atom_site_fract_x
 _atom_site_fract_y
 _atom_site_fract_z
 _atom_site_occupancy
 _atom_site_hle17_bader_spin_density
 _atom_site_hle17_ddec_charge
 _atom_site_hle17_ddec_spin_density
 _atom_site_hle17_ddec_sum_bond_order
 _atom_site_hle17_magmom
 _atom_site_hse06_10hf_bader_spin_density
 _atom_site_hse06_10hf_ddec_charge
 _atom_site_hse06_10hf_ddec_spin_density
 _atom_site_hse06_10hf_ddec_sum_bond_order
 _atom_site_hse06_10hf_magmom
 _atom_site_hse06_bader_spin_density
 _atom_site_hse06_ddec_charge
 _atom_site_hse06_ddec_spin_density
 _atom_site_hse06_ddec_sum_bond_order
 _atom_site_hse06_magmom
 _atom_site_pbe_bader_spin_density
 _atom_site_pbe_cm5_charge
 _atom_site_pbe_ddec_charge
 _atom_site_pbe_ddec_spin_density
 _atom_site_pbe_ddec_sum_bond_order
 _atom_site_pbe_magmom
Pr  Pr0  1  0.13827741  0.18675428  0.99449477  1  0  2.400387  0  1.644461  0  0  2.26387  0  2.079482  0  0  2.329072  0  1.976574  0  0  1.573838  2.238282  0  2.113167  0
Pr  Pr1  1  0.86172591  0.81324576  0.00550625  1  0  2.400356  0  1.644448  0  0  2.263809  0  2.079511  0  0  2.329025  0  1.976567  0  0  1.573812  2.238226  0  2.113185  0
P  P2  1  0.79924659  0.54667787  0.83058693  1  0  1.588834  0  4.725526  0  0  1.441585  0  5.219887  0  0  1.490701  0  5.181021  0  0  0.386004  1.408185  0  5.246657  0
P  P3  1  0.20075853  0.45332217  0.16941481  1  0  1.588789  0  4.725668  0  0  1.441515  0  5.220045  0  0  1.490628  0  5.181177  0  0  0.385997  1.408118  0  5.246812  0
P  P4  1  0.32600979  0.88485139  0.17951090  1  0  1.519642  0  4.885804  0  0  1.366802  0  5.394453  0  0  1.41424  0  5.362081  0  0  0.311835  1.333168  0  5.421586  0
P  P5  1  0.67399196  0.11514754  0.82048876  1  0  1.519815  0  4.885688  0  0  1.367019  0  5.394321  0  0  1.41444  0  5.361949  0  0  0.311855  1.333382  0  5.421458  0
H  H6  1  0.66666305  0.31338902  0.13747468  1  0  0.44927  0  0.835589  0  0  0.421692  0  0.892642  0  0  0.431496  0  0.878193  0  0  0.316054  0.414773  0  0.902927  0
H  H7  1  0.33335074  0.68661217  0.86252181  1  0  0.449214  0  0.835663  0  0  0.421624  0  0.892741  0  0  0.431428  0  0.878291  0  0  0.316009  0.414704  0  0.903027  0
H  H8  1  0.63790423  0.14811372  0.14300187  1  0  0.46334  0  0.826185  0  0  0.432595  0  0.889071  0  0  0.442876  0  0.874092  0  0  0.30974  0.42513  0  0.90012  0
H  H9  1  0.36210444  0.85188634  0.85699613  1  0  0.463271  0  0.826277  0  0  0.43254  0  0.889134  0  0  0.44282  0  0.874157  0  0  0.309711  0.425077  0  0.900181  0
H  H10  1  0.51606682  0.41638127  0.82740474  1  0  0.451808  0  0.843483  0  0  0.418182  0  0.911064  0  0  0.429558  0  0.894706  0  0  0.319902  0.410474  0  0.922216  0
H  H11  1  0.48394160  0.58361215  0.17259308  1  0  0.451736  0  0.843605  0  0  0.41812  0  0.911157  0  0  0.429489  0  0.894813  0  0  0.319881  0.410416  0  0.922305  0
H  H12  1  0.80638173  0.76167399  0.66374700  1  0  0.140087  0  0.939263  0  0  0.15362  0  0.996608  0  0  0.155394  0  0.997679  0  0  0.110583  0.152002  0  0.996629  0
H  H13  1  0.19362374  0.23832491  0.33626101  1  0  0.140077  0  0.939254  0  0  0.153591  0  0.996613  0  0  0.15536  0  0.997681  0  0  0.110579  0.151971  0  0.996632  0
H  H14  1  0.09855611  0.68131617  0.70615781  1  0  0.146499  0  0.947213  0  0  0.159885  0  1.005651  0  0  0.162344  0  1.005214  0  0  0.114815  0.158083  0  1.006374  0
H  H15  1  0.90144651  0.31867942  0.29384773  1  0  0.146489  0  0.947228  0  0  0.159862  0  1.005657  0  0  0.162313  0  1.005236  0  0  0.114813  0.158063  0  1.006373  0
H  H16  1  0.61447167  0.66339911  0.52996116  1  0  0.082881  0  0.979571  0  0  0.094726  0  1.0444  0  0  0.097285  0  1.043171  0  0  0.095769  0.092913  0  1.04547  0
H  H17  1  0.38552555  0.33659646  0.47004480  1  0  0.082858  0  0.979611  0  0  0.094739  0  1.044397  0  0  0.097298  0  1.043171  0  0  0.095785  0.092935  0  1.045436  0
H  H18  1  0.32502956  0.46844809  0.63211317  1  0  0.101129  0  0.956951  0  0  0.112401  0  1.018427  0  0  0.115275  0  1.017284  0  0  0.103248  0.110513  0  1.018939  0
H  H19  1  0.67496842  0.53155191  0.36789259  1  0  0.101165  0  0.956933  0  0  0.112406  0  1.018444  0  0  0.115286  0  1.017297  0  0  0.103282  0.110522  0  1.018956  0
H  H20  1  0.16283396  0.72235614  0.35345817  1  0  0.146929  0  0.945045  0  0  0.159959  0  1.00289  0  0  0.161112  0  1.005323  0  0  0.11459  0.158505  0  1.002387  0
H  H21  1  0.83714281  0.27764937  0.64653933  1  0  0.146929  0  0.945031  0  0  0.160005  0  1.002831  0  0  0.161156  0  1.005258  0  0  0.114619  0.15855  0  1.002328  0
H  H22  1  0.43931141  0.77062234  0.37309577  1  0  0.132928  0  0.956261  0  0  0.146806  0  1.015003  0  0  0.148787  0  1.014821  0  0  0.111445  0.145545  0  1.01499  0
H  H23  1  0.56066905  0.22936766  0.62690672  1  0  0.132967  0  0.956247  0  0  0.146797  0  1.01508  0  0  0.148799  0  1.014861  0  0  0.111421  0.145534  0  1.015067  0
H  H24  1  0.42339290  0.88352131  0.52611294  1  0  0.080366  0  0.983485  0  0  0.091913  0  1.047176  0  0  0.094303  0  1.046495  0  0  0.095426  0.09041  0  1.04756  0
H  H25  1  0.57659589  0.11648646  0.47388052  1  0  0.080318  0  0.983479  0  0  0.091897  0  1.047137  0  0  0.094286  0  1.04646  0  0  0.095393  0.090391  0  1.047525  0
H  H26  1  0.79266405  0.97040243  0.33524332  1  0  0.103468  0  0.944078  0  0  0.118388  0  0.997757  0  0  0.121286  0  0.996621  0  0  0.107169  0.116488  0  0.998389  0
H  H27  1  0.20732689  0.02959647  0.66475546  1  0  0.103386  0  0.944157  0  0  0.118325  0  0.997818  0  0  0.121223  0  0.996684  0  0  0.107152  0.116443  0  0.998429  0
C  C28  1  0.92704263  0.65613690  0.68780186  1  0  -0.509845  0  3.732529  0  0  -0.530441  0  3.964101  0  0  -0.540541  0  3.97309  0  0  -0.161796  -0.523896  0  3.959334  0
C  C29  1  0.07295893  0.34386311  0.31220275  1  0  -0.509743  0  3.732425  0  0  -0.530249  0  3.963971  0  0  -0.540337  0  3.972939  0  0  -0.161738  -0.523704  0  3.959198  0
C  C30  1  0.96663438  0.57713940  0.59024038  1  0  0.141721  0  3.79591  0  0  0.160293  0  4.027955  0  0  0.161605  0  4.0525  0  0  -0.010309  0.158976  0  4.013361  0
C  C31  1  0.03336922  0.42286726  0.40976255  1  0  0.141782  0  3.795849  0  0  0.160259  0  4.028004  0  0  0.16157  0  4.05255  0  0  -0.010331  0.158941  0  4.013409  0
C  C32  1  0.78485797  0.59247803  0.51572873  1  0  -0.13603  0  3.768834  0  0  -0.158132  0  4.022581  0  0  -0.16067  0  4.043299  0  0  -0.097903  -0.155854  0  4.009173  0
C  C33  1  0.21514843  0.40752422  0.48427240  1  0  -0.136026  0  3.768709  0  0  -0.158134  0  4.022483  0  0  -0.160676  0  4.043205  0  0  -0.097917  -0.155849  0  4.009074  0
C  C34  1  0.18264891  0.48263156  0.57397094  1  0  -0.118136  0  3.728201  0  0  -0.137017  0  3.976991  0  0  -0.139005  0  3.996842  0  0  -0.090871  -0.135356  0  3.963218  0
C  C35  1  0.81735643  0.51737512  0.42602840  1  0  -0.118131  0  3.728303  0  0  -0.136974  0  3.977128  0  0  -0.13897  0  3.996979  0  0  -0.090866  -0.135316  0  3.963358  0
C  C36  1  0.25977175  0.81738896  0.34253917  1  0  -0.474593  0  3.664771  0  0  -0.489688  0  3.890005  0  0  -0.498885  0  3.898652  0  0  -0.156628  -0.483491  0  3.885052  0
C  C37  1  0.74021560  0.18260993  0.65746076  1  0  -0.474752  0  3.664582  0  0  -0.489845  0  3.890036  0  0  -0.499018  0  3.898607  0  0  -0.15663  -0.483636  0  3.885069  0
C  C38  1  0.12577401  0.91575605  0.41981138  1  0  0.148496  0  3.755679  0  0  0.164742  0  3.991332  0  0  0.166166  0  4.016117  0  0  -0.007334  0.163766  0  3.97607  0
C  C39  1  0.87421633  0.08424508  0.58018176  1  0  0.148792  0  3.75515  0  0  0.164764  0  3.991186  0  0  0.166175  0  4.015971  0  0  -0.007342  0.163781  0  3.975937  0
C  C40  1  0.23682830  0.93509778  0.51373913  1  0  -0.126408  0  3.749848  0  0  -0.144505  0  3.999139  0  0  -0.147167  0  4.020076  0  0  -0.094093  -0.142867  0  3.985204  0
C  C41  1  0.76316414  0.06490224  0.48625669  1  0  -0.126494  0  3.749779  0  0  -0.144512  0  3.999145  0  0  -0.147175  0  4.020085  0  0  -0.094094  -0.142874  0  3.985205  0
C  C42  1  0.88501146  0.98203791  0.40758147  1  0  -0.119963  0  3.727886  0  0  -0.14117  0  3.979462  0  0  -0.143422  0  3.999557  0  0  -0.089955  -0.139015  0  3.96639  0
C  C43  1  0.11498017  0.01796545  0.59241192  1  0  -0.119963  0  3.727784  0  0  -0.141078  0  3.979438  0  0  -0.143336  0  3.999543  0  0  -0.089939  -0.13894  0  3.966368  0
O  O44  1  0.75908909  0.21659117  0.13336011  1  0  -0.930646  0  1.800834  0  0  -0.885932  0  1.996028  0  0  -0.907085  0  1.962179  0  0  -0.637035  -0.874167  0  2.018955  0
O  O45  1  0.24091956  0.78340890  0.86663617  1  0  -0.930539  0  1.800958  0  0  -0.885781  0  1.996107  0  0  -0.906937  0  1.962262  0  0  -0.636955  -0.874019  0  2.019028  0
O  O46  1  0.95288218  0.39647271  0.86228692  1  0  -0.96109  0  1.974008  0  0  -0.888376  0  2.253691  0  0  -0.916542  0  2.230926  0  0  -0.484277  -0.871588  0  2.2678  0
O  O47  1  0.04711991  0.60352509  0.13771816  1  0  -0.961126  0  1.974129  0  0  -0.888397  0  2.253793  0  0  -0.91657  0  2.231028  0  0  -0.484294  -0.871612  0  2.267901  0
O  O48  1  0.53332697  0.52560777  0.80941378  1  0  -0.766418  0  1.968057  0  0  -0.687689  0  2.182894  0  0  -0.709105  0  2.157403  0  0  -0.373618  -0.672735  0  2.199641  0
O  O49  1  0.46667359  0.47438891  0.19059167  1  0  -0.76634  0  1.968161  0  0  -0.687574  0  2.182988  0  0  -0.708985  0  2.157493  0  0  -0.373547  -0.672637  0  2.199738  0
O  O50  1  0.76605529  0.63865794  0.92115694  1  0  -0.966634  0  1.975794  0  0  -0.891938  0  2.255105  0  0  -0.920203  0  2.231303  0  0  -0.48879  -0.875375  0  2.269517  0
O  O51  1  0.23394627  0.36134207  0.07884681  1  0  -0.966606  0  1.975764  0  0  -0.891924  0  2.255089  0  0  -0.920182  0  2.231287  0  0  -0.488814  -0.875359  0  2.269502  0
O  O52  1  0.08783221  0.92379644  0.11657627  1  0  -1.04851  0  1.989865  0  0  -0.969464  0  2.272858  0  0  -0.999934  0  2.249974  0  0  -0.510648  -0.953127  0  2.288167  0
O  O53  1  0.91217771  0.07619810  0.88341859  1  0  -1.048561  0  1.989765  0  0  -0.969525  0  2.272773  0  0  -0.999992  0  2.249892  0  0  -0.510622  -0.95319  0  2.288085  0
O  O54  1  0.44677286  0.02769733  0.13859792  1  0  -0.989632  0  1.951135  0  0  -0.911938  0  2.211871  0  0  -0.940162  0  2.19185  0  0  -0.41811  -0.895275  0  2.226315  0
O  O55  1  0.55322350  0.97230158  0.86140216  1  0  -0.989635  0  1.950968  0  0  -0.911972  0  2.211726  0  0  -0.940197  0  2.191711  0  0  -0.418122  -0.895308  0  2.226162  0
O  O56  1  0.50231419  0.75626820  0.14365575  1  0  -0.949915  0  2.009311  0  0  -0.871211  0  2.279431  0  0  -0.898807  0  2.257762  0  0  -0.449088  -0.854513  0  2.294591  0
O  O57  1  0.49769529  0.24372853  0.85634469  1  0  -0.949992  0  2.009465  0  0  -0.871265  0  2.279564  0  0  -0.89889  0  2.257956  0  0  -0.449059  -0.854565  0  2.294729  0
