# generated using pymatgen
data_V2CuPH12C19N2O9F
_symmetry_space_group_name_H-M   'P 1'
_cell_length_a   9.95984619
_cell_length_b   11.08059803
_cell_length_c   11.26282519
_cell_angle_alpha   114.39214762
_cell_angle_beta   104.74278608
_cell_angle_gamma   102.43864958
_symmetry_Int_Tables_number   1
_chemical_formula_structural   V2CuPH12C19N2O9F
_chemical_formula_sum   'V4 Cu2 P2 H24 C38 N4 O18 F2'
_cell_volume   1019.71060660
_cell_formula_units_Z   2
loop_
 _symmetry_equiv_pos_site_id
 _symmetry_equiv_pos_as_xyz
  1  'x, y, z'
loop_
 _atom_site_type_symbol
 _atom_site_label
 _atom_site_symmetry_multiplicity
 _atom_site_fract_x
 _atom_site_fract_y
 _atom_site_fract_z
 _atom_site_occupancy
 _atom_site_pbe_bader_charge
 _atom_site_pbe_bader_spin_density
 _atom_site_pbe_cm5_charge
 _atom_site_pbe_ddec_charge
 _atom_site_pbe_ddec_spin_density
 _atom_site_pbe_ddec_sum_bond_order
 _atom_site_pbe_magmom
V  V0  1  0.12853814  0.43877773  0.46213393  1  2.168671  -0.004818  1.440263  1.976299  -0.006068  3.1996  -0.005
V  V1  1  0.87145933  0.56123185  0.53787031  1  2.168474  -0.004815  1.440295  1.976139  -0.006065  3.200056  -0.005
V  V2  1  0.54635390  0.30062898  0.32175281  1  2.17587  0.034974  1.495227  1.990453  0.026212  3.174995  0.037
V  V3  1  0.45364900  0.69937847  0.67824913  1  2.175902  0.034967  1.495259  1.990452  0.026205  3.175069  0.037
Cu  Cu4  1  0.22485394  0.84149881  0.74423604  1  1.108945  0.553678  0.769444  0.873919  0.716753  2.347912  0.552
Cu  Cu5  1  0.77514573  0.15850014  0.25576528  1  1.108941  0.553676  0.769397  0.873845  0.716751  2.348072  0.552
P  P6  1  0.35989278  0.52680260  0.34664781  1  3.421454  0.000268  0.368155  1.342876  0.000377  5.294966  0.0
P  P7  1  0.64010538  0.47320059  0.65335222  1  3.421455  0.000268  0.368119  1.342694  0.000378  5.295008  0.0
H  H8  1  0.56669039  0.56939663  0.21618202  1  0.124442  0.000216  0.110503  0.121032  0.000103  1.008715  0.0
H  H9  1  0.43331193  0.43060658  0.78382250  1  0.124774  0.000216  0.110504  0.121009  0.000103  1.008709  0.0
H  H10  1  0.56343174  0.65114050  0.03960247  1  0.108713  1.3e-05  0.103532  0.10594  -1.7e-05  1.036372  0.0
H  H11  1  0.43658322  0.34886591  0.96040797  1  0.108657  1.3e-05  0.1035  0.105922  -1.7e-05  1.036411  0.0
H  H12  1  0.15668482  0.72005311  0.04459629  1  0.102425  0.000168  0.101878  0.099132  0.000124  1.039497  0.0
H  H13  1  0.84331085  0.27992986  0.95538700  1  0.102616  0.000168  0.1019  0.099139  0.000124  1.039534  0.0
H  H14  1  0.15664349  0.63497608  0.21912788  1  0.083811  4.5e-05  0.104053  0.104455  2.4e-05  1.027867  0.0
H  H15  1  0.84336027  0.36502818  0.78087296  1  0.083862  4.5e-05  0.104067  0.104466  2.4e-05  1.027902  0.0
H  H16  1  0.20140383  0.96845403  0.03800506  1  0.148886  0.00323  0.124275  0.105739  0.001634  0.994717  0.003
H  H17  1  0.79859877  0.03154173  0.96199385  1  0.148949  0.00323  0.124279  0.10575  0.001634  0.994756  0.003
H  H18  1  0.12917411  0.17474394  0.16948744  1  0.127769  0.001153  0.120528  0.138076  0.000605  0.984147  0.001
H  H19  1  0.87082497  0.82525075  0.83051113  1  0.12778  0.001153  0.120512  0.138065  0.000605  0.984124  0.001
H  H20  1  0.08389991  0.33022124  0.06923396  1  0.113744  0.000227  0.115042  0.12062  9.7e-05  1.002048  0.0
H  H21  1  0.91610165  0.66977452  0.93076827  1  0.113713  0.000227  0.115059  0.120644  9.7e-05  1.002116  0.0
H  H22  1  0.08515793  0.39095392  0.86962661  1  0.095286  0.000733  0.105409  0.110131  0.000373  1.011362  0.0
H  H23  1  0.91483884  0.60904290  0.13037408  1  0.095132  0.000733  0.10541  0.11011  0.000373  1.011395  0.0
H  H24  1  0.12111407  0.33274999  0.64766892  1  0.136588  0.000619  0.106142  0.121845  0.000322  1.052081  0.0
H  H25  1  0.87887774  0.66724469  0.35232713  1  0.136593  0.000619  0.106172  0.121903  0.000322  1.052023  0.0
H  H26  1  0.20043599  0.17824037  0.45518559  1  0.139826  0.000169  0.119923  0.140049  0.000102  0.992749  0.0
H  H27  1  0.79956055  0.82175857  0.54481324  1  0.139852  0.000169  0.119923  0.140042  0.000102  0.992763  0.0
H  H28  1  0.27942578  0.96849320  0.35902679  1  0.109622  0.001399  0.112922  0.124265  0.000738  0.989499  0.001
H  H29  1  0.72058069  0.03151001  0.64097779  1  0.109615  0.001399  0.112926  0.124268  0.000738  0.9895  0.001
H  H30  1  0.29073802  0.82064227  0.47924562  1  0.161126  0.003264  0.126983  0.104416  0.001596  0.99617  0.002
H  H31  1  0.70926701  0.17935987  0.52075731  1  0.161157  0.003264  0.126989  0.104423  0.001596  0.996186  0.002
C  C32  1  0.36154641  0.59652023  0.22782383  1  -0.530844  -0.00034  -0.016189  -0.174013  -0.000436  3.952353  0.0
C  C33  1  0.63845591  0.40348297  0.77217626  1  -0.531197  -0.00034  -0.016202  -0.173964  -0.000436  3.952421  0.0
C  C34  1  0.47785353  0.60374799  0.17948364  1  -0.08369  0.000741  -0.072841  -0.053717  0.000471  3.946023  0.001
C  C35  1  0.52215127  0.39625628  0.82052010  1  -0.08395  0.000741  -0.07283  -0.053672  0.000471  3.945976  0.001
C  C36  1  0.47623756  0.64942566  0.08126593  1  0.000809  0.000897  -0.078998  -0.087892  0.000489  3.944947  0.001
C  C37  1  0.52376788  0.35057754  0.91873841  1  0.000733  0.000897  -0.079014  -0.087883  0.000489  3.944806  0.001
C  C38  1  0.35929010  0.68887592  0.03061046  1  -0.050504  0.008639  -0.012072  -0.026523  0.006102  3.937006  0.007
C  C39  1  0.64071810  0.31112090  0.96938659  1  -0.0503  0.00864  -0.011986  -0.026547  0.006102  3.936978  0.007
C  C40  1  0.35205587  0.72504053  0.91558189  1  1.55614  -0.000173  0.23313  0.614524  -0.000359  4.115782  -0.001
C  C41  1  0.64795060  0.27496268  0.08442091  1  1.556113  -0.000175  0.233111  0.614524  -0.000359  4.115861  -0.001
C  C42  1  0.24616122  0.68756268  0.08357214  1  -0.037501  -0.000297  -0.082749  -0.093607  -0.000389  3.96564  0.0
C  C43  1  0.75384306  0.31243201  0.91642317  1  -0.037829  -0.000297  -0.082787  -0.093569  -0.000389  3.965695  0.0
C  C44  1  0.24671906  0.64075103  0.18094752  1  -0.064585  0.000364  -0.083011  -0.084536  0.000222  4.003248  0.0
C  C45  1  0.75328389  0.35925110  0.81904872  1  -0.06432  0.000364  -0.08303  -0.08461  0.000222  4.003293  0.0
C  C46  1  0.17848021  0.03821098  0.99690545  1  0.496732  -0.001284  0.070685  0.130677  -0.001722  3.895345  -0.001
C  C47  1  0.82152216  0.96178691  0.00309427  1  0.496747  -0.001284  0.070684  0.130694  -0.001723  3.895348  -0.001
C  C48  1  0.13799065  0.15321644  0.06889529  1  -0.014937  0.007772  -0.068379  -0.096988  0.005298  3.926313  0.006
C  C49  1  0.86201340  0.84678039  0.93110704  1  -0.01496  0.007773  -0.068354  -0.096939  0.005299  3.926383  0.006
C  C50  1  0.11232071  0.23935273  0.01230816  1  0.008938  -0.00395  -0.058192  -0.067277  -0.00446  3.888149  -0.002
C  C51  1  0.88768334  0.76064410  0.98769329  1  0.008938  -0.00395  -0.058227  -0.067403  -0.00446  3.888352  -0.002
C  C52  1  0.12846468  0.21208467  0.88362403  1  -0.022087  0.003846  0.00154  0.044772  0.002742  4.019549  0.003
C  C53  1  0.87153602  0.78791428  0.11637752  1  -0.021997  0.003846  0.001532  0.044854  0.002743  4.019351  0.003
C  C54  1  0.16797003  0.09345463  0.81783185  1  0.445749  0.001808  0.113818  0.115183  0.001074  4.000291  0.001
C  C55  1  0.83202779  0.90654219  0.18216730  1  0.445627  0.001808  0.113793  0.115159  0.001074  4.00031  0.001
C  C56  1  0.11176330  0.29712069  0.81767216  1  -0.045582  0.00113  -0.08179  -0.121309  0.000787  3.964224  0.001
C  C57  1  0.88823307  0.70287507  0.18232801  1  -0.045491  0.00113  -0.081772  -0.121328  0.000787  3.964342  0.001
C  C58  1  0.13292266  0.26533839  0.69437101  1  -0.015686  0.001098  -0.075766  -0.104536  0.000747  3.933686  0.001
C  C59  1  0.86707100  0.73465842  0.30562631  1  -0.015695  0.001098  -0.075836  -0.104624  0.000747  3.933874  0.001
C  C60  1  0.17417224  0.14616319  0.62664494  1  0.023703  0.00373  0.004957  0.046413  0.00267  3.991795  0.003
C  C61  1  0.82582350  0.85383362  0.37335462  1  0.023662  0.00373  0.004979  0.046478  0.00267  3.991844  0.003
C  C62  1  0.18936274  0.05960846  0.68890408  1  0.465205  0.001338  0.114887  0.113495  0.000658  4.011394  0.001
C  C63  1  0.81063259  0.94038729  0.31109230  1  0.465139  0.001338  0.114898  0.11351  0.000658  4.011316  0.001
C  C64  1  0.20712686  0.11173976  0.50418822  1  0.001396  -0.004167  -0.046478  -0.039654  -0.004696  3.837017  -0.003
C  C65  1  0.79286928  0.88825811  0.49581010  1  0.001455  -0.004166  -0.046469  -0.039637  -0.004696  3.837074  -0.003
C  C66  1  0.25047217  0.99612500  0.45144428  1  -0.052086  0.006712  -0.075814  -0.123321  0.004551  3.942023  0.005
C  C67  1  0.74953038  0.00387608  0.54855855  1  -0.052079  0.006712  -0.075832  -0.123333  0.004551  3.941985  0.005
C  C68  1  0.25883140  0.91337329  0.51824969  1  0.472259  -0.002031  0.069842  0.124311  -0.002258  3.892423  -0.001
C  C69  1  0.74117011  0.08662778  0.48175024  1  0.47225  -0.002032  0.069807  0.124269  -0.002259  3.892507  -0.001
N  N70  1  0.19200207  0.00952582  0.87471402  1  -1.204457  0.095196  -0.339902  -0.255367  0.06306  3.598247  0.081
N  N71  1  0.80799597  0.99046887  0.12528343  1  -1.204396  0.095199  -0.339834  -0.25533  0.063062  3.598189  0.081
N  N72  1  0.22901105  0.94480623  0.63387973  1  -1.211654  0.093518  -0.332434  -0.255659  0.062002  3.587935  0.08
N  N73  1  0.77098573  0.05519058  0.36611919  1  -1.211597  0.093514  -0.332408  -0.255645  0.061999  3.587939  0.08
O  O74  1  0.40528733  0.39725655  0.29547833  1  -1.398599  0.001835  -0.40311  -0.778355  0.00092  2.352855  0.001
O  O75  1  0.59471060  0.60274878  0.70452429  1  -1.398514  0.001835  -0.403097  -0.778257  0.00092  2.352769  0.001
O  O76  1  0.46602304  0.64835924  0.49617912  1  -1.373394  0.003266  -0.411562  -0.767356  0.001958  2.297954  0.002
O  O77  1  0.53397738  0.35164715  0.50382272  1  -1.373417  0.003266  -0.411582  -0.767367  0.001958  2.297982  0.002
O  O78  1  0.19575865  0.48553700  0.33471273  1  -1.372135  2.5e-05  -0.417218  -0.778497  -9.1e-05  2.280206  0.0
O  O79  1  0.80424050  0.51447151  0.66528968  1  -1.372234  2.5e-05  -0.417173  -0.778363  -9.1e-05  2.280188  0.0
O  O80  1  0.43953794  0.69256593  0.85211726  1  -1.146174  0.001104  -0.341041  -0.589759  -7.4e-05  2.347422  0.001
O  O81  1  0.56047633  0.30744686  0.14788940  1  -1.146413  0.001104  -0.340986  -0.589688  -7.4e-05  2.34751  0.001
O  O82  1  0.25977199  0.78292057  0.88977881  1  -1.117663  0.079528  -0.294144  -0.509915  0.051382  2.377192  0.073
O  O83  1  0.74023182  0.21707838  0.11022433  1  -1.117394  0.07953  -0.294178  -0.509948  0.051383  2.37723  0.073
O  O84  1  0.28357568  0.43893043  0.55794932  1  -0.833709  0.008481  -0.580805  -0.775108  0.005595  1.668788  0.007
O  O85  1  0.71641440  0.56107063  0.44204803  1  -0.83363  0.008482  -0.580797  -0.775092  0.005595  1.668808  0.007
O  O86  1  0.44581418  0.13408225  0.24062255  1  -0.736412  0.014654  -0.563701  -0.675855  0.008642  1.468264  0.012
O  O87  1  0.55418687  0.86592306  0.75937189  1  -0.736545  0.014656  -0.56373  -0.675893  0.008643  1.46842  0.012
O  O88  1  0.27117166  0.69104085  0.62112982  1  -0.941047  0.076961  -0.619235  -0.947415  0.049852  2.140162  0.066
O  O89  1  0.72883025  0.30896129  0.37887418  1  -0.941119  0.07696  -0.619251  -0.947421  0.049851  2.140156  0.066
O  O90  1  0.97511829  0.73049248  0.64466846  1  -0.848363  0.004555  -0.602493  -0.792142  0.002665  1.706124  0.005
O  O91  1  0.02486902  0.26951495  0.35532907  1  -0.848424  0.004557  -0.602466  -0.792184  0.002666  1.705859  0.005
F  F92  1  0.03440751  0.47674412  0.59740212  1  -0.696819  -0.000291  -0.375261  -0.569767  -0.000377  1.041546  0.0
F  F93  1  0.96559020  0.52326333  0.40259954  1  -0.696818  -0.000291  -0.375229  -0.569711  -0.000377  1.041514  0.0
