# generated using pymatgen
data_AgH8C10N3O2
_symmetry_space_group_name_H-M   'P 1'
_cell_length_a   6.32390213
_cell_length_b   7.94553187
_cell_length_c   19.76906120
_cell_angle_alpha   90.00046439
_cell_angle_beta   90.87084711
_cell_angle_gamma   90.00059128
_symmetry_Int_Tables_number   1
_chemical_formula_structural   AgH8C10N3O2
_chemical_formula_sum   'Ag4 H32 C40 N12 O8'
_cell_volume   993.21665604
_cell_formula_units_Z   4
loop_
 _symmetry_equiv_pos_site_id
 _symmetry_equiv_pos_as_xyz
  1  'x, y, z'
loop_
 _atom_site_type_symbol
 _atom_site_label
 _atom_site_symmetry_multiplicity
 _atom_site_fract_x
 _atom_site_fract_y
 _atom_site_fract_z
 _atom_site_occupancy
 _atom_site_hle17_bader_spin_density
 _atom_site_hle17_ddec_charge
 _atom_site_hle17_ddec_spin_density
 _atom_site_hle17_ddec_sum_bond_order
 _atom_site_hle17_magmom
 _atom_site_hse06_10hf_bader_spin_density
 _atom_site_hse06_10hf_ddec_charge
 _atom_site_hse06_10hf_ddec_spin_density
 _atom_site_hse06_10hf_ddec_sum_bond_order
 _atom_site_hse06_10hf_magmom
 _atom_site_hse06_bader_spin_density
 _atom_site_hse06_ddec_charge
 _atom_site_hse06_ddec_spin_density
 _atom_site_hse06_ddec_sum_bond_order
 _atom_site_hse06_magmom
 _atom_site_pbe_bader_spin_density
 _atom_site_pbe_cm5_charge
 _atom_site_pbe_ddec_charge
 _atom_site_pbe_ddec_spin_density
 _atom_site_pbe_ddec_sum_bond_order
 _atom_site_pbe_magmom
Ag  Ag0  1  0.44592335  0.73216570  0.03377743  1  0  0.536392  0  1.464754  0  0  0.399586  0  1.927864  0  0  0.427636  0  1.879855  0  0  0.463672  0.379599  0  1.961556  0
Ag  Ag1  1  0.55407185  0.23217216  0.46622538  1  0  0.536377  0  1.464746  0  0  0.399581  0  1.92784  0  0  0.427632  0  1.879832  0  0  0.463684  0.379592  0  1.961525  0
Ag  Ag2  1  0.55408789  0.26783840  0.96621902  1  0  0.536475  0  1.4646  0  0  0.399645  0  1.927761  0  0  0.427703  0  1.879746  0  0  0.463687  0.379652  0  1.961454  0
Ag  Ag3  1  0.44592932  0.76783445  0.53377956  1  0  0.536427  0  1.46474  0  0  0.39961  0  1.927869  0  0  0.42766  0  1.879862  0  0  0.463686  0.379622  0  1.961553  0
H  H4  1  0.02423978  0.88573747  0.33053040  1  0  0.095543  0  0.965482  0  0  0.104372  0  1.030203  0  0  0.107684  0  1.027887  0  0  0.100225  0.101991  0  1.031895  0
H  H5  1  0.97577309  0.38572017  0.16947769  1  0  0.095552  0  0.965538  0  0  0.104367  0  1.030277  0  0  0.107678  0  1.027964  0  0  0.100247  0.10198  0  1.031968  0
H  H6  1  0.97575991  0.11425530  0.66947300  1  0  0.095596  0  0.965532  0  0  0.104417  0  1.030248  0  0  0.107728  0  1.027937  0  0  0.10026  0.102031  0  1.031942  0
H  H7  1  0.02422467  0.61424868  0.83053075  1  0  0.095646  0  0.965269  0  0  0.104378  0  1.030109  0  0  0.107685  0  1.027805  0  0  0.100295  0.101995  0  1.031806  0
H  H8  1  0.93290622  0.94999981  0.21141957  1  0  0.091715  0  0.957568  0  0  0.104127  0  1.016266  0  0  0.10651  0  1.016299  0  0  0.099748  0.10248  0  1.016222  0
H  H9  1  0.06709176  0.44999423  0.28858856  1  0  0.091713  0  0.957394  0  0  0.104131  0  1.016115  0  0  0.106514  0  1.016148  0  0  0.099769  0.102482  0  1.016077  0
H  H10  1  0.06708729  0.04997786  0.78858174  1  0  0.091687  0  0.957631  0  0  0.104062  0  1.016378  0  0  0.106444  0  1.016413  0  0  0.09975  0.102412  0  1.016337  0
H  H11  1  0.93289016  0.54999351  0.71142019  1  0  0.091662  0  0.957536  0  0  0.104082  0  1.016243  0  0  0.106465  0  1.016277  0  0  0.09978  0.102433  0  1.016204  0
H  H12  1  0.56645654  0.13434853  0.18172026  1  0  0.086434  0  0.982623  0  0  0.098216  0  1.044144  0  0  0.099898  0  1.044963  0  0  0.096131  0.097006  0  1.043677  0
H  H13  1  0.43354587  0.63436744  0.31827218  1  0  0.086371  0  0.982778  0  0  0.098177  0  1.044264  0  0  0.099857  0  1.045087  0  0  0.096126  0.096964  0  1.043791  0
H  H14  1  0.43353528  0.86564550  0.81828254  1  0  0.086398  0  0.982627  0  0  0.098156  0  1.044182  0  0  0.099836  0  1.045003  0  0  0.096084  0.09694  0  1.043719  0
H  H15  1  0.56644382  0.36564421  0.68171541  1  0  0.08635  0  0.982559  0  0  0.098159  0  1.044069  0  0  0.09984  0  1.044891  0  0  0.096109  0.096946  0  1.0436  0
H  H16  1  0.65474500  0.06989364  0.30213038  1  0  0.100461  0  0.95203  0  0  0.107927  0  1.017877  0  0  0.111351  0  1.015643  0  0  0.102226  0.105459  0  1.019452  0
H  H17  1  0.34526898  0.56989452  0.19786451  1  0  0.100563  0  0.951887  0  0  0.107939  0  1.01783  0  0  0.111367  0  1.015584  0  0  0.102225  0.105476  0  1.019406  0
H  H18  1  0.34524496  0.93012053  0.69787645  1  0  0.100519  0  0.951955  0  0  0.107887  0  1.017919  0  0  0.111312  0  1.015684  0  0  0.102159  0.105418  0  1.019494  0
H  H19  1  0.65473639  0.43010580  0.80212530  1  0  0.100447  0  0.952117  0  0  0.10787  0  1.018009  0  0  0.111294  0  1.015776  0  0  0.102138  0.105404  0  1.019582  0
H  H20  1  0.11718963  0.20306148  0.10639477  1  0  0.115428  0  0.918627  0  0  0.131104  0  0.978353  0  0  0.132695  0  0.976925  0  0  0.12398  0.12973  0  0.97951  0
H  H21  1  0.88281805  0.70308268  0.39360455  1  0  0.115599  0  0.918321  0  0  0.131137  0  0.978198  0  0  0.132685  0  0.976818  0  0  0.12401  0.129762  0  0.979361  0
H  H22  1  0.88282429  0.79693255  0.89360880  1  0  0.115533  0  0.918485  0  0  0.131163  0  0.978272  0  0  0.132755  0  0.976842  0  0  0.124024  0.129793  0  0.979426  0
H  H23  1  0.11717433  0.29693149  0.60639016  1  0  0.115669  0  0.918381  0  0  0.131197  0  0.978232  0  0  0.132775  0  0.97682  0  0  0.124039  0.129828  0  0.979389  0
H  H24  1  0.33912909  0.08241442  0.08394051  1  0  0.083253  0  0.940795  0  0  0.090119  0  1.02884  0  0  0.09276  0  1.023482  0  0  0.109479  0.087824  0  1.033049  0
H  H25  1  0.66087660  0.58243688  0.41606242  1  0  0.083273  0  0.940817  0  0  0.090102  0  1.028901  0  0  0.092742  0  1.023534  0  0  0.109436  0.087808  0  1.033112  0
H  H26  1  0.66087995  0.91756828  0.91606503  1  0  0.083342  0  0.940726  0  0  0.090195  0  1.028792  0  0  0.092835  0  1.023431  0  0  0.109462  0.087899  0  1.033006  0
H  H27  1  0.33911838  0.41758232  0.58394042  1  0  0.083299  0  0.9408  0  0  0.090139  0  1.028833  0  0  0.09278  0  1.023468  0  0  0.109492  0.087846  0  1.033045  0
H  H28  1  0.94186128  0.57860463  0.04376682  1  0  0.113915  0  0.92312  0  0  0.123947  0  0.981789  0  0  0.126185  0  0.979104  0  0  0.143758  0.122164  0  0.983899  0
H  H29  1  0.05813203  0.07862352  0.45623140  1  0  0.114009  0  0.923196  0  0  0.124068  0  0.981808  0  0  0.126312  0  0.979128  0  0  0.14383  0.122286  0  0.983909  0
H  H30  1  0.05814111  0.42140072  0.95622042  1  0  0.113931  0  0.923269  0  0  0.124019  0  0.981832  0  0  0.126254  0  0.979154  0  0  0.143778  0.122243  0  0.983931  0
H  H31  1  0.94186963  0.92139316  0.54376646  1  0  0.113911  0  0.923086  0  0  0.123895  0  0.981822  0  0  0.12613  0  0.979138  0  0  0.143756  0.122121  0  0.983934  0
H  H32  1  0.75610964  0.08174766  0.07975598  1  0  0.113779  0  0.998862  0  0  0.117358  0  1.074231  0  0  0.121701  0  1.067856  0  0  0.134078  0.11391  0  1.079099  0
H  H33  1  0.24389963  0.58175949  0.42024092  1  0  0.113887  0  0.998827  0  0  0.117427  0  1.074233  0  0  0.121772  0  1.067851  0  0  0.134127  0.113983  0  1.079092  0
H  H34  1  0.24389975  0.91825769  0.92024450  1  0  0.113813  0  0.998921  0  0  0.117419  0  1.074244  0  0  0.121764  0  1.06786  0  0  0.134109  0.113972  0  1.079105  0
H  H35  1  0.75610526  0.41825719  0.57975596  1  0  0.113763  0  0.998949  0  0  0.117314  0  1.074346  0  0  0.121656  0  1.06797  0  0  0.13409  0.113869  0  1.079209  0
C  C36  1  0.41007281  0.91267038  0.39363214  1  0  0.606922  0  3.968723  0  0  0.560749  0  4.254654  0  0  0.594249  0  4.249208  0  0  0.180115  0.538002  0  4.257421  0
C  C37  1  0.58994900  0.41265653  0.10636654  1  0  0.606985  0  3.96875  0  0  0.56083  0  4.254672  0  0  0.59433  0  4.24922  0  0  0.180164  0.538079  0  4.257447  0
C  C38  1  0.58992178  0.08733749  0.60637626  1  0  0.606952  0  3.968869  0  0  0.560801  0  4.254781  0  0  0.594301  0  4.249332  0  0  0.18012  0.53805  0  4.257556  0
C  C39  1  0.41006716  0.58733246  0.89362745  1  0  0.607018  0  3.968725  0  0  0.560864  0  4.254638  0  0  0.594364  0  4.249185  0  0  0.18012  0.538114  0  4.257408  0
C  C40  1  0.34712970  0.96993060  0.32349508  1  0  -0.078283  0  3.779668  0  0  -0.055563  0  4.011392  0  0  -0.064446  0  4.036007  0  0  -0.026219  -0.049858  0  3.994883  0
C  C41  1  0.65288949  0.46992861  0.17650781  1  0  -0.078636  0  3.779984  0  0  -0.055921  0  4.011729  0  0  -0.064807  0  4.036346  0  0  -0.026284  -0.05021  0  3.995213  0
C  C42  1  0.65286834  0.03006721  0.67650931  1  0  -0.078353  0  3.779907  0  0  -0.055643  0  4.011642  0  0  -0.064525  0  4.036256  0  0  -0.026221  -0.049941  0  3.995137  0
C  C43  1  0.34711512  0.53005913  0.82349312  1  0  -0.078485  0  3.780208  0  0  -0.055719  0  4.011857  0  0  -0.064605  0  4.036472  0  0  -0.026248  -0.050005  0  3.995336  0
C  C44  1  0.14277022  0.94020219  0.29769231  1  0  -0.065854  0  3.746544  0  0  -0.087453  0  3.993216  0  0  -0.086934  0  4.013674  0  0  -0.087401  -0.087622  0  3.979361  0
C  C45  1  0.85724051  0.44019845  0.20231240  1  0  -0.065612  0  3.746763  0  0  -0.087176  0  3.993403  0  0  -0.086659  0  4.013866  0  0  -0.087357  -0.087335  0  3.979531  0
C  C46  1  0.85723735  0.05978429  0.70231169  1  0  -0.065899  0  3.746386  0  0  -0.087469  0  3.993059  0  0  -0.086951  0  4.013516  0  0  -0.08742  -0.087628  0  3.979188  0
C  C47  1  0.14275591  0.55977670  0.79769248  1  0  -0.065723  0  3.746439  0  0  -0.08725  0  3.993124  0  0  -0.08673  0  4.013583  0  0  -0.087418  -0.087415  0  3.979252  0
C  C48  1  0.09189359  0.97768155  0.23060838  1  0  -0.121757  0  3.743395  0  0  -0.14129  0  3.989718  0  0  -0.145122  0  4.011636  0  0  -0.095946  -0.138725  0  3.97471  0
C  C49  1  0.90811623  0.47768449  0.26939442  1  0  -0.121781  0  3.743242  0  0  -0.141319  0  3.989627  0  0  -0.145151  0  4.011548  0  0  -0.096015  -0.13875  0  3.974615  0
C  C50  1  0.90810449  0.02230241  0.76939550  1  0  -0.121631  0  3.743367  0  0  -0.141176  0  3.989739  0  0  -0.145006  0  4.011655  0  0  -0.095936  -0.138603  0  3.974724  0
C  C51  1  0.09187879  0.52230828  0.73060792  1  0  -0.121843  0  3.743251  0  0  -0.141427  0  3.989559  0  0  -0.145261  0  4.011474  0  0  -0.096065  -0.138857  0  3.974549  0
C  C52  1  0.24477086  0.04521552  0.18783233  1  0  0.08214  0  3.73357  0  0  0.101385  0  3.974254  0  0  0.101806  0  3.998015  0  0  -0.009703  0.101215  0  3.957862  0
C  C53  1  0.75523606  0.54522793  0.31216796  1  0  0.081907  0  3.733727  0  0  0.101099  0  3.974486  0  0  0.101517  0  3.998237  0  0  -0.009794  0.100937  0  3.958083  0
C  C54  1  0.75523034  0.95476719  0.81217210  1  0  0.081815  0  3.733975  0  0  0.101131  0  3.974592  0  0  0.10155  0  3.998352  0  0  -0.009773  0.100961  0  3.958191  0
C  C55  1  0.24474659  0.45477113  0.68783018  1  0  0.08198  0  3.733731  0  0  0.101337  0  3.974227  0  0  0.101761  0  3.997983  0  0  -0.009694  0.101167  0  3.95783  0
C  C56  1  0.44681591  0.07993541  0.21420313  1  0  -0.122623  0  3.74852  0  0  -0.137326  0  3.985805  0  0  -0.142243  0  4.009963  0  0  -0.093824  -0.134095  0  3.969437  0
C  C57  1  0.55319480  0.57995210  0.28579530  1  0  -0.122459  0  3.749049  0  0  -0.137154  0  3.986338  0  0  -0.142069  0  4.010498  0  0  -0.093745  -0.13393  0  3.969981  0
C  C58  1  0.55317271  0.92006113  0.78580014  1  0  -0.122463  0  3.748537  0  0  -0.137126  0  3.985735  0  0  -0.142048  0  4.009909  0  0  -0.093735  -0.133885  0  3.969352  0
C  C59  1  0.44680060  0.42005955  0.71420147  1  0  -0.122416  0  3.748646  0  0  -0.137171  0  3.985938  0  0  -0.142086  0  4.010094  0  0  -0.093713  -0.133943  0  3.969582  0
C  C60  1  0.49721746  0.04426839  0.28149998  1  0  -0.060761  0  3.74064  0  0  -0.082256  0  3.985248  0  0  -0.08137  0  4.005405  0  0  -0.084025  -0.082587  0  3.971497  0
C  C61  1  0.50279405  0.54427462  0.21850238  1  0  -0.060784  0  3.740808  0  0  -0.082215  0  3.985447  0  0  -0.081328  0  4.005608  0  0  -0.084006  -0.082554  0  3.971701  0
C  C62  1  0.50277419  0.95573445  0.71850535  1  0  -0.060723  0  3.740721  0  0  -0.08215  0  3.985338  0  0  -0.081265  0  4.005494  0  0  -0.083911  -0.082483  0  3.971582  0
C  C63  1  0.49720444  0.45572444  0.78149544  1  0  -0.060657  0  3.741003  0  0  -0.082151  0  3.985634  0  0  -0.081265  0  4.005792  0  0  -0.083934  -0.082491  0  3.971885  0
C  C64  1  0.19471372  0.08056784  0.11408904  1  0  -0.060693  0  3.643137  0  0  -0.142179  0  3.892993  0  0  -0.136835  0  3.902994  0  0  -0.04178  -0.14454  0  3.88632  0
C  C65  1  0.80528717  0.58058453  0.38591433  1  0  -0.060717  0  3.642897  0  0  -0.142072  0  3.892691  0  0  -0.136671  0  3.902692  0  0  -0.041773  -0.144447  0  3.88603  0
C  C66  1  0.80529535  0.91942745  0.88591599  1  0  -0.060721  0  3.643386  0  0  -0.142265  0  3.893286  0  0  -0.13691  0  3.903285  0  0  -0.04181  -0.144637  0  3.886619  0
C  C67  1  0.19470163  0.41942712  0.61408641  1  0  -0.060812  0  3.643167  0  0  -0.142185  0  3.892871  0  0  -0.136826  0  3.902871  0  0  -0.041834  -0.144563  0  3.886221  0
C  C68  1  0.94469801  0.71165312  0.05605163  1  0  0.235391  0  3.63451  0  0  0.177767  0  3.912959  0  0  0.191587  0  3.924936  0  0  0.160046  0.168573  0  3.904571  0
C  C69  1  0.05529880  0.21167301  0.44394657  1  0  0.235197  0  3.635075  0  0  0.1776  0  3.913477  0  0  0.191403  0  3.925464  0  0  0.159985  0.168413  0  3.905081  0
C  C70  1  0.05530245  0.28834846  0.94394065  1  0  0.235188  0  3.635031  0  0  0.177555  0  3.913449  0  0  0.191376  0  3.925426  0  0  0.159964  0.168365  0  3.90506  0
C  C71  1  0.94470275  0.78834493  0.55605280  1  0  0.235374  0  3.634497  0  0  0.177788  0  3.912929  0  0  0.191607  0  3.924905  0  0  0.160053  0.168589  0  3.904544  0
C  C72  1  0.84275799  0.96369520  0.07515113  1  0  0.154886  0  3.633524  0  0  0.077726  0  3.902439  0  0  0.094397  0  3.91224  0  0  0.157304  0.067781  0  3.895959  0
C  C73  1  0.15724881  0.46370795  0.42484653  1  0  0.154553  0  3.633663  0  0  0.077379  0  3.902671  0  0  0.094077  0  3.912471  0  0  0.157145  0.067436  0  3.896189  0
C  C74  1  0.15724693  0.03630386  0.92484525  1  0  0.154848  0  3.633695  0  0  0.07763  0  3.902619  0  0  0.094317  0  3.912422  0  0  0.157279  0.067691  0  3.896127  0
C  C75  1  0.84275137  0.53630747  0.57514980  1  0  0.154879  0  3.633677  0  0  0.077715  0  3.902621  0  0  0.094392  0  3.912426  0  0  0.157292  0.067774  0  3.896134  0
N  N76  1  0.05280492  0.95410327  0.08536214  1  0  0.045372  0  3.563816  0  0  0.16302  0  3.744751  0  0  0.147404  0  3.77627  0  0  -0.137599  0.170674  0  3.726059  0
N  N77  1  0.94719514  0.45411929  0.41463946  1  0  0.04544  0  3.564087  0  0  0.163152  0  3.744871  0  0  0.14748  0  3.776434  0  0  -0.137508  0.170804  0  3.726184  0
N  N78  1  0.94719989  0.04589328  0.91463576  1  0  0.045483  0  3.564309  0  0  0.163241  0  3.745074  0  0  0.147602  0  3.776618  0  0  -0.137504  0.170891  0  3.726385  0
N  N79  1  0.05279857  0.54589236  0.58535881  1  0  0.045454  0  3.564108  0  0  0.163153  0  3.744872  0  0  0.147525  0  3.776407  0  0  -0.137502  0.170804  0  3.72619  0
N  N80  1  0.12011898  0.79377683  0.07374133  1  0  -0.267197  0  3.082202  0  0  -0.228977  0  3.375742  0  0  -0.241103  0  3.38739  0  0  -0.242066  -0.219576  0  3.368183  0
N  N81  1  0.87988187  0.29379634  0.42626124  1  0  -0.267255  0  3.0829  0  0  -0.22907  0  3.376439  0  0  -0.241171  0  3.388097  0  0  -0.242193  -0.219668  0  3.368875  0
N  N82  1  0.87989378  0.20621720  0.92625615  1  0  -0.267186  0  3.082852  0  0  -0.229008  0  3.376394  0  0  -0.241122  0  3.388041  0  0  -0.242129  -0.219607  0  3.368836  0
N  N83  1  0.12011325  0.70621531  0.57373957  1  0  -0.267254  0  3.082667  0  0  -0.229044  0  3.376187  0  0  -0.241164  0  3.387837  0  0  -0.24215  -0.219643  0  3.368628  0
N  N84  1  0.76987048  0.81220835  0.05622244  1  0  -0.388308  0  3.298263  0  0  -0.312972  0  3.624728  0  0  -0.334676  0  3.634098  0  0  -0.362016  -0.298208  0  3.617703  0
N  N85  1  0.23013097  0.31221823  0.44377514  1  0  -0.388041  0  3.298437  0  0  -0.312726  0  3.62491  0  0  -0.334432  0  3.634284  0  0  -0.36189  -0.297964  0  3.617881  0
N  N86  1  0.23013155  0.18779701  0.94376986  1  0  -0.388311  0  3.298193  0  0  -0.312985  0  3.624705  0  0  -0.334701  0  3.63408  0  0  -0.361991  -0.298229  0  3.617693  0
N  N87  1  0.76987075  0.68779342  0.55622170  1  0  -0.388311  0  3.298356  0  0  -0.312988  0  3.624839  0  0  -0.334691  0  3.634206  0  0  -0.362022  -0.298229  0  3.617822  0
O  O88  1  0.59524242  0.94474843  0.41554221  1  0  -0.635671  0  1.974477  0  0  -0.575237  0  2.228796  0  0  -0.599766  0  2.216081  0  0  -0.345471  -0.557898  0  2.236877  0
O  O89  1  0.40478638  0.44473907  0.08445362  1  0  -0.635573  0  1.974339  0  0  -0.575135  0  2.228649  0  0  -0.599664  0  2.21594  0  0  -0.345425  -0.557817  0  2.236775  0
O  O90  1  0.40475737  0.05526321  0.58445968  1  0  -0.63571  0  1.974324  0  0  -0.57527  0  2.228638  0  0  -0.5998  0  2.215925  0  0  -0.345503  -0.557935  0  2.236737  0
O  O91  1  0.59523940  0.55526503  0.91553845  1  0  -0.635794  0  1.974247  0  0  -0.575372  0  2.228608  0  0  -0.599902  0  2.215891  0  0  -0.345557  -0.558026  0  2.236677  0
O  O92  1  0.27131246  0.82952910  0.42686782  1  0  -0.660525  0  2.022263  0  0  -0.594148  0  2.279768  0  0  -0.623363  0  2.269523  0  0  -0.344711  -0.573288  0  2.28595  0
O  O93  1  0.72871100  0.32950309  0.07313565  1  0  -0.660555  0  2.022531  0  0  -0.594206  0  2.280091  0  0  -0.623424  0  2.269846  0  0  -0.344757  -0.573325  0  2.286229  0
O  O94  1  0.72867269  0.17048003  0.57313996  1  0  -0.660572  0  2.022439  0  0  -0.594202  0  2.279965  0  0  -0.623413  0  2.269714  0  0  -0.344759  -0.573341  0  2.286149  0
O  O95  1  0.27130939  0.67046954  0.92686597  1  0  -0.660567  0  2.022289  0  0  -0.594222  0  2.279804  0  0  -0.623432  0  2.269551  0  0  -0.344701  -0.573383  0  2.286029  0
