# generated using pymatgen
data_H6PbC8O7F4
_symmetry_space_group_name_H-M   'P 1'
_cell_length_a   7.38940689
_cell_length_b   8.38902701
_cell_length_c   10.64253748
_cell_angle_alpha   77.88602244
_cell_angle_beta   74.03797024
_cell_angle_gamma   66.78023170
_symmetry_Int_Tables_number   1
_chemical_formula_structural   H6PbC8O7F4
_chemical_formula_sum   'H12 Pb2 C16 O14 F8'
_cell_volume   579.06149288
_cell_formula_units_Z   2
loop_
 _symmetry_equiv_pos_site_id
 _symmetry_equiv_pos_as_xyz
  1  'x, y, z'
loop_
 _atom_site_type_symbol
 _atom_site_label
 _atom_site_symmetry_multiplicity
 _atom_site_fract_x
 _atom_site_fract_y
 _atom_site_fract_z
 _atom_site_occupancy
 _atom_site_hle17_bader_spin_density
 _atom_site_hle17_ddec_charge
 _atom_site_hle17_ddec_spin_density
 _atom_site_hle17_ddec_sum_bond_order
 _atom_site_hle17_magmom
 _atom_site_hse06_10hf_bader_spin_density
 _atom_site_hse06_10hf_ddec_charge
 _atom_site_hse06_10hf_ddec_spin_density
 _atom_site_hse06_10hf_ddec_sum_bond_order
 _atom_site_hse06_10hf_magmom
 _atom_site_hse06_bader_spin_density
 _atom_site_hse06_ddec_charge
 _atom_site_hse06_ddec_spin_density
 _atom_site_hse06_ddec_sum_bond_order
 _atom_site_hse06_magmom
 _atom_site_pbe_bader_spin_density
 _atom_site_pbe_cm5_charge
 _atom_site_pbe_ddec_charge
 _atom_site_pbe_ddec_spin_density
 _atom_site_pbe_ddec_sum_bond_order
 _atom_site_pbe_magmom
H  H0  1  0.07586461  0.13932745  0.76516765  1  0  0.4394  0  0.807725  0  0  0.414152  0  0.871028  0  0  0.423099  0  0.860784  0  0  0.322538  0.407798  0  0.878327  0
H  H1  1  0.92413339  0.86067297  0.23483349  1  0  0.439426  0  0.80768  0  0  0.414185  0  0.870973  0  0  0.423132  0  0.860729  0  0  0.322556  0.40783  0  0.878271  0
H  H2  1  0.97773355  0.22818866  0.63941772  1  0  0.443844  0  0.853637  0  0  0.407477  0  0.924284  0  0  0.419102  0  0.907628  0  0  0.291866  0.399273  0  0.935994  0
H  H3  1  0.02226023  0.77181175  0.36058329  1  0  0.443882  0  0.853585  0  0  0.407518  0  0.924225  0  0  0.419143  0  0.907569  0  0  0.291878  0.399315  0  0.935935  0
H  H4  1  0.23623417  0.53699484  0.47361848  1  0  0.42748  0  0.869042  0  0  0.396414  0  0.932542  0  0  0.407646  0  0.916235  0  0  0.290504  0.388434  0  0.944111  0
H  H5  1  0.76376242  0.46300559  0.52638293  1  0  0.427494  0  0.869064  0  0  0.396422  0  0.932541  0  0  0.407654  0  0.916234  0  0  0.290486  0.388443  0  0.944108  0
H  H6  1  0.34412945  0.61555274  0.34471104  1  0  0.427246  0  0.875748  0  0  0.392549  0  0.945953  0  0  0.403  0  0.930807  0  0  0.292002  0.385113  0  0.956717  0
H  H7  1  0.65586715  0.38444768  0.65529037  1  0  0.427252  0  0.87572  0  0  0.392554  0  0.945927  0  0  0.403006  0  0.930781  0  0  0.292018  0.385118  0  0.956692  0
H  H8  1  0.63496931  0.61253069  0.36593557  1  0  0.424782  0  0.879831  0  0  0.390854  0  0.948518  0  0  0.401779  0  0.932525  0  0  0.292724  0.383108  0  0.959832  0
H  H9  1  0.36502588  0.38746972  0.63406517  1  0  0.424671  0  0.879962  0  0  0.390735  0  0.948667  0  0  0.401664  0  0.932666  0  0  0.292666  0.38299  0  0.959981  0
H  H10  1  0.73164242  0.73617748  0.39588563  1  0  0.434167  0  0.865079  0  0  0.400626  0  0.931857  0  0  0.411823  0  0.915689  0  0  0.29059  0.392643  0  0.943364  0
H  H11  1  0.26835278  0.26382293  0.60411511  1  0  0.434203  0  0.86504  0  0  0.40064  0  0.931848  0  0  0.411835  0  0.915682  0  0  0.290599  0.392661  0  0.943345  0
Pb  Pb12  1  0.28909119  0.84744935  0.57601151  1  0  1.435445  0  1.325431  0  0  1.253456  0  1.721367  0  0  1.316285  0  1.67217  0  0  0.648012  1.207406  0  1.756186  0
Pb  Pb13  1  0.71090522  0.15255499  0.42398923  1  0  1.435444  0  1.325394  0  0  1.253456  0  1.721327  0  0  1.316283  0  1.67213  0  0  0.64802  1.207402  0  1.756143  0
C  C14  1  0.71750105  0.88228170  0.67395629  1  0  0.710309  0  3.893798  0  0  0.654748  0  4.191878  0  0  0.691986  0  4.180649  0  0  0.222355  0.6293  0  4.198581  0
C  C15  1  0.28250013  0.11772129  0.32604283  1  0  0.710372  0  3.893798  0  0  0.654732  0  4.191959  0  0  0.691972  0  4.18073  0  0  0.222351  0.629286  0  4.198661  0
C  C16  1  0.70321192  0.76474491  0.80186622  1  0  -0.19108  0  3.744643  0  0  -0.196851  0  4.013916  0  0  -0.200565  0  4.025079  0  0  -0.01948  -0.194525  0  4.006853  0
C  C17  1  0.29678978  0.23525681  0.19813492  1  0  -0.191029  0  3.744698  0  0  -0.19669  0  4.013886  0  0  -0.200407  0  4.025056  0  0  -0.0195  -0.194364  0  4.006811  0
C  C18  1  0.84454758  0.59666191  0.81396070  1  0  0.193504  0  3.786548  0  0  0.160622  0  4.085474  0  0  0.169384  0  4.093431  0  0  0.089019  0.154216  0  4.08089  0
C  C19  1  0.15545747  0.40333849  0.18604003  1  0  0.193551  0  3.786628  0  0  0.160624  0  4.085548  0  0  0.169387  0  4.093505  0  0  0.089088  0.154221  0  4.080957  0
C  C20  1  0.83525410  0.48375603  0.92955592  1  0  0.201401  0  3.776134  0  0  0.166882  0  4.081238  0  0  0.17645  0  4.090203  0  0  0.089414  0.160032  0  4.075776  0
C  C21  1  0.16475150  0.51624302  0.07044306  1  0  0.201313  0  3.776171  0  0  0.166833  0  4.081288  0  0  0.176402  0  4.090251  0  0  0.08939  0.159984  0  4.075822  0
C  C22  1  0.68461803  0.53659897  0.04234845  1  0  -0.225679  0  3.739063  0  0  -0.233438  0  4.015399  0  0  -0.241014  0  4.032936  0  0  -0.034083  -0.228471  0  4.003907  0
C  C23  1  0.31538809  0.46339880  0.95765161  1  0  -0.225576  0  3.739082  0  0  -0.233421  0  4.015497  0  0  -0.240995  0  4.033037  0  0  -0.034051  -0.228456  0  4.004004  0
C  C24  1  0.54127343  0.70592770  0.02878487  1  0  0.209655  0  3.759526  0  0  0.171867  0  4.066092  0  0  0.182008  0  4.073664  0  0  0.093747  0.164647  0  4.061507  0
C  C25  1  0.45873357  0.29407140  0.97121571  1  0  0.209695  0  3.759516  0  0  0.171954  0  4.066094  0  0  0.182095  0  4.073666  0  0  0.093798  0.164732  0  4.061507  0
C  C26  1  0.54862946  0.81619574  0.91125956  1  0  0.213245  0  3.787566  0  0  0.174275  0  4.097065  0  0  0.18417  0  4.103666  0  0  0.095347  0.16712  0  4.09319  0
C  C27  1  0.45137101  0.18380211  0.08874345  1  0  0.213182  0  3.787633  0  0  0.174152  0  4.097146  0  0  0.184046  0  4.103751  0  0  0.095309  0.166999  0  4.093268  0
C  C28  1  0.68027200  0.41690943  0.17001432  1  0  0.675182  0  3.925612  0  0  0.622662  0  4.22908  0  0  0.655893  0  4.223424  0  0  0.206418  0.600177  0  4.232029  0
C  C29  1  0.31973628  0.58308302  0.82998252  1  0  0.675121  0  3.92557  0  0  0.622643  0  4.229034  0  0  0.655867  0  4.223388  0  0  0.206389  0.600159  0  4.231984  0
O  O30  1  0.87448841  0.91975746  0.62912955  1  0  -0.660438  0  1.964995  0  0  -0.597911  0  2.201334  0  0  -0.629895  0  2.193935  0  0  -0.288214  -0.574829  0  2.205617  0
O  O31  1  0.12551190  0.08024420  0.37086904  1  0  -0.660462  0  1.964898  0  0  -0.597932  0  2.201293  0  0  -0.629918  0  2.193892  0  0  -0.288199  -0.574851  0  2.205575  0
O  O32  1  0.56800363  0.93811265  0.61887431  1  0  -0.665158  0  2.017443  0  0  -0.591797  0  2.255525  0  0  -0.62527  0  2.248112  0  0  -0.283227  -0.567975  0  2.259843  0
O  O33  1  0.43199349  0.06188650  0.38112817  1  0  -0.665244  0  2.017533  0  0  -0.591837  0  2.255619  0  0  -0.625301  0  2.248184  0  0  -0.283247  -0.568018  0  2.259942  0
O  O34  1  0.10778382  0.15268733  0.66922788  1  0  -0.838147  0  1.871325  0  0  -0.768843  0  2.061295  0  0  -0.792236  0  2.032746  0  0  -0.538656  -0.752163  0  2.081004  0
O  O35  1  0.89221312  0.84731570  0.33077300  1  0  -0.838199  0  1.871245  0  0  -0.768918  0  2.061218  0  0  -0.792311  0  2.032668  0  0  -0.538703  -0.752235  0  2.080932  0
O  O36  1  0.22257254  0.65042863  0.41659506  1  0  -0.847682  0  1.870694  0  0  -0.783985  0  2.045481  0  0  -0.807961  0  2.014816  0  0  -0.560742  -0.76704  0  2.066987  0
O  O37  1  0.77742547  0.34957179  0.58340608  1  0  -0.847688  0  1.870696  0  0  -0.783984  0  2.04548  0  0  -0.807961  0  2.014812  0  0  -0.560738  -0.767039  0  2.066987  0
O  O38  1  0.64794838  0.66245797  0.43838905  1  0  -0.86416  0  1.890943  0  0  -0.796181  0  2.070497  0  0  -0.821457  0  2.039788  0  0  -0.562004  -0.778086  0  2.091905  0
O  O39  1  0.35204540  0.33754244  0.56161197  1  0  -0.864095  0  1.890979  0  0  -0.796088  0  2.070555  0  0  -0.821366  0  2.039848  0  0  -0.561963  -0.777984  0  2.091931  0
O  O40  1  0.76658264  0.25505625  0.16558266  1  0  -0.61144  0  1.952878  0  0  -0.566378  0  2.184  0  0  -0.59244  0  2.176623  0  0  -0.298791  -0.548053  0  2.188457  0
O  O41  1  0.23341678  0.74494417  0.83441821  1  0  -0.61146  0  1.952679  0  0  -0.566395  0  2.183759  0  0  -0.592465  0  2.176409  0  0  -0.298806  -0.548067  0  2.188214  0
O  O42  1  0.58982104  0.48705236  0.27749808  1  0  -0.707676  0  2.068509  0  0  -0.640838  0  2.298209  0  0  -0.66894  0  2.288623  0  0  -0.320195  -0.621022  0  2.304232  0
O  O43  1  0.41017839  0.51294799  0.72250092  1  0  -0.707643  0  2.068722  0  0  -0.640807  0  2.298412  0  0  -0.668906  0  2.288827  0  0  -0.320178  -0.620993  0  2.304437  0
F  F44  1  0.99439368  0.53935117  0.70869042  1  0  -0.158064  0  1.274729  0  0  -0.109054  0  1.453661  0  0  -0.117512  0  1.443913  0  0  -0.076158  -0.103098  0  1.460605  0
F  F45  1  0.00560980  0.46065305  0.29130616  1  0  -0.158074  0  1.274774  0  0  -0.109059  0  1.453723  0  0  -0.117516  0  1.443974  0  0  -0.076171  -0.103103  0  1.460664  0
F  F46  1  0.98036596  0.32248173  0.92969848  1  0  -0.155157  0  1.25201  0  0  -0.110871  0  1.426072  0  0  -0.119113  0  1.416125  0  0  -0.080519  -0.104915  0  1.432957  0
F  F47  1  0.01963543  0.67751726  0.07029851  1  0  -0.155141  0  1.251979  0  0  -0.110858  0  1.426028  0  0  -0.119101  0  1.416082  0  0  -0.08053  -0.104902  0  1.432913  0
F  F48  1  0.38403209  0.76733046  0.12933537  1  0  -0.162762  0  1.250255  0  0  -0.10457  0  1.407663  0  0  -0.112446  0  1.397066  0  0  -0.081038  -0.098918  0  1.415046  0
F  F49  1  0.61597315  0.23266604  0.87066602  1  0  -0.162787  0  1.250208  0  0  -0.104605  0  1.407609  0  0  -0.112482  0  1.397013  0  0  -0.081058  -0.098953  0  1.414993  0
F  F50  1  0.40336530  0.97625530  0.90510822  1  0  -0.148225  0  1.239789  0  0  -0.105878  0  1.413262  0  0  -0.113784  0  1.402752  0  0  -0.081423  -0.100189  0  1.420561  0
F  F51  1  0.59663290  0.02374118  0.09489265  1  0  -0.148203  0  1.239816  0  0  -0.105844  0  1.413308  0  0  -0.113751  0  1.402799  0  0  -0.081408  -0.100155  0  1.420608  0
