# generated using pymatgen
data_KH19(C5O2)4
_symmetry_space_group_name_H-M   'P 1'
_cell_length_a   7.32536579
_cell_length_b   10.84020798
_cell_length_c   13.22469638
_cell_angle_alpha   102.56177207
_cell_angle_beta   106.07364119
_cell_angle_gamma   89.93552962
_symmetry_Int_Tables_number   1
_chemical_formula_structural   KH19(C5O2)4
_chemical_formula_sum   'K2 H38 C40 O16'
_cell_volume   982.98654928
_cell_formula_units_Z   2
loop_
 _symmetry_equiv_pos_site_id
 _symmetry_equiv_pos_as_xyz
  1  'x, y, z'
loop_
 _atom_site_type_symbol
 _atom_site_label
 _atom_site_symmetry_multiplicity
 _atom_site_fract_x
 _atom_site_fract_y
 _atom_site_fract_z
 _atom_site_occupancy
 _atom_site_hle17_bader_spin_density
 _atom_site_hle17_ddec_charge
 _atom_site_hle17_ddec_spin_density
 _atom_site_hle17_ddec_sum_bond_order
 _atom_site_hle17_magmom
 _atom_site_hse06_10hf_bader_spin_density
 _atom_site_hse06_10hf_ddec_charge
 _atom_site_hse06_10hf_ddec_spin_density
 _atom_site_hse06_10hf_ddec_sum_bond_order
 _atom_site_hse06_10hf_magmom
 _atom_site_hse06_bader_spin_density
 _atom_site_hse06_ddec_charge
 _atom_site_hse06_ddec_spin_density
 _atom_site_hse06_ddec_sum_bond_order
 _atom_site_hse06_magmom
 _atom_site_pbe_bader_spin_density
 _atom_site_pbe_cm5_charge
 _atom_site_pbe_ddec_charge
 _atom_site_pbe_ddec_spin_density
 _atom_site_pbe_ddec_sum_bond_order
 _atom_site_pbe_magmom
K  K0  1  0.27395023  0.75033598  0.00024723  1  0  0.921188  0  0.48249  0  0  0.877309  0  0.66271  0  0  0.892083  0  0.639891  0  0  0.792048  0.865963  0  0.679455  0
K  K1  1  0.72603146  0.24966442  0.99975599  1  0  0.921206  0  0.482475  0  0  0.877372  0  0.66265  0  0  0.892139  0  0.63984  0  0  0.791994  0.86599  0  0.679426  0
H  H2  1  0.49999508  0.50001532  0.00000182  1  0  0.386603  0  0.919572  0  0  0.353268  0  1.002751  0  0  0.3681  0  0.988591  0  0  0.288241  0.342967  0  1.012423  0
H  H3  1  0.49999713  0.00000528  0.99999750  1  0  0.387016  0  0.919337  0  0  0.354286  0  1.001244  0  0  0.36912  0  0.987028  0  0  0.288654  0.343977  0  1.010966  0
H  H4  1  0.51098742  0.71748452  0.52113156  1  0  0.087784  0  0.961007  0  0  0.099235  0  1.02387  0  0  0.101885  0  1.02243  0  0  0.099657  0.097332  0  1.024917  0
H  H5  1  0.98978633  0.78298259  0.47904689  1  0  0.0879  0  0.960978  0  0  0.099238  0  1.023935  0  0  0.101908  0  1.022492  0  0  0.099479  0.097328  0  1.024983  0
H  H6  1  0.48902797  0.28252895  0.47887264  1  0  0.087851  0  0.961101  0  0  0.099254  0  1.023996  0  0  0.101901  0  1.022559  0  0  0.099708  0.097356  0  1.025032  0
H  H7  1  0.01021557  0.21702330  0.52095469  1  0  0.087908  0  0.961004  0  0  0.099258  0  1.02394  0  0  0.101927  0  1.0225  0  0  0.099493  0.097345  0  1.024987  0
H  H8  1  0.25533435  0.74138209  0.61376237  1  0  0.084863  0  0.962517  0  0  0.094864  0  1.026936  0  0  0.097722  0  1.025494  0  0  0.098862  0.092771  0  1.028119  0
H  H9  1  0.64228120  0.75844341  0.38582193  1  0  0.085158  0  0.963107  0  0  0.095308  0  1.027034  0  0  0.098171  0  1.025616  0  0  0.099117  0.093254  0  1.028158  0
H  H10  1  0.74464319  0.25862196  0.38624269  1  0  0.084873  0  0.962745  0  0  0.094846  0  1.027178  0  0  0.0977  0  1.025739  0  0  0.098825  0.092755  0  1.028358  0
H  H11  1  0.35773707  0.24155488  0.61417710  1  0  0.085194  0  0.96278  0  0  0.095329  0  1.026764  0  0  0.09821  0  1.025301  0  0  0.099091  0.093216  0  1.027948  0
H  H12  1  0.27494346  0.63697166  0.76530225  1  0  0.097614  0  0.956034  0  0  0.105778  0  1.021541  0  0  0.109057  0  1.019476  0  0  0.108412  0.103366  0  1.023108  0
H  H13  1  0.51010176  0.86283893  0.23458785  1  0  0.09783  0  0.956553  0  0  0.105465  0  1.022569  0  0  0.108862  0  1.020349  0  0  0.108134  0.102995  0  1.024238  0
H  H14  1  0.72507251  0.36301723  0.23470087  1  0  0.097751  0  0.955828  0  0  0.10589  0  1.021349  0  0  0.109185  0  1.019289  0  0  0.108472  0.103478  0  1.022916  0
H  H15  1  0.48990137  0.13716392  0.76539676  1  0  0.097757  0  0.956685  0  0  0.105369  0  1.022703  0  0  0.108766  0  1.020487  0  0  0.108096  0.102897  0  1.024372  0
H  H16  1  0.93946496  0.66731613  0.61092778  1  0  0.114418  0  0.937147  0  0  0.137672  0  0.996776  0  0  0.138903  0  0.996022  0  0  0.096005  0.136756  0  0.997298  0
H  H17  1  0.32839651  0.83232323  0.38910153  1  0  0.114694  0  0.936974  0  0  0.138063  0  0.996518  0  0  0.139272  0  0.995796  0  0  0.095836  0.137158  0  0.997035  0
H  H18  1  0.06051012  0.33267656  0.38907572  1  0  0.1145  0  0.937267  0  0  0.137807  0  0.996787  0  0  0.139038  0  0.996037  0  0  0.096027  0.136889  0  0.997311  0
H  H19  1  0.67162716  0.16768736  0.61089892  1  0  0.11466  0  0.936974  0  0  0.138006  0  0.996552  0  0  0.139218  0  0.995821  0  0  0.095785  0.137099  0  0.997066  0
H  H20  1  0.78114214  0.59624334  0.48221339  1  0  0.105256  0  0.958526  0  0  0.127321  0  1.021368  0  0  0.127558  0  1.023151  0  0  0.09107  0.127035  0  1.020226  0
H  H21  1  0.29854155  0.90293842  0.51781646  1  0  0.105083  0  0.95902  0  0  0.127714  0  1.021259  0  0  0.127957  0  1.023018  0  0  0.091226  0.127443  0  1.020118  0
H  H22  1  0.21887270  0.40374828  0.51778095  1  0  0.105268  0  0.958588  0  0  0.127345  0  1.021424  0  0  0.127586  0  1.023205  0  0  0.091047  0.127056  0  1.02029  0
H  H23  1  0.70147602  0.09706737  0.48217769  1  0  0.105111  0  0.958917  0  0  0.127779  0  1.02112  0  0  0.128022  0  1.022878  0  0  0.091236  0.1275  0  1.019983  0
H  H24  1  0.90314217  0.50021543  0.56948628  1  0  0.112915  0  0.956845  0  0  0.131706  0  1.021066  0  0  0.13344  0  1.020662  0  0  0.091945  0.130444  0  1.021279  0
H  H25  1  0.33426338  0.99944571  0.43116155  1  0  0.113334  0  0.95653  0  0  0.132594  0  1.020367  0  0  0.134323  0  1.019962  0  0  0.092194  0.131348  0  1.020567  0
H  H26  1  0.09685405  0.49977538  0.43051866  1  0  0.112919  0  0.956929  0  0  0.13171  0  1.021127  0  0  0.133465  0  1.020699  0  0  0.091926  0.130448  0  1.02134  0
H  H27  1  0.66574992  0.00056010  0.56883422  1  0  0.1134  0  0.956572  0  0  0.132684  0  1.020381  0  0  0.134405  0  1.019983  0  0  0.092247  0.131433  0  1.020587  0
H  H28  1  0.15393844  0.35007834  0.78633460  1  0  0.146461  0  0.950522  0  0  0.164408  0  1.012195  0  0  0.165539  0  1.014057  0  0  0.104181  0.16356  0  1.010988  0
H  H29  1  0.36751731  0.14984932  0.21340320  1  0  0.146624  0  0.9501  0  0  0.164224  0  1.012085  0  0  0.165361  0  1.013924  0  0  0.104185  0.163383  0  1.01087  0
H  H30  1  0.84605254  0.64991718  0.21366882  1  0  0.14641  0  0.950497  0  0  0.164396  0  1.012122  0  0  0.165526  0  1.013982  0  0  0.104177  0.163551  0  1.010911  0
H  H31  1  0.63248718  0.85015373  0.78659829  1  0  0.146714  0  0.950127  0  0  0.164305  0  1.012099  0  0  0.165442  0  1.013935  0  0  0.10423  0.163463  0  1.010884  0
H  H32  1  0.97778263  0.28783962  0.83237559  1  0  0.15582  0  0.947518  0  0  0.168864  0  1.014851  0  0  0.172116  0  1.013107  0  0  0.109491  0.16635  0  1.016475  0
H  H33  1  0.14561684  0.21252990  0.16718756  1  0  0.155419  0  0.947829  0  0  0.169183  0  1.014446  0  0  0.172448  0  1.012688  0  0  0.109621  0.166662  0  1.01606  0
H  H34  1  0.02219510  0.71216630  0.16762754  1  0  0.155769  0  0.947657  0  0  0.168809  0  1.014995  0  0  0.17206  0  1.013252  0  0  0.10949  0.166296  0  1.016619  0
H  H35  1  0.85435898  0.78745519  0.83281249  1  0  0.155426  0  0.947898  0  0  0.169135  0  1.014579  0  0  0.1724  0  1.012821  0  0  0.1096  0.166611  0  1.016192  0
H  H36  1  0.16483390  0.39579496  0.92647811  1  0  0.157903  0  0.934893  0  0  0.176425  0  0.98945  0  0  0.179395  0  0.987958  0  0  0.113812  0.17426  0  0.990598  0
H  H37  1  0.23815187  0.10356010  0.07335179  1  0  0.157849  0  0.934511  0  0  0.176175  0  0.989327  0  0  0.179118  0  0.987851  0  0  0.113956  0.174013  0  0.990473  0
H  H38  1  0.83515964  0.60421283  0.07352400  1  0  0.157969  0  0.934891  0  0  0.176439  0  0.989494  0  0  0.179409  0  0.988002  0  0  0.113792  0.174275  0  0.990642  0
H  H39  1  0.76185387  0.89644102  0.92664655  1  0  0.157907  0  0.934634  0  0  0.176256  0  0.989382  0  0  0.179195  0  0.987911  0  0  0.114019  0.17409  0  0.990527  0
C  C40  1  0.53374006  0.54787837  0.75497525  1  0  -0.153548  0  3.743673  0  0  -0.138587  0  3.987308  0  0  -0.146955  0  4.007557  0  0  -0.017802  -0.133181  0  3.974006  0
C  C41  1  0.77884830  0.95242739  0.24509045  1  0  -0.151813  0  3.743933  0  0  -0.137746  0  3.987868  0  0  -0.146136  0  4.008197  0  0  -0.017595  -0.132328  0  3.9745  0
C  C42  1  0.46627090  0.45213317  0.24502491  1  0  -0.153568  0  3.744036  0  0  -0.13862  0  3.9877  0  0  -0.146989  0  4.007958  0  0  -0.017769  -0.133215  0  3.974388  0
C  C43  1  0.22114397  0.04755107  0.75490874  1  0  -0.152027  0  3.74303  0  0  -0.138104  0  3.987178  0  0  -0.146496  0  4.007505  0  0  -0.017683  -0.132684  0  3.973807  0
C  C44  1  0.67403687  0.53355358  0.69965511  1  0  0.206765  0  3.712267  0  0  0.182617  0  3.972866  0  0  0.192424  0  3.989228  0  0  0.08741  0.175814  0  3.96207  0
C  C45  1  0.97442716  0.96687280  0.30053999  1  0  0.205068  0  3.707086  0  0  0.182382  0  3.966709  0  0  0.192077  0  3.983082  0  0  0.087645  0.175645  0  3.955909  0
C  C46  1  0.32594999  0.46644273  0.30033570  1  0  0.206713  0  3.711867  0  0  0.182591  0  3.972601  0  0  0.192401  0  3.988962  0  0  0.087444  0.175795  0  3.961796  0
C  C47  1  0.02557955  0.03312366  0.69946375  1  0  0.205323  0  3.707775  0  0  0.182579  0  3.967508  0  0  0.192287  0  3.983881  0  0  0.087662  0.175844  0  3.956706  0
C  C48  1  0.67128107  0.59602595  0.61718565  1  0  0.056386  0  3.748718  0  0  0.07869  0  3.99107  0  0  0.07636  0  4.015215  0  0  -0.010351  0.080096  0  3.974809  0
C  C49  1  0.05425596  0.90423892  0.38295913  1  0  0.057618  0  3.746787  0  0  0.079613  0  3.98914  0  0  0.077295  0  4.013301  0  0  -0.010394  0.08102  0  3.972877  0
C  C50  1  0.32870685  0.40396661  0.38280771  1  0  0.056521  0  3.748427  0  0  0.078601  0  3.99109  0  0  0.076268  0  4.015242  0  0  -0.010349  0.08001  0  3.974825  0
C  C51  1  0.94573554  0.09574724  0.61705184  1  0  0.057345  0  3.746798  0  0  0.079341  0  3.989206  0  0  0.077024  0  4.01336  0  0  -0.010492  0.080746  0  3.972942  0
C  C52  1  0.51664537  0.66936362  0.58621451  1  0  -0.101176  0  3.733345  0  0  -0.123477  0  3.981862  0  0  -0.1243  0  4.002425  0  0  -0.087067  -0.122717  0  3.96784  0
C  C53  1  0.93067609  0.83089244  0.41378690  1  0  -0.102169  0  3.73562  0  0  -0.124593  0  3.984362  0  0  -0.125447  0  4.004933  0  0  -0.087495  -0.123838  0  3.970384  0
C  C54  1  0.48332350  0.33063845  0.41378282  1  0  -0.10126  0  3.73332  0  0  -0.123433  0  3.981871  0  0  -0.124252  0  4.002429  0  0  -0.087161  -0.122679  0  3.967856  0
C  C55  1  0.06934112  0.16910962  0.58621110  1  0  -0.102044  0  3.735353  0  0  -0.124451  0  3.984078  0  0  -0.125307  0  4.004652  0  0  -0.087463  -0.123694  0  3.97008  0
C  C56  1  0.37341771  0.68273388  0.63778078  1  0  -0.077411  0  3.797759  0  0  -0.094879  0  4.060335  0  0  -0.097478  0  4.081152  0  0  -0.094234  -0.093183  0  4.046223  0
C  C57  1  0.73610823  0.81730157  0.36204084  1  0  -0.077321  0  3.80074  0  0  -0.094631  0  4.062535  0  0  -0.09727  0  4.083385  0  0  -0.093911  -0.092943  0  4.048455  0
C  C58  1  0.62657746  0.31726066  0.36222009  1  0  -0.077375  0  3.797425  0  0  -0.094832  0  4.059964  0  0  -0.097426  0  4.080775  0  0  -0.094139  -0.09314  0  4.045857  0
C  C59  1  0.26387868  0.18268075  0.63796422  1  0  -0.077563  0  3.801822  0  0  -0.09487  0  4.063582  0  0  -0.097511  0  4.084447  0  0  -0.093985  -0.093134  0  4.049507  0
C  C60  1  0.38351730  0.62377315  0.72270767  1  0  -0.062323  0  3.750136  0  0  -0.090447  0  4.006995  0  0  -0.089645  0  4.026336  0  0  -0.082835  -0.090818  0  3.993928  0
C  C61  1  0.66118424  0.87631837  0.27715597  1  0  -0.062188  0  3.753181  0  0  -0.089787  0  4.00996  0  0  -0.089069  0  4.029356  0  0  -0.081998  -0.090115  0  3.996884  0
C  C62  1  0.61646246  0.37622314  0.27728052  1  0  -0.062434  0  3.750074  0  0  -0.090515  0  4.006889  0  0  -0.089736  0  4.026248  0  0  -0.082881  -0.09088  0  3.993817  0
C  C63  1  0.33882908  0.12368740  0.72283601  1  0  -0.061918  0  3.752855  0  0  -0.089432  0  4.009609  0  0  -0.088713  0  4.029009  0  0  -0.081865  -0.089763  0  3.996517  0
C  C64  1  0.54387630  0.48569451  0.84731477  1  0  0.682108  0  3.859532  0  0  0.634361  0  4.157444  0  0  0.668435  0  4.147479  0  0  0.22028  0.611174  0  4.163662  0
C  C65  1  0.69630057  0.01450450  0.15275976  1  0  0.682302  0  3.860721  0  0  0.634719  0  4.158593  0  0  0.668786  0  4.148624  0  0  0.221318  0.611544  0  4.16479  0
C  C66  1  0.45610728  0.51432836  0.15268384  1  0  0.682013  0  3.859789  0  0  0.63429  0  4.157622  0  0  0.668362  0  4.147654  0  0  0.220185  0.611102  0  4.163847  0
C  C67  1  0.30370933  0.98548069  0.84724936  1  0  0.682213  0  3.860855  0  0  0.634769  0  4.158574  0  0  0.668836  0  4.148605  0  0  0.221272  0.611595  0  4.164766  0
C  C68  1  0.83212043  0.58884645  0.56675261  1  0  -0.322289  0  3.725591  0  0  -0.408008  0  3.965469  0  0  -0.409474  0  3.97574  0  0  -0.239476  -0.406629  0  3.958334  0
C  C69  1  0.26545265  0.91090364  0.43344508  1  0  -0.323397  0  3.725682  0  0  -0.410192  0  3.965687  0  0  -0.411641  0  3.975946  0  0  -0.239651  -0.408835  0  3.958538  0
C  C70  1  0.16787014  0.41114425  0.43324311  1  0  -0.322537  0  3.725742  0  0  -0.408203  0  3.965592  0  0  -0.40969  0  3.975852  0  0  -0.239491  -0.406827  0  3.958453  0
C  C71  1  0.73455931  0.08910313  0.56655215  1  0  -0.32338  0  3.725942  0  0  -0.410205  0  3.965906  0  0  -0.411653  0  3.976181  0  0  -0.239623  -0.408837  0  3.958753  0
C  C72  1  0.95182301  0.48129582  0.82320405  1  0  0.722965  0  3.716362  0  0  0.680234  0  4.018247  0  0  0.713653  0  4.007565  0  0  0.251336  0.657381  0  4.024965  0
C  C73  1  0.12824207  0.01920467  0.17698190  1  0  0.720316  0  3.717187  0  0  0.677609  0  4.019413  0  0  0.71089  0  4.008828  0  0  0.250751  0.654823  0  4.026109  0
C  C74  1  0.04817773  0.51871290  0.17679783  1  0  0.723186  0  3.716282  0  0  0.680553  0  4.018062  0  0  0.713976  0  4.00737  0  0  0.251449  0.657704  0  4.02478  0
C  C75  1  0.87176677  0.98078425  0.82302391  1  0  0.720285  0  3.717123  0  0  0.677719  0  4.01917  0  0  0.710998  0  4.008598  0  0  0.250759  0.654933  0  4.025865  0
C  C76  1  0.06979013  0.37262308  0.84427139  1  0  -0.465428  0  3.646796  0  0  -0.545361  0  3.88306  0  0  -0.552602  0  3.885079  0  0  -0.234411  -0.540216  0  3.881898  0
C  C77  1  0.22539320  0.12738650  0.15559741  1  0  -0.464578  0  3.645214  0  0  -0.544602  0  3.881526  0  0  -0.55181  0  3.883556  0  0  -0.234567  -0.539449  0  3.880344  0
C  C78  1  0.93019837  0.62737618  0.15572925  1  0  -0.465489  0  3.646949  0  0  -0.545413  0  3.883188  0  0  -0.552655  0  3.885207  0  0  -0.234417  -0.540265  0  3.882024  0
C  C79  1  0.77460614  0.87260713  0.84440622  1  0  -0.464684  0  3.645636  0  0  -0.544712  0  3.881842  0  0  -0.551909  0  3.883869  0  0  -0.234602  -0.539549  0  3.880654  0
O  O80  1  0.60915455  0.37950414  0.84759500  1  0  -0.637682  0  1.933745  0  0  -0.598217  0  2.163736  0  0  -0.61987  0  2.154748  0  0  -0.394047  -0.582915  0  2.169441  0
O  O81  1  0.76068439  0.12072511  0.15237113  1  0  -0.638641  0  1.934831  0  0  -0.599152  0  2.164746  0  0  -0.620843  0  2.155839  0  0  -0.395161  -0.583841  0  2.170433  0
O  O82  1  0.39089468  0.62052277  0.15242731  1  0  -0.637565  0  1.934232  0  0  -0.598108  0  2.164225  0  0  -0.619745  0  2.155209  0  0  -0.39399  -0.582837  0  2.169994  0
O  O83  1  0.23935047  0.87925231  0.84762162  1  0  -0.638395  0  1.935129  0  0  -0.598917  0  2.164929  0  0  -0.620608  0  2.156027  0  0  -0.395025  -0.583616  0  2.170611  0
O  O84  1  0.48025966  0.55150221  0.92436024  1  0  -0.638797  0  2.062318  0  0  -0.585421  0  2.292012  0  0  -0.610978  0  2.279991  0  0  -0.375122  -0.567423  0  2.299645  0
O  O85  1  0.55593922  0.94864473  0.07573671  1  0  -0.639136  0  2.063069  0  0  -0.585962  0  2.292133  0  0  -0.611548  0  2.280183  0  0  -0.375912  -0.567957  0  2.299761  0
O  O86  1  0.51974861  0.44852634  0.07564089  1  0  -0.638919  0  2.062118  0  0  -0.585552  0  2.291782  0  0  -0.611107  0  2.279757  0  0  -0.375208  -0.567552  0  2.299431  0
O  O87  1  0.44405955  0.05135842  0.92427223  1  0  -0.639088  0  2.063072  0  0  -0.585967  0  2.292081  0  0  -0.611551  0  2.28013  0  0  -0.375901  -0.567962  0  2.299711  0
O  O88  1  0.81984591  0.45158467  0.72359846  1  0  -0.348439  0  2.311796  0  0  -0.275225  0  2.537597  0  0  -0.296827  0  2.536145  0  0  -0.145103  -0.260078  0  2.538135  0
O  O89  1  0.09606927  0.04898123  0.27665204  1  0  -0.3469  0  2.306634  0  0  -0.274534  0  2.532405  0  0  -0.295845  0  2.530809  0  0  -0.145255  -0.259553  0  2.533015  0
O  O90  1  0.18014505  0.54840973  0.27639039  1  0  -0.348355  0  2.312013  0  0  -0.275169  0  2.537788  0  0  -0.296775  0  2.536338  0  0  -0.145109  -0.260031  0  2.538334  0
O  O91  1  0.90393002  0.95101133  0.72334081  1  0  -0.347002  0  2.306518  0  0  -0.274642  0  2.532247  0  0  -0.295981  0  2.530675  0  0  -0.145269  -0.259672  0  2.532869  0
O  O92  1  0.96682092  0.58626450  0.88340596  1  0  -0.577782  0  1.936377  0  0  -0.537654  0  2.150799  0  0  -0.55826  0  2.142931  0  0  -0.33181  -0.523456  0  2.156168  0
O  O93  1  0.08259525  0.91430485  0.11674804  1  0  -0.577445  0  1.936625  0  0  -0.537111  0  2.150773  0  0  -0.557691  0  2.142976  0  0  -0.332214  -0.522909  0  2.156084  0
O  O94  1  0.03316216  0.41373759  0.11659356  1  0  -0.577989  0  1.935979  0  0  -0.537903  0  2.15035  0  0  -0.558513  0  2.142478  0  0  -0.331876  -0.523695  0  2.155717  0
O  O95  1  0.91741344  0.08568212  0.88325212  1  0  -0.577394  0  1.936577  0  0  -0.537126  0  2.150654  0  0  -0.557699  0  2.142858  0  0  -0.33218  -0.522923  0  2.155965  0
