# generated using pymatgen
data_ZnH12C22N3O10
_symmetry_space_group_name_H-M   'P 1'
_cell_length_a   14.17804288
_cell_length_b   15.18894087
_cell_length_c   19.29519461
_cell_angle_alpha   92.35091543
_cell_angle_beta   90.88234588
_cell_angle_gamma   89.97016436
_symmetry_Int_Tables_number   1
_chemical_formula_structural   ZnH12C22N3O10
_chemical_formula_sum   'Zn2 H24 C44 N6 O20'
_cell_volume   4151.22004324
_cell_formula_units_Z   2
loop_
 _symmetry_equiv_pos_site_id
 _symmetry_equiv_pos_as_xyz
  1  'x, y, z'
loop_
 _atom_site_type_symbol
 _atom_site_label
 _atom_site_symmetry_multiplicity
 _atom_site_fract_x
 _atom_site_fract_y
 _atom_site_fract_z
 _atom_site_occupancy
 _atom_site_pbe_bader_charge
 _atom_site_pbe_bader_spin_density
 _atom_site_pbe_cm5_charge
 _atom_site_pbe_ddec_charge
 _atom_site_pbe_ddec_spin_density
 _atom_site_pbe_ddec_sum_bond_order
 _atom_site_pbe_magmom
Zn  Zn0  1  0.39114811  0.49567153  0.50177291  1  1.274751  0  0.681335  0.843558  0  2.378279  0
Zn  Zn1  1  0.60389407  0.49639428  0.50142185  1  1.276684  0  0.684259  0.853348  0  2.35294  0
H  H2  1  0.36012897  0.45675001  0.85006851  1  0.132625  0  0.120979  0.126682  0  0.986278  0
H  H3  1  0.58045912  0.40135896  0.14526723  1  0.142878  0  0.121093  0.124703  0  0.988102  0
H  H4  1  0.40042063  0.63143307  0.16086884  1  0.153401  0  0.121588  0.124515  0  0.989787  0
H  H5  1  0.64586333  0.55673594  0.85118885  1  0.13665  0  0.120633  0.124454  0  0.993164  0
H  H6  1  0.37145950  0.78274473  0.56038220  1  0.120648  0  0.116958  0.147765  0  0.971826  0
H  H7  1  0.63225263  0.22377736  0.54797939  1  0.110386  0  0.115962  0.144644  0  0.977243  0
H  H8  1  0.36815369  0.21393434  0.43120635  1  0.124633  0  0.116527  0.14734  0  0.972882  0
H  H9  1  0.62864805  0.76283046  0.44169802  1  0.10677  0  0.115593  0.144817  0  0.977112  0
H  H10  1  0.93065221  0.63651719  0.53814803  1  0.106482  0  0.118604  0.151543  0  0.978887  0
H  H11  1  0.06093332  0.43216101  0.40196366  1  0.08951  0  0.118575  0.151459  0  0.9798  0
H  H12  1  0.93172508  0.36096512  0.46946209  1  0.106585  0  0.11878  0.151749  0  0.979572  0
H  H13  1  0.06795039  0.56764334  0.60441940  1  0.094632  0  0.122277  0.157038  0  0.972238  0
H  H14  1  0.35722984  0.38884812  0.66315274  1  0.092225  0  0.103487  0.047775  0  0.971927  0
H  H15  1  0.58340224  0.36470078  0.33707387  1  0.064916  0  0.099898  0.044265  0  0.987765  0
H  H16  1  0.39949472  0.64086537  0.35639744  1  0.037498  0  0.100871  0.047881  0  0.990487  0
H  H17  1  0.65571066  0.59237928  0.66493505  1  0.080323  0  0.1011  0.043554  0  0.987946  0
H  H18  1  0.37755996  0.01586042  0.55997087  1  0.589412  0  0.326518  0.35797  0  0.896049  0
H  H19  1  0.63641923  0.99185336  0.55795389  1  0.585502  0  0.327459  0.35949  0  0.89415  0
H  H20  1  0.37534993  0.98061220  0.41773025  1  0.59945  0  0.330634  0.363426  0  0.884372  0
H  H21  1  0.63022504  0.99269483  0.41815755  1  0.622732  0  0.330471  0.36209  0  0.886148  0
H  H22  1  0.68203757  0.64487439  0.53210984  1  0.640631  0  0.30539  0.358628  0  0.991361  0
H  H23  1  0.30750218  0.44509706  0.38890004  1  0.653735  0  0.309489  0.367759  0  0.970672  0
H  H24  1  0.68321246  0.35048760  0.46979818  1  0.648961  0  0.306807  0.361906  0  0.98433  0
H  H25  1  0.31541656  0.55633849  0.61266685  1  0.66827  0  0.310993  0.367704  0  0.967809  0
C  C26  1  0.49596406  0.66602106  0.50573527  1  1.530186  0  0.232265  0.618418  0  4.115233  0
C  C27  1  0.49558294  0.32628743  0.49251736  1  1.589799  0  0.23244  0.618313  0  4.113552  0
C  C28  1  0.49993096  0.76375169  0.50185336  1  0.012618  0  -0.01459  0.010442  0  4.046943  0
C  C29  1  0.49973009  0.22808020  0.48978815  1  -0.076398  0  -0.014572  0.011208  0  4.043229  0
C  C30  1  0.50301808  0.94682358  0.49219398  1  0.001836  0  -0.058689  -0.239117  0  4.14981  0
C  C31  1  0.50422241  0.04404125  0.48869078  1  -0.049949  0  -0.058302  -0.240548  0  4.153465  0
C  C32  1  0.89580273  0.57470246  0.52338455  1  0.138613  0  -0.108077  -0.328785  0  3.921935  0
C  C33  1  0.09786792  0.46086397  0.44722574  1  0.138305  0  -0.108242  -0.331337  0  3.9238  0
C  C34  1  0.89630969  0.42244503  0.48362959  1  0.144307  0  -0.110251  -0.332256  0  3.924868  0
C  C35  1  0.10165775  0.53875477  0.55863150  1  0.083634  0  -0.105697  -0.326806  0  3.910616  0
C  C36  1  0.79739977  0.57256058  0.52114708  1  0.986855  0  0.214932  0.508529  0  4.072096  0
C  C37  1  0.19620056  0.46327953  0.44744270  1  1.005016  0  0.213806  0.505383  0  4.078952  0
C  C38  1  0.79791233  0.42369868  0.48411159  1  0.98356  0  0.213882  0.506761  0  4.076138  0
C  C39  1  0.19999941  0.53654859  0.55662781  1  1.041995  0  0.216581  0.506745  0  4.069528  0
C  C40  1  0.94580959  0.49887541  0.50376502  1  -0.07119  0  0.015235  0.156221  0  4.040837  0
C  C41  1  0.05008308  0.49946876  0.50344560  1  -0.074193  0  0.01642  0.158236  0  4.032554  0
C  C42  1  0.50186784  0.49257038  0.63624223  1  1.576669  0  0.226029  0.600962  0  4.165945  0
C  C43  1  0.49406707  0.50224360  0.36663721  1  1.607721  0  0.224802  0.589971  0  4.214305  0
C  C44  1  0.42388757  0.46668528  0.75062108  1  -0.025195  0  -0.009134  0.007736  0  3.956015  0
C  C45  1  0.53964662  0.44326577  0.24792024  1  -0.018922  0  -0.012029  -0.00435  0  3.97211  0
C  C46  1  0.44038605  0.57432267  0.25700368  1  0.002642  0  -0.012821  -0.005748  0  3.971743  0
C  C47  1  0.58302830  0.52782320  0.75085616  1  -9.7e-05  0  -0.00549  0.013786  0  3.948064  0
C  C48  1  0.42285681  0.47730171  0.82293871  1  -0.005276  0  -0.050175  -0.093966  0  3.870016  0
C  C49  1  0.54059639  0.45004225  0.17591145  1  0.044989  0  -0.046517  -0.081293  0  3.86433  0
C  C50  1  0.43945854  0.57830037  0.18463303  1  -0.020131  0  -0.045503  -0.078383  0  3.855137  0
C  C51  1  0.58293518  0.53264823  0.82332785  1  -0.065775  0  -0.050138  -0.095408  0  3.866983  0
C  C52  1  0.50203807  0.51028831  0.85944548  1  0.050207  0  0.006495  0.025733  0  4.003792  0
C  C53  1  0.49073312  0.51728320  0.14406191  1  -0.035721  0  0.004682  0.015123  0  4.010655  0
C  C54  1  0.50287754  0.49530884  0.71394508  1  0.055186  0  0.007721  -0.075333  0  3.887424  0
C  C55  1  0.49061067  0.50646810  0.28886191  1  -0.090557  0  0.015388  -0.052556  0  3.881077  0
C  C56  1  0.49527497  0.52440942  0.06840404  1  0.993985  0  0.249054  0.252187  0  3.984729  0
C  C57  1  0.50097380  0.52099886  0.93553493  1  0.944706  0  0.249064  0.254465  0  3.975168  0
C  C58  1  0.43197949  0.90535211  0.53016152  1  0.483917  0  0.081428  0.289805  0  4.118684  0
C  C59  1  0.57598548  0.09453060  0.52316205  1  0.47887  0  0.080637  0.289143  0  4.122085  0
C  C60  1  0.43109993  0.08872103  0.45365064  1  0.40744  0  0.08035  0.28608  0  4.123543  0
C  C61  1  0.57263772  0.89356625  0.45949542  1  0.445084  0  0.080093  0.285837  0  4.124205  0
C  C62  1  0.42827283  0.81380511  0.53296664  1  0.024168  0  -0.108145  -0.244758  0  3.950551  0
C  C63  1  0.57569823  0.18635299  0.52182517  1  0.00426  0  -0.110502  -0.247006  0  3.947389  0
C  C64  1  0.42673325  0.18063110  0.45619582  1  0.090072  0  -0.108794  -0.247549  0  3.951496  0
C  C65  1  0.57333623  0.80230691  0.46620140  1  -0.00276  0  -0.111153  -0.250566  0  3.952131  0
C  C66  1  0.34362346  0.41759194  0.71602106  1  0.917394  0  0.098782  0.269795  0  3.959394  0
C  C67  1  0.58870055  0.36782889  0.27965702  1  0.942101  0  0.100777  0.275454  0  3.947005  0
C  C68  1  0.39264588  0.64505556  0.29903570  1  0.989095  0  0.098103  0.270418  0  3.948455  0
C  C69  1  0.66794856  0.56312338  0.71615591  1  0.956192  0  0.102163  0.281285  0  3.942986  0
N  N70  1  0.58243744  0.50594120  0.97035466  1  -0.571425  0  -0.146707  -0.134259  0  3.184359  0
N  N71  1  0.41823265  0.55308992  0.03404518  1  -0.595468  0  -0.148436  -0.135786  0  3.177246  0
N  N72  1  0.57961230  0.50722044  0.03863759  1  -0.510416  0  -0.150241  -0.141625  0  3.178947  0
N  N73  1  0.42079921  0.55094371  0.96555895  1  -0.501926  0  -0.151044  -0.143621  0  3.166755  0
N  N74  1  0.74809245  0.49792050  0.50214005  1  -1.246688  0  -0.3575  -0.48442  0  3.403097  0
N  N75  1  0.24729774  0.49931877  0.50185635  1  -1.242969  0  -0.358209  -0.481181  0  3.422383  0
O  O76  1  0.41816258  0.62819408  0.49218825  1  -1.159479  0  -0.299606  -0.524803  0  2.323438  0
O  O77  1  0.57179900  0.36757894  0.47834923  1  -1.185043  0  -0.310415  -0.570958  0  2.437256  0
O  O78  1  0.41848593  0.36315661  0.50822607  1  -1.15713  0  -0.302354  -0.52302  0  2.305891  0
O  O79  1  0.57238943  0.62580974  0.52261491  1  -1.185096  0  -0.311794  -0.567923  0  2.431565  0
O  O80  1  0.42456588  0.51497540  0.60617169  1  -1.182796  0  -0.306495  -0.570672  0  2.426983  0
O  O81  1  0.57081989  0.52259770  0.39704700  1  -1.151588  0  -0.30101  -0.522903  0  2.287014  0
O  O82  1  0.41863714  0.47816601  0.39620403  1  -1.183908  0  -0.305505  -0.562967  0  2.41517  0
O  O83  1  0.57654597  0.47011779  0.60526914  1  -1.156121  0  -0.298787  -0.52501  0  2.308482  0
O  O84  1  0.26846201  0.40549315  0.74432238  1  -1.056244  0  -0.259485  -0.339492  0  2.084616  0
O  O85  1  0.63168249  0.31125226  0.24608124  1  -1.051628  0  -0.261315  -0.342993  0  2.078519  0
O  O86  1  0.34919316  0.70577857  0.27364108  1  -1.064314  0  -0.262801  -0.344595  0  2.077946  0
O  O87  1  0.74636688  0.56332940  0.74331755  1  -1.069801  0  -0.258841  -0.339645  0  2.078149  0
O  O88  1  0.36507853  0.95303928  0.56488375  1  -1.103906  0  -0.347253  -0.420736  0  2.241532  0
O  O89  1  0.64690258  0.05561056  0.55917422  1  -1.099238  0  -0.348643  -0.423317  0  2.240291  0
O  O90  1  0.36202889  0.04384867  0.41736040  1  -1.113381  0  -0.346671  -0.421725  0  2.238119  0
O  O91  1  0.64133728  0.92928879  0.42077649  1  -1.136913  0  -0.347985  -0.422546  0  2.237221  0
O  O92  1  0.75250338  0.64738592  0.53841232  1  -1.161437  0  -0.345081  -0.470146  0  2.269515  0
O  O93  1  0.23969011  0.42842520  0.39166994  1  -1.165228  0  -0.346043  -0.465208  0  2.246313  0
O  O94  1  0.75364170  0.34847163  0.46592853  1  -1.164728  0  -0.343544  -0.465956  0  2.261709  0
O  O95  1  0.24755437  0.57309467  0.61091884  1  -1.178677  0  -0.342824  -0.462825  0  2.251101  0
