# generated using pymatgen
data_NaH16C12N
_symmetry_space_group_name_H-M   'P 1'
_cell_length_a   8.81555516
_cell_length_b   11.28030489
_cell_length_c   11.40446594
_cell_angle_alpha   90.00007847
_cell_angle_beta   102.73302729
_cell_angle_gamma   89.99992580
_symmetry_Int_Tables_number   1
_chemical_formula_structural   NaH16C12N
_chemical_formula_sum   'Na4 H64 C48 N4'
_cell_volume   1106.19481212
_cell_formula_units_Z   4
loop_
 _symmetry_equiv_pos_site_id
 _symmetry_equiv_pos_as_xyz
  1  'x, y, z'
loop_
 _atom_site_type_symbol
 _atom_site_label
 _atom_site_symmetry_multiplicity
 _atom_site_fract_x
 _atom_site_fract_y
 _atom_site_fract_z
 _atom_site_occupancy
 _atom_site_hle17_bader_spin_density
 _atom_site_hle17_ddec_charge
 _atom_site_hle17_ddec_spin_density
 _atom_site_hle17_ddec_sum_bond_order
 _atom_site_hle17_magmom
 _atom_site_hse06_10hf_bader_spin_density
 _atom_site_hse06_10hf_ddec_charge
 _atom_site_hse06_10hf_ddec_spin_density
 _atom_site_hse06_10hf_ddec_sum_bond_order
 _atom_site_hse06_10hf_magmom
 _atom_site_hse06_bader_spin_density
 _atom_site_hse06_ddec_charge
 _atom_site_hse06_ddec_spin_density
 _atom_site_hse06_ddec_sum_bond_order
 _atom_site_hse06_magmom
 _atom_site_pbe_bader_spin_density
 _atom_site_pbe_cm5_charge
 _atom_site_pbe_ddec_charge
 _atom_site_pbe_ddec_spin_density
 _atom_site_pbe_ddec_sum_bond_order
 _atom_site_pbe_magmom
Na  Na0  1  0.13709319  0.07883589  0.47479301  1  0  0.853068  0  0.398568  0  0  0.787924  0  0.553437  0  0  0.797656  0  0.539423  0  0  0.598413  0.778455  0  0.566996  0
Na  Na1  1  0.36290759  0.57883648  0.52520667  1  0  0.853073  0  0.39857  0  0  0.787942  0  0.553435  0  0  0.797675  0  0.539416  0  0  0.598409  0.778465  0  0.566989  0
Na  Na2  1  0.86290663  0.92116386  0.52520724  1  0  0.85307  0  0.398567  0  0  0.787927  0  0.553434  0  0  0.79766  0  0.539417  0  0  0.598407  0.778458  0  0.566994  0
Na  Na3  1  0.63709339  0.42116327  0.47479378  1  0  0.853063  0  0.398584  0  0  0.787934  0  0.553443  0  0  0.797666  0  0.539424  0  0  0.598407  0.778461  0  0.566999  0
H  H4  1  0.00040906  0.23318936  0.90714393  1  0  0.083279  0  0.961834  0  0  0.103897  0  1.028888  0  0  0.104711  0  1.029461  0  0  0.079176  0.103272  0  1.028535  0
H  H5  1  0.49958918  0.73318833  0.09285727  1  0  0.083283  0  0.961797  0  0  0.103903  0  1.02885  0  0  0.104716  0  1.029422  0  0  0.079163  0.103272  0  1.028502  0
H  H6  1  0.99959076  0.76681128  0.09285544  1  0  0.083275  0  0.961838  0  0  0.103897  0  1.028887  0  0  0.104711  0  1.02946  0  0  0.079177  0.103269  0  1.028534  0
H  H7  1  0.50041063  0.26681054  0.90714385  1  0  0.083274  0  0.961817  0  0  0.103895  0  1.028864  0  0  0.10471  0  1.029436  0  0  0.079159  0.103265  0  1.028519  0
H  H8  1  0.17496323  0.16888071  0.88270076  1  0  0.084767  0  0.973537  0  0  0.1026  0  1.044406  0  0  0.103664  0  1.044858  0  0  0.079307  0.101828  0  1.044141  0
H  H9  1  0.32503626  0.66888077  0.11730057  1  0  0.084742  0  0.973547  0  0  0.102593  0  1.044391  0  0  0.103657  0  1.044843  0  0  0.07931  0.10182  0  1.044123  0
H  H10  1  0.82503775  0.83111816  0.11729969  1  0  0.084763  0  0.973537  0  0  0.102593  0  1.04441  0  0  0.103658  0  1.044862  0  0  0.079304  0.101818  0  1.044145  0
H  H11  1  0.67496240  0.33111898  0.88269860  1  0  0.084751  0  0.973562  0  0  0.102588  0  1.044418  0  0  0.103651  0  1.044869  0  0  0.079302  0.101812  0  1.044153  0
H  H12  1  0.05776018  0.08961967  0.96381114  1  0  0.092305  0  0.966236  0  0  0.114838  0  1.028409  0  0  0.115687  0  1.02951  0  0  0.083001  0.114179  0  1.027672  0
H  H13  1  0.44223942  0.58961862  0.03618923  1  0  0.092284  0  0.966201  0  0  0.114812  0  1.02839  0  0  0.115661  0  1.02949  0  0  0.08299  0.114154  0  1.027649  0
H  H14  1  0.94223964  0.91038097  0.03618824  1  0  0.092293  0  0.966231  0  0  0.114828  0  1.028407  0  0  0.115677  0  1.029507  0  0  0.082998  0.114167  0  1.027671  0
H  H15  1  0.55776156  0.41038025  0.96381122  1  0  0.092303  0  0.96624  0  0  0.114834  0  1.028413  0  0  0.115682  0  1.029513  0  0  0.083005  0.114176  0  1.027673  0
H  H16  1  0.02790496  0.01661619  0.75036694  1  0  0.019811  0  0.961363  0  0  0.03581  0  1.023885  0  0  0.035176  0  1.026626  0  0  0.087566  0.03648  0  1.021768  0
H  H17  1  0.47209240  0.51661540  0.24963381  1  0  0.019798  0  0.961384  0  0  0.035787  0  1.023894  0  0  0.035153  0  1.026638  0  0  0.087562  0.036457  0  1.021778  0
H  H18  1  0.97209369  0.98338356  0.24963398  1  0  0.019812  0  0.961391  0  0  0.035802  0  1.023895  0  0  0.035165  0  1.026638  0  0  0.087564  0.036469  0  1.021782  0
H  H19  1  0.52790509  0.48338435  0.75036603  1  0  0.01979  0  0.961371  0  0  0.035796  0  1.023903  0  0  0.035161  0  1.026647  0  0  0.087553  0.036457  0  1.02179  0
H  H20  1  0.80439577  0.98137436  0.84152940  1  0  0.092146  0  0.958768  0  0  0.114203  0  1.020905  0  0  0.115064  0  1.021865  0  0  0.083626  0.11347  0  1.020389  0
H  H21  1  0.69560301  0.48137238  0.15847061  1  0  0.092144  0  0.958755  0  0  0.114194  0  1.020909  0  0  0.115055  0  1.021872  0  0  0.083616  0.11346  0  1.020394  0
H  H22  1  0.19560405  0.01862717  0.15847085  1  0  0.092136  0  0.958752  0  0  0.114194  0  1.020895  0  0  0.115055  0  1.021857  0  0  0.083622  0.113459  0  1.020382  0
H  H23  1  0.30439565  0.51862559  0.84152943  1  0  0.092148  0  0.958758  0  0  0.114205  0  1.020902  0  0  0.115066  0  1.021858  0  0  0.083627  0.113469  0  1.020385  0
H  H24  1  0.72819591  0.03418092  0.69282158  1  0  0.086431  0  0.988666  0  0  0.105875  0  1.057072  0  0  0.108025  0  1.055945  0  0  0.083469  0.104258  0  1.057829  0
H  H25  1  0.77180462  0.53417953  0.30717900  1  0  0.086421  0  0.988704  0  0  0.105869  0  1.057099  0  0  0.10802  0  1.055973  0  0  0.08346  0.104254  0  1.057855  0
H  H26  1  0.27180391  0.96581971  0.30717867  1  0  0.086423  0  0.988693  0  0  0.105884  0  1.05708  0  0  0.108035  0  1.055954  0  0  0.083466  0.104263  0  1.057843  0
H  H27  1  0.22819519  0.46582022  0.69282124  1  0  0.0864  0  0.988685  0  0  0.105852  0  1.057085  0  0  0.108003  0  1.055956  0  0  0.083452  0.104234  0  1.05784  0
H  H28  1  0.74196419  0.13132997  0.81620576  1  0  0.087636  0  0.966064  0  0  0.109457  0  1.032902  0  0  0.110178  0  1.033679  0  0  0.082233  0.108923  0  1.032218  0
H  H29  1  0.75803505  0.63132931  0.18379386  1  0  0.08766  0  0.966035  0  0  0.109472  0  1.032882  0  0  0.110209  0  1.033645  0  0  0.082236  0.108941  0  1.032194  0
H  H30  1  0.25803563  0.86867067  0.18379361  1  0  0.087651  0  0.966037  0  0  0.109473  0  1.032877  0  0  0.110204  0  1.033647  0  0  0.082237  0.108941  0  1.032189  0
H  H31  1  0.24196360  0.36866955  0.81620532  1  0  0.087647  0  0.966043  0  0  0.109466  0  1.032889  0  0  0.110188  0  1.033667  0  0  0.082235  0.108928  0  1.03221  0
H  H32  1  0.87996792  0.25924390  0.68061472  1  0  0.026042  0  0.930643  0  0  0.046135  0  0.998676  0  0  0.045672  0  0.999314  0  0  0.086332  0.046192  0  0.99918  0
H  H33  1  0.62003348  0.75924357  0.31938544  1  0  0.026064  0  0.930555  0  0  0.046149  0  0.998591  0  0  0.045682  0  0.999232  0  0  0.086343  0.046208  0  0.999097  0
H  H34  1  0.12003307  0.74075673  0.31938485  1  0  0.026038  0  0.930637  0  0  0.046133  0  0.998668  0  0  0.04567  0  0.999307  0  0  0.086327  0.046194  0  0.999167  0
H  H35  1  0.37996750  0.24075618  0.68061413  1  0  0.026042  0  0.93062  0  0  0.046137  0  0.998641  0  0  0.045671  0  0.999283  0  0  0.086333  0.046197  0  0.999148  0
H  H36  1  0.07269842  0.22423816  0.67449240  1  0  0.023982  0  0.933445  0  0  0.045996  0  0.996527  0  0  0.045517  0  0.997175  0  0  0.087492  0.045845  0  0.997446  0
H  H37  1  0.42730217  0.72423752  0.32550831  1  0  0.023986  0  0.93345  0  0  0.046003  0  0.996522  0  0  0.045523  0  0.997168  0  0  0.087494  0.045849  0  0.997446  0
H  H38  1  0.92730257  0.77576159  0.32550717  1  0  0.023975  0  0.933456  0  0  0.045986  0  0.996539  0  0  0.045507  0  0.997186  0  0  0.087495  0.045835  0  0.997462  0
H  H39  1  0.57269765  0.27576134  0.67449193  1  0  0.023989  0  0.933449  0  0  0.046001  0  0.996527  0  0  0.045519  0  0.997176  0  0  0.087491  0.045846  0  0.997453  0
H  H40  1  0.97072672  0.37277261  0.55177879  1  0  0.134903  0  1.025909  0  0  0.146749  0  1.088507  0  0  0.149982  0  1.088336  0  0  0.079899  0.144535  0  1.088405  0
H  H41  1  0.52927453  0.87277166  0.44822062  1  0  0.134868  0  1.025919  0  0  0.146734  0  1.088496  0  0  0.149971  0  1.08832  0  0  0.079899  0.144519  0  1.0884  0
H  H42  1  0.02927426  0.62722802  0.44822078  1  0  0.134969  0  1.025944  0  0  0.146798  0  1.088555  0  0  0.150032  0  1.088383  0  0  0.079941  0.144581  0  1.088459  0
H  H43  1  0.47072529  0.12722809  0.55177875  1  0  0.134869  0  1.025914  0  0  0.146737  0  1.088483  0  0  0.149974  0  1.088308  0  0  0.079904  0.144525  0  1.088385  0
H  H44  1  0.88712752  0.38783242  0.38852418  1  0  0.114066  0  1.068258  0  0  0.127351  0  1.129216  0  0  0.130105  0  1.129725  0  0  0.07345  0.125729  0  1.128041  0
H  H45  1  0.61287254  0.88783250  0.61147593  1  0  0.114075  0  1.068251  0  0  0.127363  0  1.129209  0  0  0.130117  0  1.129718  0  0  0.073453  0.125742  0  1.128036  0
H  H46  1  0.11287346  0.61216822  0.61147539  1  0  0.114096  0  1.068225  0  0  0.127385  0  1.129175  0  0  0.130139  0  1.129683  0  0  0.073461  0.125764  0  1.127998  0
H  H47  1  0.38712611  0.11216814  0.38852324  1  0  0.114104  0  1.068315  0  0  0.12739  0  1.129267  0  0  0.130145  0  1.129775  0  0  0.073473  0.125771  0  1.128093  0
H  H48  1  0.94065751  0.27711632  0.24544515  1  0  0.089653  0  0.985305  0  0  0.10099  0  1.046558  0  0  0.102572  0  1.048068  0  0  0.097577  0.099589  0  1.046237  0
H  H49  1  0.55934037  0.77711487  0.75455443  1  0  0.089661  0  0.985322  0  0  0.100994  0  1.046575  0  0  0.102578  0  1.048089  0  0  0.097595  0.099591  0  1.046254  0
H  H50  1  0.05934114  0.72288521  0.75455402  1  0  0.089657  0  0.985327  0  0  0.100991  0  1.046575  0  0  0.102574  0  1.04809  0  0  0.097585  0.09959  0  1.046252  0
H  H51  1  0.44066061  0.22288399  0.24544602  1  0  0.089656  0  0.985299  0  0  0.10099  0  1.046556  0  0  0.102574  0  1.048067  0  0  0.097592  0.09959  0  1.046233  0
H  H52  1  0.82827193  0.19799514  0.04269293  1  0  0.081897  0  0.965597  0  0  0.095523  0  1.02374  0  0  0.097954  0  1.02325  0  0  0.098833  0.093783  0  1.024264  0
H  H53  1  0.67172722  0.69799653  0.95730676  1  0  0.08189  0  0.965659  0  0  0.095545  0  1.02376  0  0  0.097974  0  1.023275  0  0  0.098824  0.093782  0  1.024308  0
H  H54  1  0.17172557  0.80200461  0.95730517  1  0  0.081851  0  0.965528  0  0  0.095471  0  1.023698  0  0  0.097903  0  1.023197  0  0  0.098815  0.093726  0  1.024225  0
H  H55  1  0.32827376  0.30200411  0.04269369  1  0  0.08188  0  0.965597  0  0  0.095508  0  1.023738  0  0  0.097938  0  1.023247  0  0  0.098829  0.093769  0  1.024261  0
H  H56  1  0.62734983  0.03936565  0.01495509  1  0  0.079539  0  0.969543  0  0  0.090971  0  1.031735  0  0  0.093309  0  1.031182  0  0  0.097849  0.089246  0  1.032263  0
H  H57  1  0.87265302  0.53936953  0.98504678  1  0  0.079571  0  0.96956  0  0  0.091021  0  1.031718  0  0  0.093367  0  1.031154  0  0  0.097897  0.089293  0  1.032248  0
H  H58  1  0.37264999  0.96063321  0.98504429  1  0  0.079559  0  0.969568  0  0  0.090973  0  1.031773  0  0  0.093323  0  1.031207  0  0  0.097846  0.089247  0  1.032303  0
H  H59  1  0.12735145  0.46063289  0.01495427  1  0  0.079546  0  0.969495  0  0  0.090989  0  1.031681  0  0  0.093319  0  1.031137  0  0  0.097865  0.089265  0  1.032208  0
H  H60  1  0.53630268  0.96262278  0.19360249  1  0  0.082142  0  0.960538  0  0  0.09514  0  1.021064  0  0  0.097712  0  1.02024  0  0  0.098634  0.093448  0  1.021452  0
H  H61  1  0.96369727  0.46262320  0.80640033  1  0  0.082148  0  0.960583  0  0  0.095133  0  1.021118  0  0  0.097698  0  1.020303  0  0  0.09866  0.093457  0  1.02149  0
H  H62  1  0.46369713  0.03737786  0.80639776  1  0  0.082135  0  0.960548  0  0  0.095129  0  1.02108  0  0  0.097694  0  1.020264  0  0  0.098634  0.093443  0  1.021468  0
H  H63  1  0.03630254  0.53737655  0.19360079  1  0  0.08215  0  0.960486  0  0  0.095133  0  1.021032  0  0  0.097699  0  1.020216  0  0  0.09864  0.09346  0  1.021396  0
H  H64  1  0.64536647  0.04630100  0.39608223  1  0  0.082462  0  0.995877  0  0  0.090734  0  1.066332  0  0  0.094271  0  1.063775  0  0  0.097894  0.088144  0  1.068245  0
H  H65  1  0.85463404  0.54629993  0.60391925  1  0  0.082511  0  0.995839  0  0  0.09079  0  1.066282  0  0  0.094324  0  1.06373  0  0  0.097911  0.088197  0  1.068195  0
H  H66  1  0.35463334  0.95369964  0.60391802  1  0  0.082498  0  0.995894  0  0  0.090773  0  1.066339  0  0  0.094309  0  1.063784  0  0  0.097906  0.08818  0  1.068252  0
H  H67  1  0.14536578  0.45369982  0.39608013  1  0  0.082499  0  0.995851  0  0  0.090769  0  1.066298  0  0  0.094302  0  1.063749  0  0  0.097907  0.08818  0  1.068206  0
C  C68  1  0.05425602  0.14955594  0.88729980  1  0  -0.32136  0  3.724155  0  0  -0.401363  0  3.969417  0  0  -0.404493  0  3.982036  0  0  -0.247626  -0.398751  0  3.960323  0
C  C69  1  0.44574349  0.64955588  0.11270150  1  0  -0.321319  0  3.724078  0  0  -0.401342  0  3.96934  0  0  -0.40447  0  3.981958  0  0  -0.247604  -0.398725  0  3.960241  0
C  C70  1  0.94574379  0.85044381  0.11270044  1  0  -0.321294  0  3.72415  0  0  -0.401314  0  3.969406  0  0  -0.404447  0  3.982024  0  0  -0.247609  -0.398699  0  3.960307  0
C  C71  1  0.55425632  0.35044387  0.88729962  1  0  -0.32133  0  3.724141  0  0  -0.401326  0  3.969429  0  0  -0.404453  0  3.982045  0  0  -0.247604  -0.398713  0  3.960333  0
C  C72  1  0.96360509  0.09561537  0.76972913  1  0  0.078317  0  3.668705  0  0  0.090933  0  3.898767  0  0  0.090631  0  3.916858  0  0  -0.096953  0.090902  0  3.886047  0
C  C73  1  0.53639536  0.59561411  0.23027065  1  0  0.078361  0  3.668775  0  0  0.091024  0  3.89875  0  0  0.090715  0  3.916857  0  0  -0.09692  0.090993  0  3.886036  0
C  C74  1  0.03639472  0.90438527  0.23027025  1  0  0.07825  0  3.668805  0  0  0.09092  0  3.898799  0  0  0.090623  0  3.916892  0  0  -0.096948  0.090898  0  3.886072  0
C  C75  1  0.46360446  0.40438476  0.76972872  1  0  0.078368  0  3.668701  0  0  0.090956  0  3.898796  0  0  0.09065  0  3.916895  0  0  -0.096919  0.090941  0  3.886064  0
C  C76  1  0.80081417  0.05771134  0.78097504  1  0  -0.318077  0  3.690124  0  0  -0.396741  0  3.928872  0  0  -0.399291  0  3.939008  0  0  -0.247872  -0.394583  0  3.921826  0
C  C77  1  0.69918400  0.55770990  0.21902604  1  0  -0.318109  0  3.69019  0  0  -0.396786  0  3.928945  0  0  -0.399347  0  3.939072  0  0  -0.247875  -0.394631  0  3.921901  0
C  C78  1  0.19918564  0.94228930  0.21902608  1  0  -0.318067  0  3.690135  0  0  -0.396763  0  3.928871  0  0  -0.399325  0  3.939003  0  0  -0.247883  -0.394602  0  3.921829  0
C  C79  1  0.30081465  0.44228896  0.78097400  1  0  -0.318073  0  3.690131  0  0  -0.396742  0  3.928892  0  0  -0.39929  0  3.93903  0  0  -0.247878  -0.394585  0  3.921845  0
C  C80  1  0.95556127  0.18366079  0.66641823  1  0  0.043387  0  3.756105  0  0  -0.005159  0  4.004458  0  0  -0.000379  0  4.019173  0  0  -0.080831  -0.008163  0  3.993453  0
C  C81  1  0.54443790  0.68365967  0.33358320  1  0  0.043383  0  3.756022  0  0  -0.005141  0  4.004313  0  0  -0.00036  0  4.01903  0  0  -0.08081  -0.008153  0  3.993319  0
C  C82  1  0.04443855  0.81633896  0.33358202  1  0  0.043434  0  3.756064  0  0  -0.005131  0  4.004419  0  0  -0.000352  0  4.01913  0  0  -0.080818  -0.008147  0  3.993429  0
C  C83  1  0.45556076  0.31633920  0.66641685  1  0  0.043392  0  3.756077  0  0  -0.005134  0  4.004398  0  0  -0.000354  0  4.019118  0  0  -0.08081  -0.00815  0  3.993411  0
C  C84  1  0.87130368  0.21318560  0.45898567  1  0  0.246561  0  4.055548  0  0  0.242431  0  4.291451  0  0  0.25778  0  4.311368  0  0  0.045737  0.231527  0  4.279075  0
C  C85  1  0.62869662  0.71318645  0.54101161  1  0  0.246563  0  4.055693  0  0  0.242404  0  4.291636  0  0  0.257754  0  4.311553  0  0  0.045738  0.231508  0  4.27925  0
C  C86  1  0.12869730  0.78681415  0.54101390  1  0  0.246383  0  4.055817  0  0  0.242237  0  4.291736  0  0  0.257586  0  4.311654  0  0  0.045647  0.23134  0  4.279351  0
C  C87  1  0.37130319  0.28681419  0.45898777  1  0  0.246645  0  4.055714  0  0  0.24251  0  4.291647  0  0  0.25786  0  4.311563  0  0  0.04578  0.231611  0  4.279268  0
C  C88  1  0.90174480  0.33439331  0.46962107  1  0  -0.668651  0  3.720457  0  0  -0.692615  0  3.961871  0  0  -0.708224  0  3.975004  0  0  -0.322202  -0.680323  0  3.953251  0
C  C89  1  0.59825765  0.83439152  0.53038025  1  0  -0.668651  0  3.720518  0  0  -0.69263  0  3.961939  0  0  -0.708242  0  3.97507  0  0  -0.32221  -0.680341  0  3.953315  0
C  C90  1  0.09825618  0.66560644  0.53037850  1  0  -0.6687  0  3.720532  0  0  -0.692648  0  3.961965  0  0  -0.708256  0  3.975095  0  0  -0.322234  -0.680353  0  3.953337  0
C  C91  1  0.40174217  0.16560735  0.46961912  1  0  -0.668684  0  3.720518  0  0  -0.69266  0  3.961914  0  0  -0.708273  0  3.975046  0  0  -0.322226  -0.680363  0  3.953271  0
C  C92  1  0.80200785  0.16617175  0.33563017  1  0  0.007693  0  3.773563  0  0  0.029189  0  4.000259  0  0  0.027841  0  4.020638  0  0  -0.011131  0.029702  0  3.987353  0
C  C93  1  0.69799483  0.66617004  0.66437272  1  0  0.007704  0  3.773544  0  0  0.029248  0  4.000198  0  0  0.027899  0  4.020579  0  0  -0.011091  0.029754  0  3.987289  0
C  C94  1  0.19799197  0.83382888  0.66436920  1  0  0.007788  0  3.773535  0  0  0.029312  0  4.00019  0  0  0.027966  0  4.020569  0  0  -0.011095  0.029824  0  3.987276  0
C  C95  1  0.30200848  0.33382882  0.33562813  1  0  0.007657  0  3.773559  0  0  0.029136  0  4.000283  0  0  0.027788  0  4.020664  0  0  -0.011141  0.029644  0  3.98738  0
C  C96  1  0.85048707  0.20929727  0.23411769  1  0  -0.116382  0  3.734171  0  0  -0.130499  0  3.967942  0  0  -0.132034  0  3.988117  0  0  -0.089146  -0.129254  0  3.954966  0
C  C97  1  0.64951207  0.70929752  0.76588289  1  0  -0.116328  0  3.734124  0  0  -0.130449  0  3.967879  0  0  -0.131988  0  3.988059  0  0  -0.089131  -0.129201  0  3.954892  0
C  C98  1  0.14951158  0.79070337  0.76588236  1  0  -0.116419  0  3.734215  0  0  -0.130537  0  3.967969  0  0  -0.132078  0  3.988149  0  0  -0.089155  -0.129295  0  3.95499  0
C  C99  1  0.35048775  0.29070401  0.23411736  1  0  -0.116386  0  3.734201  0  0  -0.130491  0  3.967974  0  0  -0.13203  0  3.988152  0  0  -0.089169  -0.129246  0  3.955  0
C  C100  1  0.78719795  0.16445978  0.11974008  1  0  -0.060053  0  3.771762  0  0  -0.07051  0  4.012259  0  0  -0.072234  0  4.033423  0  0  -0.089426  -0.069682  0  3.997909  0
C  C101  1  0.71280240  0.66446012  0.88026153  1  0  -0.060071  0  3.771779  0  0  -0.070548  0  4.012274  0  0  -0.072273  0  4.033442  0  0  -0.089441  -0.0697  0  3.997925  0
C  C102  1  0.21279954  0.83554086  0.88025802  1  0  -0.05998  0  3.771698  0  0  -0.070438  0  4.012195  0  0  -0.072157  0  4.033362  0  0  -0.089432  -0.069603  0  3.997839  0
C  C103  1  0.28719974  0.33553963  0.11973999  1  0  -0.060039  0  3.771705  0  0  -0.070495  0  4.012201  0  0  -0.072216  0  4.033363  0  0  -0.089415  -0.069669  0  3.997853  0
C  C104  1  0.67444968  0.07543829  0.10425961  1  0  -0.080632  0  3.782081  0  0  -0.092693  0  4.02694  0  0  -0.094351  0  4.048635  0  0  -0.094623  -0.091103  0  4.012044  0
C  C105  1  0.82555195  0.57544121  0.89574297  1  0  -0.080678  0  3.782142  0  0  -0.092758  0  4.026998  0  0  -0.094423  0  4.048688  0  0  -0.094657  -0.091171  0  4.012104  0
C  C106  1  0.32555013  0.92456234  0.89574063  1  0  -0.080662  0  3.782104  0  0  -0.092711  0  4.026961  0  0  -0.094377  0  4.048649  0  0  -0.094614  -0.091123  0  4.012071  0
C  C107  1  0.17445019  0.42456032  0.10425856  1  0  -0.080594  0  3.782025  0  0  -0.092669  0  4.026889  0  0  -0.094321  0  4.048584  0  0  -0.094629  -0.091084  0  4.011999  0
C  C108  1  0.62500419  0.03171173  0.20423677  1  0  -0.074527  0  3.788656  0  0  -0.086102  0  4.036052  0  0  -0.088035  0  4.056649  0  0  -0.091449  -0.085117  0  4.021831  0
C  C109  1  0.87499750  0.53171180  0.79576488  1  0  -0.074513  0  3.788698  0  0  -0.08607  0  4.036087  0  0  -0.087996  0  4.056687  0  0  -0.091504  -0.085099  0  4.02186  0
C  C110  1  0.37499446  0.96828890  0.79576240  1  0  -0.074509  0  3.788691  0  0  -0.08608  0  4.036083  0  0  -0.088009  0  4.056686  0  0  -0.09146  -0.085104  0  4.021869  0
C  C111  1  0.12500580  0.46828795  0.20423597  1  0  -0.07456  0  3.788667  0  0  -0.086125  0  4.036065  0  0  -0.088051  0  4.056658  0  0  -0.091476  -0.085149  0  4.021831  0
C  C112  1  0.68800597  0.07698095  0.31859204  1  0  -0.132363  0  3.776198  0  0  -0.151611  0  4.024657  0  0  -0.152232  0  4.042342  0  0  -0.094327  -0.150878  0  4.012582  0
C  C113  1  0.81199450  0.57698180  0.68141034  1  0  -0.132437  0  3.776345  0  0  -0.151712  0  4.024819  0  0  -0.152335  0  4.042509  0  0  -0.094349  -0.150974  0  4.012742  0
C  C114  1  0.31199501  0.92301969  0.68140929  1  0  -0.132454  0  3.776298  0  0  -0.151715  0  4.024764  0  0  -0.152338  0  4.04245  0  0  -0.094352  -0.150975  0  4.012684  0
C  C115  1  0.18800531  0.42301972  0.31858990  1  0  -0.13239  0  3.776256  0  0  -0.151629  0  4.024738  0  0  -0.152251  0  4.042427  0  0  -0.094334  -0.150898  0  4.012665  0
N  N116  1  0.89843839  0.13184388  0.54839039  1  0  -0.718045  0  3.121202  0  0  -0.649468  0  3.39648  0  0  -0.672245  0  3.409561  0  0  -0.574889  -0.63166  0  3.386697  0
N  N117  1  0.60156317  0.63184463  0.45161226  1  0  -0.7181  0  3.121427  0  0  -0.649536  0  3.39672  0  0  -0.672312  0  3.409795  0  0  -0.574973  -0.631724  0  3.386932  0
N  N118  1  0.10156260  0.86815587  0.45160831  1  0  -0.717955  0  3.121286  0  0  -0.649372  0  3.396556  0  0  -0.672149  0  3.40964  0  0  -0.574837  -0.631569  0  3.386781  0
N  N119  1  0.39843781  0.36815512  0.54838819  1  0  -0.718112  0  3.121452  0  0  -0.649545  0  3.396738  0  0  -0.672317  0  3.409812  0  0  -0.574955  -0.63173  0  3.386947  0
