# generated using pymatgen
data_CuH7C7IN2
_symmetry_space_group_name_H-M   'P 1'
_cell_length_a   7.73666847
_cell_length_b   7.94586619
_cell_length_c   8.10346098
_cell_angle_alpha   117.15172562
_cell_angle_beta   90.65953040
_cell_angle_gamma   109.37445611
_symmetry_Int_Tables_number   1
_chemical_formula_structural   CuH7C7IN2
_chemical_formula_sum   'Cu2 H14 C14 I2 N4'
_cell_volume   410.20898472
_cell_formula_units_Z   2
loop_
 _symmetry_equiv_pos_site_id
 _symmetry_equiv_pos_as_xyz
  1  'x, y, z'
loop_
 _atom_site_type_symbol
 _atom_site_label
 _atom_site_symmetry_multiplicity
 _atom_site_fract_x
 _atom_site_fract_y
 _atom_site_fract_z
 _atom_site_occupancy
 _atom_site_hle17_bader_spin_density
 _atom_site_hle17_ddec_charge
 _atom_site_hle17_ddec_spin_density
 _atom_site_hle17_ddec_sum_bond_order
 _atom_site_hle17_magmom
 _atom_site_hse06_10hf_bader_spin_density
 _atom_site_hse06_10hf_ddec_charge
 _atom_site_hse06_10hf_ddec_spin_density
 _atom_site_hse06_10hf_ddec_sum_bond_order
 _atom_site_hse06_10hf_magmom
 _atom_site_hse06_bader_spin_density
 _atom_site_hse06_ddec_charge
 _atom_site_hse06_ddec_spin_density
 _atom_site_hse06_ddec_sum_bond_order
 _atom_site_hse06_magmom
 _atom_site_pbe_bader_spin_density
 _atom_site_pbe_cm5_charge
 _atom_site_pbe_ddec_charge
 _atom_site_pbe_ddec_spin_density
 _atom_site_pbe_ddec_sum_bond_order
 _atom_site_pbe_magmom
Cu  Cu0  1  0.83967587  0.60262939  0.62840282  1  0  0.358157  0  2.039003  0  0  0.262949  0  2.497538  0  0  0.260948  0  2.458998  0  0  0.402035  0.268432  0  2.519496  0
Cu  Cu1  1  0.16031637  0.39737716  0.37161321  1  0  0.358125  0  2.038975  0  0  0.262941  0  2.497417  0  0  0.260905  0  2.458928  0  0  0.401999  0.268406  0  2.519438  0
H  H2  1  0.90471894  0.15876007  0.74496405  1  0  0.069163  0  0.964453  0  0  0.07738  0  1.039265  0  0  0.080122  0  1.035984  0  0  0.100125  0.075282  0  1.041668  0
H  H3  1  0.09528610  0.84124192  0.25502671  1  0  0.069082  0  0.964561  0  0  0.07734  0  1.039339  0  0  0.080063  0  1.036071  0  0  0.100097  0.07524  0  1.041747  0
H  H4  1  0.08016778  0.18711093  0.97026469  1  0  0.062904  0  0.946404  0  0  0.076082  0  1.018385  0  0  0.077726  0  1.016593  0  0  0.093336  0.074741  0  1.019798  0
H  H5  1  0.91982350  0.81289260  0.02973640  1  0  0.062875  0  0.946392  0  0  0.07608  0  1.018372  0  0  0.077726  0  1.016568  0  0  0.093355  0.07474  0  1.019785  0
H  H6  1  0.16277837  0.98175516  0.89879801  1  0  0.069102  0  0.957349  0  0  0.085581  0  1.021096  0  0  0.08585  0  1.021521  0  0  0.094766  0.08515  0  1.021027  0
H  H7  1  0.83722782  0.01826516  0.10120961  1  0  0.069  0  0.95742  0  0  0.085494  0  1.021183  0  0  0.085761  0  1.021606  0  0  0.094731  0.085063  0  1.021113  0
H  H8  1  0.79354130  0.07171443  0.39287761  1  0  0.10297  0  0.958678  0  0  0.107896  0  1.031057  0  0  0.111808  0  1.027327  0  0  0.101938  0.104873  0  1.033903  0
H  H9  1  0.20645738  0.92827686  0.60711319  1  0  0.102954  0  0.958686  0  0  0.107943  0  1.030986  0  0  0.111836  0  1.027285  0  0  0.101946  0.104919  0  1.033834  0
H  H10  1  0.52263626  0.85333076  0.11235376  1  0  0.102656  0  0.948405  0  0  0.110855  0  1.010674  0  0  0.114784  0  1.009125  0  0  0.100652  0.108042  0  1.011896  0
H  H11  1  0.47736621  0.14665286  0.88763491  1  0  0.10267  0  0.948342  0  0  0.110898  0  1.01058  0  0  0.114829  0  1.009031  0  0  0.100648  0.108084  0  1.011803  0
H  H12  1  0.51844618  0.68248998  0.62292878  1  0  0.07576  0  0.976009  0  0  0.078711  0  1.052104  0  0  0.082974  0  1.046842  0  0  0.101373  0.075712  0  1.055723  0
H  H13  1  0.48155389  0.31751657  0.37707751  1  0  0.075757  0  0.976007  0  0  0.078696  0  1.052136  0  0  0.082962  0  1.046869  0  0  0.101351  0.075696  0  1.055756  0
H  H14  1  0.26490128  0.56422387  0.10685761  1  0  0.069358  0  0.981772  0  0  0.072646  0  1.059169  0  0  0.076396  0  1.055313  0  0  0.093229  0.069866  0  1.061917  0
H  H15  1  0.73509970  0.43577044  0.89314322  1  0  0.069374  0  0.98174  0  0  0.07267  0  1.059124  0  0  0.076422  0  1.055262  0  0  0.09324  0.069876  0  1.061883  0
C  C16  1  0.83891167  0.99134487  0.68164339  1  0  0.139047  0  3.613398  0  0  0.095161  0  3.861474  0  0  0.109381  0  3.870738  0  0  0.071216  0.085637  0  3.855944  0
C  C17  1  0.16108634  0.00865559  0.31835151  1  0  0.13914  0  3.613494  0  0  0.095214  0  3.861583  0  0  0.109465  0  3.870848  0  0  0.071291  0.085693  0  3.856056  0
C  C18  1  0.68382175  0.88129102  0.52044844  1  0  -0.007697  0  3.812196  0  0  0.020494  0  4.040842  0  0  0.012772  0  4.062256  0  0  -0.012158  0.025125  0  4.027126  0
C  C19  1  0.31617958  0.11870789  0.47954828  1  0  -0.007676  0  3.811962  0  0  0.02047  0  4.0407  0  0  0.012753  0  4.062093  0  0  -0.012136  0.025101  0  4.026984  0
C  C20  1  0.03968034  0.02314182  0.92327476  1  0  -0.015081  0  3.680847  0  0  -0.067663  0  3.931437  0  0  -0.065741  0  3.943142  0  0  -0.079225  -0.068793  0  3.923937  0
C  C21  1  0.96032265  0.97686932  0.07672993  1  0  -0.014856  0  3.680835  0  0  -0.067511  0  3.931405  0  0  -0.065596  0  3.943156  0  0  -0.079146  -0.068643  0  3.923906  0
C  C22  1  0.68055723  0.93805009  0.38072245  1  0  -0.032674  0  3.658714  0  0  -0.060942  0  3.903889  0  0  -0.055919  0  3.922149  0  0  -0.067779  -0.064066  0  3.891844  0
C  C23  1  0.31944635  0.06194422  0.61927595  1  0  -0.032667  0  3.658554  0  0  -0.060969  0  3.903763  0  0  -0.055934  0  3.922027  0  0  -0.067821  -0.064091  0  3.89172  0
C  C24  1  0.53078146  0.81948625  0.22765550  1  0  -0.113532  0  3.742507  0  0  -0.122836  0  3.99305  0  0  -0.13097  0  4.014494  0  0  -0.087468  -0.117986  0  3.979175  0
C  C25  1  0.46921818  0.18050044  0.77233696  1  0  -0.113695  0  3.742632  0  0  -0.123033  0  3.993197  0  0  -0.131172  0  4.014641  0  0  -0.087535  -0.118181  0  3.979319  0
C  C26  1  0.52864323  0.71947980  0.50843383  1  0  0.083408  0  3.680838  0  0  0.045899  0  3.926786  0  0  0.054974  0  3.938439  0  0  0.037227  0.038639  0  3.921505  0
C  C27  1  0.47135601  0.28052064  0.49156848  1  0  0.083455  0  3.680777  0  0  0.04597  0  3.926712  0  0  0.055035  0  3.938393  0  0  0.037249  0.038708  0  3.921434  0
C  C28  1  0.38516780  0.65690505  0.22335393  1  0  0.120386  0  3.679361  0  0  0.086873  0  3.93188  0  0  0.094998  0  3.946588  0  0  0.033178  0.081527  0  3.922467  0
C  C29  1  0.61483264  0.34308773  0.77664621  1  0  0.120496  0  3.679211  0  0  0.086977  0  3.931712  0  0  0.095106  0  3.946425  0  0  0.033217  0.081641  0  3.922307  0
I  I30  1  0.14176616  0.54886134  0.74374057  1  0  -0.51976  0  1.297388  0  0  -0.463784  0  1.687727  0  0  -0.483806  0  1.658472  0  0  -0.236254  -0.448653  0  1.705086  0
I  I31  1  0.85823347  0.45115134  0.25626599  1  0  -0.519764  0  1.297324  0  0  -0.463794  0  1.687669  0  0  -0.483813  0  1.658409  0  0  -0.236264  -0.448663  0  1.705027  0
N  N32  1  0.89950499  0.89673715  0.74855599  1  0  -0.279706  0  3.33286  0  0  -0.19808  0  3.629512  0  0  -0.208161  0  3.634108  0  0  -0.377952  -0.192651  0  3.626358  0
N  N33  1  0.10049428  0.10326330  0.25144262  1  0  -0.279808  0  3.332994  0  0  -0.198132  0  3.629647  0  0  -0.208228  0  3.634238  0  0  -0.378015  -0.192703  0  3.626507  0
N  N34  1  0.38016170  0.61134514  0.36556219  1  0  -0.284454  0  3.405211  0  0  -0.20723  0  3.694116  0  0  -0.218114  0  3.70103  0  0  -0.368236  -0.200878  0  3.68945  0
N  N35  1  0.61983881  0.38865528  0.63444261  1  0  -0.284467  0  3.405078  0  0  -0.207243  0  3.694001  0  0  -0.21814  0  3.700931  0  0  -0.36821  -0.200889  0  3.68932  0
