# generated using pymatgen
data_NaH4C3(NO)3
_symmetry_space_group_name_H-M   'P 1'
_cell_length_a   6.88916453
_cell_length_b   9.35467257
_cell_length_c   9.35444684
_cell_angle_alpha   112.63923486
_cell_angle_beta   96.05801015
_cell_angle_gamma   96.05764685
_symmetry_Int_Tables_number   1
_chemical_formula_structural   NaH4C3(NO)3
_chemical_formula_sum   'Na4 H16 C12 N12 O12'
_cell_volume   546.23599193
_cell_formula_units_Z   4
loop_
 _symmetry_equiv_pos_site_id
 _symmetry_equiv_pos_as_xyz
  1  'x, y, z'
loop_
 _atom_site_type_symbol
 _atom_site_label
 _atom_site_symmetry_multiplicity
 _atom_site_fract_x
 _atom_site_fract_y
 _atom_site_fract_z
 _atom_site_occupancy
 _atom_site_hle17_bader_spin_density
 _atom_site_hle17_ddec_charge
 _atom_site_hle17_ddec_spin_density
 _atom_site_hle17_ddec_sum_bond_order
 _atom_site_hle17_magmom
 _atom_site_hse06_10hf_bader_spin_density
 _atom_site_hse06_10hf_ddec_charge
 _atom_site_hse06_10hf_ddec_spin_density
 _atom_site_hse06_10hf_ddec_sum_bond_order
 _atom_site_hse06_10hf_magmom
 _atom_site_hse06_bader_spin_density
 _atom_site_hse06_ddec_charge
 _atom_site_hse06_ddec_spin_density
 _atom_site_hse06_ddec_sum_bond_order
 _atom_site_hse06_magmom
 _atom_site_pbe_bader_spin_density
 _atom_site_pbe_cm5_charge
 _atom_site_pbe_ddec_charge
 _atom_site_pbe_ddec_spin_density
 _atom_site_pbe_ddec_sum_bond_order
 _atom_site_pbe_magmom
Na  Na0  1  0.48458011  0.56398916  0.18788700  1  0  0.887483  0  0.401076  0  0  0.83636  0  0.567623  0  0  0.847193  0  0.544509  0  0  0.671714  0.827892  0  0.584985  0
Na  Na1  1  0.01543332  0.81211861  0.43602531  1  0  0.88751  0  0.401051  0  0  0.836343  0  0.56766  0  0  0.84718  0  0.544542  0  0  0.671667  0.827848  0  0.585066  0
Na  Na2  1  0.51542819  0.43601648  0.81211454  1  0  0.887475  0  0.401092  0  0  0.836339  0  0.567673  0  0  0.847164  0  0.544554  0  0  0.671706  0.827846  0  0.58507  0
Na  Na3  1  0.98457265  0.18788236  0.56398176  1  0  0.88748  0  0.401127  0  0  0.836342  0  0.567682  0  0  0.847189  0  0.544572  0  0  0.671725  0.82787  0  0.585054  0
H  H4  1  0.16509932  0.55652063  0.93370199  1  0  0.394772  0  0.920823  0  0  0.356184  0  0.998453  0  0  0.366712  0  0.983173  0  0  0.286669  0.348452  0  1.009668  0
H  H5  1  0.33490207  0.06629467  0.44346821  1  0  0.394821  0  0.920756  0  0  0.356233  0  0.998372  0  0  0.366764  0  0.983086  0  0  0.286644  0.348501  0  1.009586  0
H  H6  1  0.83491447  0.44347566  0.06629960  1  0  0.394737  0  0.920849  0  0  0.356141  0  0.998498  0  0  0.366672  0  0.983213  0  0  0.286639  0.348408  0  1.009713  0
H  H7  1  0.66509895  0.93371096  0.55653812  1  0  0.39491  0  0.920623  0  0  0.356327  0  0.998253  0  0  0.366857  0  0.982968  0  0  0.286677  0.348592  0  1.00947  0
H  H8  1  0.15041879  0.38381643  0.92441054  1  0  0.415156  0  0.881882  0  0  0.386655  0  0.942837  0  0  0.3964  0  0.928258  0  0  0.299052  0.379186  0  0.954073  0
H  H9  1  0.34960143  0.07559123  0.61617923  1  0  0.415096  0  0.881887  0  0  0.386628  0  0.94287  0  0  0.396369  0  0.928296  0  0  0.298985  0.379159  0  0.954107  0
H  H10  1  0.84959943  0.61617992  0.07560103  1  0  0.415033  0  0.882057  0  0  0.386577  0  0.942958  0  0  0.396318  0  0.928387  0  0  0.299012  0.37911  0  0.954192  0
H  H11  1  0.65041149  0.92441561  0.38382740  1  0  0.415128  0  0.8819  0  0  0.386625  0  0.942889  0  0  0.396371  0  0.928307  0  0  0.298976  0.379157  0  0.954125  0
H  H12  1  0.17128917  0.52244975  0.34819635  1  0  0.415659  0  0.864485  0  0  0.38293  0  0.946144  0  0  0.391349  0  0.933607  0  0  0.310527  0.376793  0  0.955397  0
H  H13  1  0.32872927  0.65180136  0.47756638  1  0  0.41558  0  0.86407  0  0  0.382856  0  0.946113  0  0  0.391279  0  0.933568  0  0  0.310463  0.376714  0  0.955378  0
H  H14  1  0.82872409  0.47755124  0.65181020  1  0  0.415557  0  0.864606  0  0  0.382826  0  0.946286  0  0  0.391247  0  0.933748  0  0  0.310467  0.376687  0  0.955542  0
H  H15  1  0.67127984  0.34820079  0.52244244  1  0  0.415535  0  0.864192  0  0  0.382785  0  0.946241  0  0  0.39121  0  0.933693  0  0  0.310453  0.376642  0  0.955507  0
H  H16  1  0.79970415  0.49941511  0.37366917  1  0  0.378298  0  0.946319  0  0  0.33673  0  1.031701  0  0  0.347304  0  1.016122  0  0  0.282808  0.328974  0  1.043215  0
H  H17  1  0.70030140  0.62632897  0.50060168  1  0  0.378484  0  0.946048  0  0  0.336898  0  1.031408  0  0  0.347473  0  1.015827  0  0  0.282866  0.329141  0  1.042922  0
H  H18  1  0.20029674  0.50058231  0.62633509  1  0  0.378355  0  0.946309  0  0  0.336782  0  1.031615  0  0  0.347359  0  1.016029  0  0  0.282832  0.329024  0  1.043131  0
H  H19  1  0.29970070  0.37366727  0.49939795  1  0  0.378478  0  0.946053  0  0  0.336882  0  1.031456  0  0  0.347457  0  1.015873  0  0  0.282884  0.329125  0  1.04297  0
C  C20  1  0.50754571  0.89074535  0.08690738  1  0  0.388691  0  3.776117  0  0  0.366037  0  4.044981  0  0  0.389585  0  4.04628  0  0  0.173226  0.350636  0  4.043326  0
C  C21  1  0.99244695  0.91305984  0.10923532  1  0  0.388709  0  3.77617  0  0  0.365895  0  4.045217  0  0  0.389453  0  4.046515  0  0  0.173341  0.350493  0  4.043557  0
C  C22  1  0.49236763  0.10923759  0.91307087  1  0  0.388645  0  3.776476  0  0  0.3661  0  4.045105  0  0  0.389642  0  4.046407  0  0  0.173393  0.350706  0  4.043461  0
C  C23  1  0.00755445  0.08694097  0.89073820  1  0  0.388923  0  3.776217  0  0  0.366527  0  4.044681  0  0  0.390092  0  4.045958  0  0  0.173422  0.351119  0  4.04304  0
C  C24  1  0.46997386  0.05301487  0.15546029  1  0  -0.006915  0  3.810046  0  0  -0.019738  0  4.077091  0  0  -0.023748  0  4.100306  0  0  0.083977  -0.016822  0  4.06111  0
C  C25  1  0.02997794  0.84454246  0.94698609  1  0  -0.007071  0  3.811367  0  0  -0.019731  0  4.078249  0  0  -0.023766  0  4.101482  0  0  0.083997  -0.016806  0  4.062268  0
C  C26  1  0.53003395  0.94698840  0.84453496  1  0  -0.007082  0  3.809883  0  0  -0.019823  0  4.076749  0  0  -0.023834  0  4.099967  0  0  0.083792  -0.016936  0  4.060804  0
C  C27  1  0.96998274  0.15545123  0.05299983  1  0  -0.00713  0  3.810409  0  0  -0.020046  0  4.077415  0  0  -0.024073  0  4.100638  0  0  0.08392  -0.017124  0  4.06144  0
C  C28  1  0.46668702  0.15580722  0.07802412  1  0  -0.0054  0  3.798452  0  0  -0.014004  0  4.067945  0  0  -0.019345  0  4.091508  0  0  0.082902  -0.011016  0  4.052661  0
C  C29  1  0.03336060  0.92200135  0.84421142  1  0  -0.005388  0  3.798593  0  0  -0.014033  0  4.068017  0  0  -0.019358  0  4.091567  0  0  0.083146  -0.011051  0  4.052732  0
C  C30  1  0.53332860  0.84419846  0.92198119  1  0  -0.00547  0  3.79838  0  0  -0.014119  0  4.067974  0  0  -0.019466  0  4.091537  0  0  0.08295  -0.011119  0  4.05269  0
C  C31  1  0.96661937  0.07800884  0.15578652  1  0  -0.005323  0  3.798186  0  0  -0.013896  0  4.067885  0  0  -0.019219  0  4.09143  0  0  0.082957  -0.010917  0  4.052608  0
N  N32  1  0.43113522  0.29468542  0.18113525  1  0  -0.262163  0  3.00517  0  0  -0.247766  0  3.299101  0  0  -0.252322  0  3.313896  0  0  -0.262543  -0.244524  0  3.289903  0
N  N33  1  0.06888728  0.81888861  0.70535286  1  0  -0.262257  0  3.005019  0  0  -0.247836  0  3.298962  0  0  -0.252389  0  3.313748  0  0  -0.262741  -0.244587  0  3.289757  0
N  N34  1  0.56884092  0.70532007  0.81886168  1  0  -0.261966  0  3.005479  0  0  -0.247542  0  3.299423  0  0  -0.25209  0  3.314214  0  0  -0.262526  -0.244297  0  3.290217  0
N  N35  1  0.93112399  0.18113230  0.29465901  1  0  -0.262382  0  3.005239  0  0  -0.247942  0  3.299159  0  0  -0.252503  0  3.313951  0  0  -0.262691  -0.244698  0  3.289964  0
N  N36  1  0.41236029  0.27735997  0.31524508  1  0  -0.112409  0  3.031571  0  0  -0.073833  0  3.310993  0  0  -0.078634  0  3.324881  0  0  -0.093939  -0.070048  0  3.301287  0
N  N37  1  0.08766515  0.68477334  0.72271607  1  0  -0.11266  0  3.031264  0  0  -0.074163  0  3.31085  0  0  -0.078973  0  3.324742  0  0  -0.094093  -0.070375  0  3.301141  0
N  N38  1  0.58768156  0.72265287  0.68477136  1  0  -0.112563  0  3.031736  0  0  -0.074025  0  3.311173  0  0  -0.078829  0  3.325064  0  0  -0.09405  -0.070239  0  3.301462  0
N  N39  1  0.91232719  0.31523941  0.27732333  1  0  -0.112498  0  3.031336  0  0  -0.073996  0  3.310853  0  0  -0.078799  0  3.324747  0  0  -0.094049  -0.070213  0  3.30115  0
N  N40  1  0.43432475  0.13154160  0.30214030  1  0  -0.231692  0  3.026165  0  0  -0.19298  0  3.285464  0  0  -0.200527  0  3.301093  0  0  -0.191584  -0.1862  0  3.273726  0
N  N41  1  0.06564854  0.69788661  0.86851024  1  0  -0.231368  0  3.027056  0  0  -0.192658  0  3.286243  0  0  -0.200195  0  3.301886  0  0  -0.191538  -0.185889  0  3.274502  0
N  N42  1  0.56563585  0.86845912  0.69784937  1  0  -0.231668  0  3.025882  0  0  -0.192994  0  3.285223  0  0  -0.200543  0  3.300851  0  0  -0.191484  -0.186207  0  3.27349  0
N  N43  1  0.93434320  0.30213079  0.13152234  1  0  -0.231398  0  3.026388  0  0  -0.192601  0  3.285631  0  0  -0.200147  0  3.301271  0  0  -0.191454  -0.185828  0  3.273893  0
O  O44  1  0.52103427  0.80783039  0.16310559  1  0  -0.482212  0  1.957768  0  0  -0.42578  0  2.164889  0  0  -0.443299  0  2.157862  0  0  -0.284427  -0.412986  0  2.169228  0
O  O45  1  0.97898275  0.83684858  0.19213841  1  0  -0.482103  0  1.957936  0  0  -0.425698  0  2.165199  0  0  -0.443214  0  2.158176  0  0  -0.284443  -0.4129  0  2.169536  0
O  O46  1  0.47900195  0.19216127  0.83688843  1  0  -0.482042  0  1.958157  0  0  -0.425721  0  2.165286  0  0  -0.443213  0  2.158234  0  0  -0.284467  -0.412925  0  2.169626  0
O  O47  1  0.02101615  0.16308762  0.80777817  1  0  -0.482401  0  1.958084  0  0  -0.426121  0  2.165157  0  0  -0.44367  0  2.158157  0  0  -0.284604  -0.413315  0  2.169492  0
O  O48  1  0.24120235  0.48337422  0.96125751  1  0  -0.90537  0  1.831734  0  0  -0.863087  0  2.020882  0  0  -0.878357  0  1.987559  0  0  -0.690393  -0.852836  0  2.046  0
O  O49  1  0.25880181  0.03874715  0.51662495  1  0  -0.905373  0  1.831594  0  0  -0.863109  0  2.020742  0  0  -0.8784  0  1.987471  0  0  -0.690343  -0.852856  0  2.04586  0
O  O50  1  0.75881350  0.51663264  0.03874934  1  0  -0.90524  0  1.831832  0  0  -0.863066  0  2.021007  0  0  -0.87831  0  1.987639  0  0  -0.69036  -0.852812  0  2.046123  0
O  O51  1  0.74120807  0.96125148  0.48338045  1  0  -0.905462  0  1.831473  0  0  -0.863195  0  2.020597  0  0  -0.878486  0  1.987314  0  0  -0.690359  -0.852941  0  2.045727  0
O  O52  1  0.24999016  0.62517090  0.37480052  1  0  -0.847473  0  1.770055  0  0  -0.800996  0  1.958111  0  0  -0.814592  0  1.928331  0  0  -0.649562  -0.791972  0  1.979835  0
O  O53  1  0.75001534  0.37482772  0.62520454  1  0  -0.847335  0  1.770254  0  0  -0.800842  0  1.958286  0  0  -0.814443  0  1.928508  0  0  -0.649529  -0.791816  0  1.980013  0
O  O54  1  0.75001437  0.60060877  0.39940774  1  0  -0.900345  0  1.897713  0  0  -0.85432  0  2.098213  0  0  -0.869939  0  2.064317  0  0  -0.686285  -0.842901  0  2.123083  0
O  O55  1  0.24999525  0.39938866  0.60059184  1  0  -0.900357  0  1.897704  0  0  -0.85434  0  2.098177  0  0  -0.869957  0  2.064277  0  0  -0.68632  -0.842923  0  2.123048  0
