# generated using pymatgen
data_CdH16C24N2(ClO2)2
_symmetry_space_group_name_H-M   'P 1'
_cell_length_a   9.82272336
_cell_length_b   10.53690514
_cell_length_c   13.67429217
_cell_angle_alpha   105.07000970
_cell_angle_beta   96.07539831
_cell_angle_gamma   110.12494389
_symmetry_Int_Tables_number   1
_chemical_formula_structural   CdH16C24N2(ClO2)2
_chemical_formula_sum   'Cd2 H32 C48 N4 Cl4 O8'
_cell_volume   1253.06796107
_cell_formula_units_Z   2
loop_
 _symmetry_equiv_pos_site_id
 _symmetry_equiv_pos_as_xyz
  1  'x, y, z'
loop_
 _atom_site_type_symbol
 _atom_site_label
 _atom_site_symmetry_multiplicity
 _atom_site_fract_x
 _atom_site_fract_y
 _atom_site_fract_z
 _atom_site_occupancy
 _atom_site_hle17_bader_spin_density
 _atom_site_hle17_ddec_charge
 _atom_site_hle17_ddec_spin_density
 _atom_site_hle17_ddec_sum_bond_order
 _atom_site_hle17_magmom
 _atom_site_hse06_10hf_bader_spin_density
 _atom_site_hse06_10hf_ddec_charge
 _atom_site_hse06_10hf_ddec_spin_density
 _atom_site_hse06_10hf_ddec_sum_bond_order
 _atom_site_hse06_10hf_magmom
 _atom_site_hse06_bader_spin_density
 _atom_site_hse06_ddec_charge
 _atom_site_hse06_ddec_spin_density
 _atom_site_hse06_ddec_sum_bond_order
 _atom_site_hse06_magmom
 _atom_site_pbe_bader_spin_density
 _atom_site_pbe_cm5_charge
 _atom_site_pbe_ddec_charge
 _atom_site_pbe_ddec_spin_density
 _atom_site_pbe_ddec_sum_bond_order
 _atom_site_pbe_magmom
Cd  Cd0  1  0.41321753  0.12856067  0.58382774  1  0  1.111651  0  1.705848  0  0  0.916484  0  2.158049  0  0  0.976094  0  2.105442  0  0  0.773018  0.873166  0  2.194621  0
Cd  Cd1  1  0.58678068  0.87143968  0.41616818  1  0  1.111587  0  1.705931  0  0  0.916412  0  2.158161  0  0  0.976027  0  2.10555  0  0  0.773  0.873092  0  2.194741  0
H  H2  1  0.86176552  0.73878511  0.47666336  1  0  0.138109  0  0.96496  0  0  0.145947  0  1.026747  0  0  0.150099  0  1.02386  0  0  0.112844  0.142967  0  1.029052  0
H  H3  1  0.13823422  0.26121099  0.52333615  1  0  0.138146  0  0.965018  0  0  0.146001  0  1.026777  0  0  0.150152  0  1.023891  0  0  0.112855  0.143021  0  1.029083  0
H  H4  1  0.08066386  0.94244409  0.47285498  1  0  0.086095  0  0.936923  0  0  0.094514  0  1.000585  0  0  0.096749  0  0.999154  0  0  0.120619  0.092939  0  1.00162  0
H  H5  1  0.91933325  0.05755528  0.52714800  1  0  0.086054  0  0.936902  0  0  0.094484  0  1.000557  0  0  0.09672  0  0.999125  0  0  0.120605  0.092907  0  1.00159  0
H  H6  1  0.98956515  0.44345804  0.62264501  1  0  0.108887  0  0.947846  0  0  0.120835  0  1.004547  0  0  0.123672  0  1.004285  0  0  0.109167  0.118801  0  1.004975  0
H  H7  1  0.01044277  0.55654235  0.37736240  1  0  0.108819  0  0.947725  0  0  0.120755  0  1.004449  0  0  0.123594  0  1.004182  0  0  0.109126  0.118722  0  1.004875  0
H  H8  1  0.43662333  0.89591250  0.21041684  1  0  0.116091  0  0.985951  0  0  0.122393  0  1.054147  0  0  0.126511  0  1.050217  0  0  0.103187  0.119514  0  1.056955  0
H  H9  1  0.56337193  0.10408573  0.78957776  1  0  0.116122  0  0.98585  0  0  0.122429  0  1.054053  0  0  0.126549  0  1.050115  0  0  0.10317  0.119552  0  1.056858  0
H  H10  1  0.48554025  0.43977894  0.58051062  1  0  0.080079  0  0.939112  0  0  0.090164  0  0.999953  0  0  0.092328  0  0.998452  0  0  0.118776  0.088652  0  1.00084  0
H  H11  1  0.51446826  0.56022568  0.41949476  1  0  0.080008  0  0.939136  0  0  0.090127  0  0.999938  0  0  0.092294  0  0.998434  0  0  0.118747  0.088618  0  1.00082  0
H  H12  1  0.16174794  0.14046545  0.25779389  1  0  0.099351  0  0.953829  0  0  0.106827  0  1.018788  0  0  0.109929  0  1.017077  0  0  0.100942  0.104439  0  1.02033  0
H  H13  1  0.83824495  0.85953392  0.74220593  1  0  0.099282  0  0.95387  0  0  0.106755  0  1.01884  0  0  0.109858  0  1.017126  0  0  0.100917  0.104346  0  1.020401  0
H  H14  1  0.69561655  0.65936214  0.58030171  1  0  0.12641  0  0.985785  0  0  0.132534  0  1.051914  0  0  0.136527  0  1.050039  0  0  0.109161  0.129187  0  1.054093  0
H  H15  1  0.30439466  0.34063924  0.41970169  1  0  0.126391  0  0.985744  0  0  0.132541  0  1.051867  0  0  0.136536  0  1.049985  0  0  0.109139  0.129197  0  1.054045  0
H  H16  1  0.14675467  0.68213904  0.71240307  1  0  0.10827  0  0.944101  0  0  0.118875  0  1.001672  0  0  0.122578  0  0.99984  0  0  0.107377  0.116381  0  1.0029  0
H  H17  1  0.85325057  0.31786774  0.28760112  1  0  0.108272  0  0.944073  0  0  0.118848  0  1.001677  0  0  0.122552  0  0.999845  0  0  0.10735  0.116353  0  1.002903  0
H  H18  1  0.35441723  0.88929708  0.69708178  1  0  0.081085  0  0.947907  0  0  0.089185  0  1.013723  0  0  0.091078  0  1.01246  0  0  0.116285  0.087973  0  1.014376  0
H  H19  1  0.64558637  0.11071077  0.30292182  1  0  0.080983  0  0.9481  0  0  0.089187  0  1.013801  0  0  0.09103  0  1.012592  0  0  0.1163  0.087972  0  1.014456  0
H  H20  1  0.76715786  0.23458508  0.62075405  1  0  0.081948  0  0.953537  0  0  0.090864  0  1.016362  0  0  0.092698  0  1.015285  0  0  0.116221  0.089614  0  1.017099  0
H  H21  1  0.23284748  0.76541640  0.37925418  1  0  0.081874  0  0.95365  0  0  0.090796  0  1.016481  0  0  0.092628  0  1.015409  0  0  0.116204  0.089563  0  1.017201  0
H  H22  1  0.04419001  0.26427111  0.76318187  1  0  0.097211  0  0.941175  0  0  0.107599  0  1.000887  0  0  0.110976  0  0.998589  0  0  0.099413  0.104916  0  1.00294  0
H  H23  1  0.95581388  0.73573995  0.23682240  1  0  0.097168  0  0.941168  0  0  0.107561  0  1.000881  0  0  0.110937  0  0.998584  0  0  0.099396  0.104878  0  1.002939  0
H  H24  1  0.38540314  0.86270367  0.02272587  1  0  0.110973  0  0.935654  0  0  0.122453  0  0.990832  0  0  0.126098  0  0.989169  0  0  0.105518  0.119908  0  0.992073  0
H  H25  1  0.61458666  0.13729887  0.97726785  1  0  0.110894  0  0.935638  0  0  0.122427  0  0.990769  0  0  0.126071  0  0.989102  0  0  0.105491  0.119878  0  0.992015  0
H  H26  1  0.10832181  0.10476144  0.06841609  1  0  0.106183  0  0.967228  0  0  0.111709  0  1.036263  0  0  0.114855  0  1.035298  0  0  0.096615  0.109566  0  1.036869  0
H  H27  1  0.89166164  0.89523480  0.93158333  1  0  0.106082  0  0.967257  0  0  0.111655  0  1.036281  0  0  0.114799  0  1.03532  0  0  0.096579  0.109508  0  1.03689  0
H  H28  1  0.45874728  0.33879357  0.95236101  1  0  0.103231  0  0.942651  0  0  0.114137  0  1.000288  0  0  0.117272  0  0.998579  0  0  0.1044  0.111921  0  1.001486  0
H  H29  1  0.54126000  0.66120669  0.04763318  1  0  0.103252  0  0.942643  0  0  0.114169  0  1.000264  0  0  0.117303  0  0.998554  0  0  0.104383  0.111952  0  1.001461  0
H  H30  1  0.94458101  0.32640266  0.92239822  1  0  0.105772  0  0.954512  0  0  0.114159  0  1.017497  0  0  0.117032  0  1.017009  0  0  0.0979  0.112154  0  1.017956  0
H  H31  1  0.05542003  0.67359349  0.07760723  1  0  0.105799  0  0.954468  0  0  0.114168  0  1.017469  0  0  0.117036  0  1.016986  0  0  0.097922  0.11217  0  1.017913  0
H  H32  1  0.36434989  0.41029855  0.11274550  1  0  0.111903  0  0.931424  0  0  0.124118  0  0.984871  0  0  0.12741  0  0.983833  0  0  0.105411  0.121681  0  0.985774  0
H  H33  1  0.63566158  0.58970169  0.88725110  1  0  0.111923  0  0.931436  0  0  0.124179  0  0.984833  0  0  0.127459  0  0.983811  0  0  0.105394  0.121742  0  0.985735  0
C  C34  1  0.98568745  0.69178723  0.59550092  1  0  0.091773  0  3.757124  0  0  0.102943  0  3.990633  0  0  0.106182  0  4.012182  0  0  0.011553  0.101013  0  3.975999  0
C  C35  1  0.01431615  0.30821097  0.40449777  1  0  0.091636  0  3.757067  0  0  0.10294  0  3.990415  0  0  0.10618  0  4.011969  0  0  0.011529  0.101006  0  3.975783  0
C  C36  1  0.85971771  0.56758087  0.59879998  1  0  0.094592  0  3.761983  0  0  0.10599  0  3.993489  0  0  0.109877  0  4.015057  0  0  0.011305  0.103629  0  3.978477  0
C  C37  1  0.14029030  0.43242051  0.40120032  1  0  0.094666  0  3.761996  0  0  0.106028  0  3.993494  0  0  0.109915  0  4.015066  0  0  0.011311  0.103673  0  3.978481  0
C  C38  1  0.30522525  0.02396628  0.24765350  1  0  -0.085569  0  3.770463  0  0  -0.062853  0  4.002458  0  0  -0.072841  0  4.026472  0  0  -0.02893  -0.056372  0  3.986616  0
C  C39  1  0.69476768  0.97603092  0.75234369  1  0  -0.085571  0  3.770523  0  0  -0.062916  0  4.002567  0  0  -0.0729  0  4.026576  0  0  -0.02895  -0.056437  0  3.986716  0
C  C40  1  0.96742711  0.76811554  0.52843242  1  0  -0.142374  0  3.660146  0  0  -0.162121  0  3.908171  0  0  -0.167978  0  3.926103  0  0  -0.074637  -0.158138  0  3.896296  0
C  C41  1  0.03257473  0.23188056  0.47156867  1  0  -0.142386  0  3.660161  0  0  -0.162192  0  3.908158  0  0  -0.168051  0  3.926093  0  0  -0.074644  -0.158212  0  3.896286  0
C  C42  1  0.34242388  0.05190327  0.36214772  1  0  0.63876  0  3.919052  0  0  0.589302  0  4.208589  0  0  0.624991  0  4.20081  0  0  0.197398  0.56513  0  4.21263  0
C  C43  1  0.65756529  0.94808970  0.63784913  1  0  0.638715  0  3.919096  0  0  0.589292  0  4.208599  0  0  0.624977  0  4.200818  0  0  0.197426  0.565125  0  4.21263  0
C  C44  1  0.08963019  0.88189246  0.52520878  1  0  0.130888  0  3.698189  0  0  0.100268  0  3.951757  0  0  0.106706  0  3.970373  0  0  0.050369  0.095873  0  3.938999  0
C  C45  1  0.91036766  0.11810900  0.47479173  1  0  0.130951  0  3.698335  0  0  0.100325  0  3.951904  0  0  0.106764  0  3.970523  0  0  0.050397  0.095937  0  3.939136  0
C  C46  1  0.31485708  0.25377464  0.75302018  1  0  0.624282  0  3.953605  0  0  0.578754  0  4.243327  0  0  0.613241  0  4.236889  0  0  0.182287  0.555497  0  4.246951  0
C  C47  1  0.68514084  0.74622999  0.24697660  1  0  0.624179  0  3.953702  0  0  0.578609  0  4.243495  0  0  0.613094  0  4.237066  0  0  0.182288  0.555354  0  4.247117  0
C  C48  1  0.87988533  0.44769848  0.61289713  1  0  -0.159253  0  3.718627  0  0  -0.178878  0  3.969941  0  0  -0.186401  0  3.991264  0  0  -0.083956  -0.174022  0  3.955833  0
C  C49  1  0.12011954  0.55229976  0.38710675  1  0  -0.159151  0  3.71859  0  0  -0.178764  0  3.969894  0  0  -0.186283  0  3.991217  0  0  -0.083891  -0.173908  0  3.955787  0
C  C50  1  0.36590843  0.94357563  0.18060919  1  0  -0.059745  0  3.720505  0  0  -0.082854  0  3.968929  0  0  -0.081151  0  3.987702  0  0  -0.085435  -0.083994  0  3.955847  0
C  C51  1  0.63408370  0.05642478  0.81938715  1  0  -0.059835  0  3.720605  0  0  -0.082923  0  3.969021  0  0  -0.081224  0  3.987798  0  0  -0.085462  -0.084067  0  3.955941  0
C  C52  1  0.59923549  0.44518999  0.58800388  1  0  0.129471  0  3.717391  0  0  0.100174  0  3.964186  0  0  0.107078  0  3.983384  0  0  0.048474  0.095731  0  3.950835  0
C  C53  1  0.40076909  0.55481036  0.41199749  1  0  0.129543  0  3.717272  0  0  0.100244  0  3.96409  0  0  0.107147  0  3.983291  0  0  0.048497  0.095801  0  3.950739  0
C  C54  1  0.21133314  0.08059088  0.20619323  1  0  -0.044901  0  3.729587  0  0  -0.067704  0  3.977243  0  0  -0.065691  0  3.996696  0  0  -0.082869  -0.069177  0  3.964295  0
C  C55  1  0.78865480  0.91940422  0.79380253  1  0  -0.0448  0  3.729439  0  0  -0.067584  0  3.977105  0  0  -0.065565  0  3.996548  0  0  -0.082826  -0.06904  0  3.964169  0
C  C56  1  0.71533627  0.56586571  0.58731089  1  0  -0.165099  0  3.691576  0  0  -0.182277  0  3.935778  0  0  -0.190145  0  3.95623  0  0  -0.081312  -0.17679  0  3.922119  0
C  C57  1  0.28467134  0.43413461  0.41268991  1  0  -0.165152  0  3.69165  0  0  -0.182361  0  3.935865  0  0  -0.190233  0  3.95632  0  0  -0.081302  -0.176878  0  3.92221  0
C  C58  1  0.12728258  0.73537435  0.65711250  1  0  -0.161375  0  3.715235  0  0  -0.180438  0  3.964134  0  0  -0.187131  0  3.984023  0  0  -0.083513  -0.176164  0  3.950709  0
C  C59  1  0.87271901  0.26462604  0.34289019  1  0  -0.161324  0  3.715242  0  0  -0.180411  0  3.964141  0  0  -0.187104  0  3.984016  0  0  -0.083473  -0.176135  0  3.950714  0
C  C60  1  0.24329925  0.85124457  0.64955611  1  0  0.137678  0  3.709991  0  0  0.106946  0  3.960358  0  0  0.114085  0  3.979254  0  0  0.046904  0.102131  0  3.947537  0
C  C61  1  0.75670180  0.14876222  0.35044567  1  0  0.137775  0  3.710023  0  0  0.106959  0  3.9604  0  0  0.114136  0  3.979311  0  0  0.046863  0.102141  0  3.947579  0
C  C62  1  0.75719522  0.33083571  0.61151872  1  0  0.139542  0  3.709443  0  0  0.105975  0  3.965551  0  0  0.113567  0  3.984014  0  0  0.048152  0.100801  0  3.953184  0
C  C63  1  0.24281013  0.66916361  0.38848614  1  0  0.139594  0  3.709469  0  0  0.106036  0  3.965592  0  0  0.113622  0  3.984064  0  0  0.048208  0.100849  0  3.953229  0
C  C64  1  0.25776487  0.29860438  0.84822196  1  0  -0.06509  0  3.760315  0  0  -0.044732  0  3.994284  0  0  -0.052589  0  4.016886  0  0  -0.025261  -0.040044  0  3.979443  0
C  C65  1  0.74223552  0.70139598  0.15177700  1  0  -0.06509  0  3.760304  0  0  -0.044718  0  3.994297  0  0  -0.052575  0  4.016899  0  0  -0.025214  -0.040028  0  3.979458  0
C  C66  1  0.11340691  0.29613421  0.84003431  1  0  -0.056116  0  3.740963  0  0  -0.078876  0  3.990502  0  0  -0.078087  0  4.010376  0  0  -0.085636  -0.079084  0  3.977269  0
C  C67  1  0.88659778  0.70386616  0.15996927  1  0  -0.056012  0  3.740782  0  0  -0.078782  0  3.990315  0  0  -0.077992  0  4.010189  0  0  -0.085616  -0.07899  0  3.977088  0
C  C68  1  0.33680540  0.92348359  0.07456535  1  0  -0.140976  0  3.762819  0  0  -0.163287  0  4.014681  0  0  -0.167896  0  4.03451  0  0  -0.098084  -0.160131  0  4.000709  0
C  C69  1  0.66318294  0.07651789  0.92542808  1  0  -0.140785  0  3.762642  0  0  -0.163157  0  4.014426  0  0  -0.167776  0  4.034286  0  0  -0.098009  -0.160005  0  4.000458  0
C  C70  1  0.18074342  0.06050814  0.10035558  1  0  -0.14365  0  3.766027  0  0  -0.165516  0  4.01986  0  0  -0.170484  0  4.041372  0  0  -0.100378  -0.16217  0  4.004917  0
C  C71  1  0.81924222  0.93948595  0.89964351  1  0  -0.143526  0  3.765869  0  0  -0.165495  0  4.019694  0  0  -0.170462  0  4.041205  0  0  -0.100404  -0.16214  0  4.004722  0
C  C72  1  0.24511161  0.98292130  0.03531476  1  0  0.14698  0  3.8005  0  0  0.159241  0  4.062701  0  0  0.164011  0  4.084314  0  0  0.016322  0.156201  0  4.048267  0
C  C73  1  0.75487771  0.01707701  0.96468319  1  0  0.1468  0  3.800393  0  0  0.159157  0  4.06252  0  0  0.163924  0  4.084132  0  0  0.016328  0.156124  0  4.048081  0
C  C74  1  0.34717172  0.33839470  0.94676261  1  0  -0.053742  0  3.746484  0  0  -0.07847  0  3.999697  0  0  -0.077678  0  4.019948  0  0  -0.083394  -0.078871  0  3.986068  0
C  C75  1  0.65283574  0.66160559  0.05323525  1  0  -0.0538  0  3.746515  0  0  -0.078557  0  3.999766  0  0  -0.077764  0  4.020014  0  0  -0.083437  -0.078954  0  3.986126  0
C  C76  1  0.05757990  0.33076780  0.92840106  1  0  -0.142487  0  3.776492  0  0  -0.165862  0  4.030499  0  0  -0.170462  0  4.053095  0  0  -0.103624  -0.163192  0  4.015714  0
C  C77  1  0.94242060  0.66922726  0.07160194  1  0  -0.142584  0  3.776549  0  0  -0.165944  0  4.030552  0  0  -0.170543  0  4.053151  0  0  -0.103693  -0.163273  0  4.015775  0
C  C78  1  0.14954045  0.37154227  0.02560811  1  0  0.142317  0  3.800429  0  0  0.156062  0  4.061794  0  0  0.160376  0  4.082699  0  0  0.012058  0.153139  0  4.047553  0
C  C79  1  0.85046752  0.62845378  0.97439330  1  0  0.142326  0  3.800474  0  0  0.156104  0  4.061788  0  0  0.160418  0  4.082692  0  0  0.012045  0.153174  0  4.047555  0
C  C80  1  0.29471437  0.37702634  0.03591914  1  0  -0.141662  0  3.768311  0  0  -0.162764  0  4.020041  0  0  -0.167036  0  4.040672  0  0  -0.099035  -0.15955  0  4.005655  0
C  C81  1  0.70529330  0.62297182  0.96407976  1  0  -0.14166  0  3.768251  0  0  -0.162801  0  4.019975  0  0  -0.167063  0  4.040616  0  0  -0.098953  -0.159583  0  4.005586  0
N  N82  1  0.22503633  0.92290219  0.58444382  1  0  -0.327459  0  3.279483  0  0  -0.247824  0  3.540119  0  0  -0.268351  0  3.560771  0  0  -0.328805  -0.233229  0  3.525641  0
N  N83  1  0.77496468  0.07709927  0.41555906  1  0  -0.327469  0  3.279483  0  0  -0.247827  0  3.540131  0  0  -0.268353  0  3.560765  0  0  -0.328804  -0.233231  0  3.525647  0
N  N84  1  0.61892020  0.32855103  0.59774612  1  0  -0.319979  0  3.260604  0  0  -0.240912  0  3.523929  0  0  -0.261021  0  3.542275  0  0  -0.327126  -0.22653  0  3.510976  0
N  N85  1  0.38108482  0.67145038  0.40225550  1  0  -0.31994  0  3.260309  0  0  -0.240942  0  3.523729  0  0  -0.261048  0  3.542073  0  0  -0.327175  -0.22656  0  3.510785  0
Cl  Cl86  1  0.21094418  0.96021606  0.90387380  1  0  -0.095233  0  1.364715  0  0  -0.077375  0  1.590576  0  0  -0.082611  0  1.588543  0  0  0.011111  -0.073113  0  1.591371  0
Cl  Cl87  1  0.78904660  0.03979080  0.09612598  1  0  -0.095151  0  1.364744  0  0  -0.077329  0  1.590574  0  0  -0.082562  0  1.588542  0  0  0.011143  -0.073071  0  1.591368  0
Cl  Cl88  1  0.08267847  0.41545515  0.13676707  1  0  -0.118441  0  1.35669  0  0  -0.100319  0  1.577847  0  0  -0.104697  0  1.574961  0  0  -0.007793  -0.097004  0  1.579809  0
Cl  Cl89  1  0.91733539  0.58453983  0.86323882  1  0  -0.118413  0  1.356704  0  0  -0.100304  0  1.577852  0  0  -0.104682  0  1.574966  0  0  -0.00778  -0.096982  0  1.579813  0
O  O90  1  0.29545734  0.13507226  0.42175580  1  0  -0.639445  0  1.981686  0  0  -0.579062  0  2.227187  0  0  -0.607115  0  2.217552  0  0  -0.326395  -0.559357  0  2.233218  0
O  O91  1  0.70454203  0.86492811  0.57824311  1  0  -0.639487  0  1.981739  0  0  -0.579105  0  2.227207  0  0  -0.607167  0  2.217601  0  0  -0.326432  -0.559405  0  2.233238  0
O  O92  1  0.42112067  0.99337306  0.39901042  1  0  -0.679008  0  2.061501  0  0  -0.609438  0  2.331435  0  0  -0.639809  0  2.318885  0  0  -0.337589  -0.587631  0  2.339035  0
O  O93  1  0.57885853  0.00660605  0.60097867  1  0  -0.678967  0  2.061593  0  0  -0.609381  0  2.331486  0  0  -0.639762  0  2.318968  0  0  -0.337599  -0.587575  0  2.339077  0
O  O94  1  0.42744305  0.21966708  0.76398158  1  0  -0.649104  0  1.969261  0  0  -0.590506  0  2.208479  0  0  -0.619656  0  2.199255  0  0  -0.34128  -0.570848  0  2.214626  0
O  O95  1  0.57255622  0.78033859  0.23601329  1  0  -0.64907  0  1.9692  0  0  -0.590432  0  2.208381  0  0  -0.61958  0  2.199162  0  0  -0.341326  -0.57078  0  2.214529  0
O  O96  1  0.24894663  0.24811072  0.66561144  1  0  -0.658793  0  1.92415  0  0  -0.606379  0  2.155175  0  0  -0.633169  0  2.145403  0  0  -0.347696  -0.587513  0  2.161106  0
O  O97  1  0.75105286  0.75190030  0.33438600  1  0  -0.6587  0  1.924234  0  0  -0.606269  0  2.15528  0  0  -0.633057  0  2.145512  0  0  -0.347663  -0.5874  0  2.161208  0
