# generated using pymatgen
data_Zn4H4C25S4Cl4O15
_symmetry_space_group_name_H-M   'P 1'
_cell_length_a   19.62287185
_cell_length_b   19.72657938
_cell_length_c   33.22736670
_cell_angle_alpha   79.07584449
_cell_angle_beta   79.38524984
_cell_angle_gamma   64.11404830
_symmetry_Int_Tables_number   1
_chemical_formula_structural   Zn4H4C25S4Cl4O15
_chemical_formula_sum   'Zn16 H16 C100 S16 Cl16 O60'
_cell_volume   11286.64362599
_cell_formula_units_Z   4
loop_
 _symmetry_equiv_pos_site_id
 _symmetry_equiv_pos_as_xyz
  1  'x, y, z'
loop_
 _atom_site_type_symbol
 _atom_site_label
 _atom_site_symmetry_multiplicity
 _atom_site_fract_x
 _atom_site_fract_y
 _atom_site_fract_z
 _atom_site_occupancy
 _atom_site_pbe_bader_charge
 _atom_site_pbe_bader_spin_density
 _atom_site_pbe_cm5_charge
 _atom_site_pbe_ddec_charge
 _atom_site_pbe_ddec_spin_density
 _atom_site_pbe_ddec_sum_bond_order
 _atom_site_pbe_magmom
Zn  Zn0  1  0.05591757  0.40077831  0.47904235  1  1.32124  0  0.673147  0.972302  0  2.338916  0
Zn  Zn1  1  0.98473180  0.48343151  0.56008267  1  1.321267  0  0.673734  0.963307  0  2.386993  0
Zn  Zn2  1  0.05670631  0.56434138  0.48239042  1  1.323205  0  0.681098  0.980334  0  2.34217  0
Zn  Zn3  1  0.90004530  0.55518980  0.47872010  1  1.322127  0  0.680305  0.97666  0  2.356008  0
Zn  Zn4  1  0.69142276  0.35067718  0.27168777  1  1.319324  0  0.67316  0.971676  0  2.345623  0
Zn  Zn5  1  0.68870837  0.19094802  0.26707032  1  1.318595  0  0.672722  0.966854  0  2.366397  0
Zn  Zn6  1  0.76931392  0.26500439  0.18944931  1  1.324903  0  0.681053  0.981442  0  2.335164  0
Zn  Zn7  1  0.84642049  0.19834026  0.27279610  1  1.323487  0  0.673481  0.965465  0  2.382073  0
Zn  Zn8  1  0.26561476  0.76709901  0.68944176  1  1.311979  0  0.673905  0.963539  0  2.394378  0
Zn  Zn9  1  0.35106469  0.69674943  0.76972267  1  1.320178  0  0.673623  0.968304  0  2.363641  0
Zn  Zn10  1  0.19267748  0.84867792  0.77184853  1  1.324521  0  0.680326  0.982335  0  2.324653  0
Zn  Zn11  1  0.19266131  0.68711711  0.76675344  1  1.319818  0  0.673384  0.969009  0  2.364105  0
Zn  Zn12  1  0.55940442  0.06150985  0.98296652  1  1.315805  0  0.672988  0.968005  0  2.367182  0
Zn  Zn13  1  0.40252118  0.05352790  0.97714240  1  1.314479  0  0.674173  0.96671  0  2.378541  0
Zn  Zn14  1  0.55666134  0.90037774  0.97855180  1  1.31887  0  0.672804  0.970726  0  2.349018  0
Zn  Zn15  1  0.48256606  0.98397579  0.06041382  1  1.319857  0  0.673657  0.971075  0  2.355757  0
H  H16  1  0.95323380  0.25552697  0.34762937  1  0.129346  0  0.113774  0.120855  0  0.986368  0
H  H17  1  0.73978400  0.45185082  0.35693563  1  0.131931  0  0.115028  0.126851  0  0.984838  0
H  H18  1  0.00274655  0.30298784  0.39584717  1  0.128186  0  0.114726  0.121711  0  0.982169  0
H  H19  1  0.09230087  0.60169177  0.70002972  1  0.120085  0  0.11409  0.120607  0  0.985273  0
H  H20  1  0.21149840  0.69064586  0.59809672  1  0.097141  0  0.11455  0.125808  0  0.989281  0
H  H21  1  0.04465791  0.55510844  0.65040820  1  0.117888  0  0.114365  0.121125  0  0.984005  0
H  H22  1  0.55515714  0.04494515  0.15279050  1  0.118783  0  0.114301  0.121086  0  0.985223  0
H  H23  1  0.64027782  0.16407794  0.04901519  1  0.106808  0  0.114481  0.125629  0  0.988112  0
H  H24  1  0.60564744  0.09239424  0.20050189  1  0.102352  0  0.114922  0.121911  0  0.98329  0
H  H25  1  0.49911375  0.79079952  0.90189275  1  0.08544  0  0.114822  0.121348  0  0.982436  0
H  H26  1  0.30435256  0.00564872  0.89349806  1  0.107027  0  0.114019  0.125276  0  0.990139  0
H  H27  1  0.44856954  0.74547571  0.85318413  1  0.118665  0  0.114813  0.121819  0  0.983842  0
H  H28  1  0.78513986  0.57519520  0.36163669  1  0.613733  0  0.338567  0.370822  0  0.871398  0
H  H29  1  0.11115112  0.74885338  0.53433636  1  0.615316  0  0.338911  0.370222  0  0.871401  0
H  H30  1  0.78524628  0.14649758  0.07183490  1  0.590048  0  0.3391  0.370418  0  0.8719  0
H  H31  1  0.17946507  0.96738507  0.89021305  1  0.615075  0  0.338695  0.370329  0  0.872455  0
C  C32  1  0.06020011  0.31712867  0.56290060  1  1.589458  0  0.215913  0.622052  0  4.212072  0
C  C33  1  0.06956740  0.56998013  0.56861184  1  1.575167  0  0.230029  0.604451  0  4.168794  0
C  C34  1  0.18231234  0.44161543  0.43943930  1  1.595313  0  0.217717  0.624558  0  4.205682  0
C  C35  1  0.93338088  0.68555311  0.43828990  1  1.574161  0  0.215628  0.619692  0  4.216274  0
C  C36  1  0.93168599  0.43083531  0.43080540  1  1.57203  0  0.23015  0.604414  0  4.167624  0
C  C37  1  0.81791552  0.55945101  0.56210269  1  1.579621  0  0.218082  0.622998  0  4.208296  0
C  C38  1  0.56530947  0.31022490  0.31280790  1  1.592129  0  0.216703  0.624209  0  4.211299  0
C  C39  1  0.68198842  0.17953665  0.18106349  1  1.556769  0  0.230801  0.605848  0  4.167331  0
C  C40  1  0.68704466  0.43142080  0.18683224  1  1.568691  0  0.218135  0.625205  0  4.206425  0
C  C41  1  0.93638796  0.19038926  0.19102880  1  1.574606  0  0.215692  0.620574  0  4.213736  0
C  C42  1  0.81497977  0.32364213  0.32016083  1  1.565929  0  0.230677  0.604345  0  4.164991  0
C  C43  1  0.81145939  0.06674014  0.31004946  1  1.582083  0  0.215713  0.62222  0  4.21169  0
C  C44  1  0.43261345  0.68768796  0.68567960  1  1.581238  0  0.216266  0.622872  0  4.209774  0
C  C45  1  0.31997975  0.81941754  0.81816916  1  1.575205  0  0.231091  0.606255  0  4.165841  0
C  C46  1  0.19007945  0.93367050  0.68891968  1  1.5615  0  0.217839  0.623315  0  4.207201  0
C  C47  1  0.06530469  0.80679008  0.81007879  1  1.605156  0  0.216245  0.621146  0  4.213376  0
C  C48  1  0.18148573  0.67884715  0.68063880  1  1.566173  0  0.230591  0.603955  0  4.168199  0
C  C49  1  0.31688027  0.56772073  0.81219682  1  1.584648  0  0.216763  0.624591  0  4.205448  0
C  C50  1  0.43759711  0.18395539  0.93809978  1  1.582325  0  0.216  0.621992  0  4.21241  0
C  C51  1  0.43284425  0.92869023  0.92985061  1  1.566556  0  0.230895  0.605371  0  4.164713  0
C  C52  1  0.68444140  0.94028222  0.93908815  1  1.589947  0  0.21549  0.622108  0  4.212118  0
C  C53  1  0.56128428  0.81676530  0.06240366  1  1.578393  0  0.21543  0.622742  0  4.208314  0
C  C54  1  0.56715368  0.07217362  0.06941752  1  1.552689  0  0.230535  0.604352  0  4.165773  0
C  C55  1  0.31518201  0.06084241  0.05986969  1  1.568377  0  0.21611  0.622824  0  4.21055  0
C  C56  1  0.89919993  0.40325145  0.40341492  1  0.011515  0  -0.005917  -0.045003  0  3.936497  0
C  C57  1  0.84402289  0.35152860  0.34928487  1  -0.016766  0  -0.008991  -0.01909  0  3.963379  0
C  C58  1  0.82427050  0.44601003  0.39286204  1  -0.035994  0  -0.005699  -0.065319  0  3.972003  0
C  C59  1  0.91792943  0.30869638  0.36040412  1  0.003038  0  -0.074416  -0.085784  0  3.959033  0
C  C60  1  0.79751976  0.41992835  0.36550626  1  -0.06659  0  -0.075339  -0.122113  0  3.938728  0
C  C61  1  0.94514398  0.33479246  0.38717008  1  -0.071855  0  -0.073477  -0.081016  0  3.962921  0
C  C62  1  0.10149571  0.59649713  0.59683070  1  -0.014964  0  -0.004664  -0.043061  0  3.934025  0
C  C63  1  0.15383312  0.64949092  0.65166594  1  -0.038362  0  -0.009373  -0.018797  0  3.968108  0
C  C64  1  0.14902637  0.63464601  0.58143606  1  -0.013968  0  -0.00644  -0.065771  0  3.974601  0
C  C65  1  0.10757502  0.61061983  0.66686677  1  -0.010692  0  -0.072927  -0.083518  0  3.95519  0
C  C66  1  0.17439774  0.66130733  0.60912376  1  -0.059382  0  -0.075806  -0.123824  0  3.942175  0
C  C67  1  0.08154994  0.58461867  0.63944862  1  -0.002851  0  -0.07228  -0.07987  0  3.955937  0
C  C68  1  0.30527135  0.45490287  0.40289735  1  0.210082  0  0.01306  0.103911  0  4.07945  0
C  C69  1  0.44335442  0.29638440  0.35059989  1  0.112445  0  0.010823  0.105205  0  4.076715  0
C  C70  1  0.25754284  0.41727790  0.41506641  1  -0.133249  0  -0.028199  -0.184956  0  3.927608  0
C  C71  1  0.49075234  0.33426432  0.33784288  1  -0.082758  0  -0.029692  -0.188428  0  3.936336  0
C  C72  1  0.37560370  0.34049899  0.37416884  1  -0.159372  0  -0.028161  -0.07172  0  4.097716  0
C  C73  1  0.37296266  0.41068420  0.37920380  1  -0.131276  0  -0.026014  -0.071717  0  4.090221  0
C  C74  1  0.72545169  0.57576722  0.62971926  1  0.098414  0  0.010231  0.104511  0  4.079563  0
C  C75  1  0.52467915  0.66886081  0.61776835  1  0.155198  0  0.012225  0.107632  0  4.074947  0
C  C76  1  0.74328641  0.58273262  0.58699558  1  -0.069115  0  -0.027327  -0.186954  0  3.93487  0
C  C77  1  0.50687888  0.66215167  0.66050968  1  -0.125062  0  -0.029408  -0.187725  0  3.93564  0
C  C78  1  0.60456282  0.63674248  0.60651627  1  -0.114569  0  -0.025997  -0.075811  0  4.093591  0
C  C79  1  0.64564563  0.60666626  0.64089280  1  -0.111912  0  -0.02856  -0.074292  0  4.103586  0
C  C80  1  0.07582740  0.22561129  0.63116283  1  0.230188  0  0.011409  0.105381  0  4.074709  0
C  C81  1  0.17706111  0.02559695  0.62110264  1  0.138125  0  0.009923  0.103496  0  4.079241  0
C  C82  1  0.08571354  0.24303913  0.58843079  1  -0.162846  0  -0.028117  -0.184016  0  3.929759  0
C  C83  1  0.16676880  0.00814152  0.66383138  1  -0.10165  0  -0.027324  -0.186494  0  3.930986  0
C  C84  1  0.14426558  0.10497797  0.60926558  1  -0.102613  0  -0.027949  -0.073167  0  4.100645  0
C  C85  1  0.10962171  0.14619557  0.64311398  1  -0.189985  0  -0.026369  -0.074649  0  4.09388  0
C  C86  1  0.83913256  0.80289484  0.39606018  1  0.124657  0  0.010224  0.102036  0  4.080946  0
C  C87  1  0.90601868  0.94753540  0.35069866  1  0.088858  0  0.010368  0.105347  0  4.079757  0
C  C88  1  0.90797451  0.75943424  0.41252991  1  -0.068858  0  -0.028678  -0.185968  0  3.935249  0
C  C89  1  0.83716631  0.99147377  0.33433944  1  -0.068754  0  -0.02974  -0.18748  0  3.93586  0
C  C90  1  0.90682761  0.87857060  0.37294851  1  -0.113682  0  -0.028472  -0.07514  0  4.101122  0
C  C91  1  0.83862389  0.87143503  0.37322405  1  -0.128009  0  -0.027938  -0.073544  0  4.096193  0
C  C92  1  0.65095881  0.15449690  0.15160370  1  0.0403  0  -0.005119  -0.043829  0  3.932503  0
C  C93  1  0.59565261  0.10129327  0.09819590  1  -0.000941  0  -0.009811  -0.019619  0  3.962108  0
C  C94  1  0.66102680  0.17555970  0.10867609  1  -0.071126  0  -0.006821  -0.067906  0  3.979324  0
C  C95  1  0.58486864  0.08137321  0.14087932  1  -0.020296  0  -0.073038  -0.084344  0  3.956385  0
C  C96  1  0.63352655  0.14832083  0.08229805  1  -0.005188  0  -0.076197  -0.12276  0  3.940729  0
C  C97  1  0.61256899  0.10784261  0.16723718  1  -0.057896  0  -0.073117  -0.080256  0  3.958567  0
C  C98  1  0.66955905  0.52373552  0.11868732  1  0.163512  0  0.012104  0.102869  0  4.080171  0
C  C99  1  0.57722229  0.72377683  0.13016938  1  0.071051  0  0.010295  0.105621  0  4.076362  0
C  C100  1  0.66239107  0.50573361  0.16146066  1  -0.076599  0  -0.027344  -0.184362  0  3.92752  0
C  C101  1  0.58486637  0.74216314  0.08744193  1  -0.072377  0  -0.029716  -0.188283  0  3.933289  0
C  C102  1  0.60818542  0.64417863  0.14153572  1  -0.068973  0  -0.028601  -0.073965  0  4.097561  0
C  C103  1  0.63846256  0.60346791  0.10733720  1  -0.191586  0  -0.026655  -0.071403  0  4.088688  0
C  C104  1  0.08415249  0.12299814  0.17874494  1  0.153804  0  0.010458  0.104522  0  4.07625  0
C  C105  1  0.16759748  0.12838125  0.07240308  1  0.211424  0  0.011038  0.105962  0  4.076297  0
C  C106  1  0.01146890  0.16444106  0.16636645  1  -0.137677  0  -0.027688  -0.184682  0  3.928515  0
C  C107  1  0.24033693  0.08689537  0.08474053  1  -0.16178  0  -0.029113  -0.187121  0  3.929967  0
C  C108  1  0.11067284  0.14159379  0.10672675  1  -0.163836  0  -0.028402  -0.076147  0  4.098014  0
C  C109  1  0.14112749  0.10995545  0.14442559  1  -0.133778  0  -0.027671  -0.072735  0  4.094319  0
C  C110  1  0.34883818  0.84987609  0.84603036  1  -0.006552  0  -0.004193  -0.041666  0  3.930769  0
C  C111  1  0.40413187  0.90068460  0.90063965  1  -0.01482  0  -0.009004  -0.020026  0  3.964186  0
C  C112  1  0.30729924  0.92394966  0.85712330  1  -0.053305  0  -0.006803  -0.069279  0  3.980983  0
C  C113  1  0.44561282  0.82744014  0.88922788  1  -0.026029  0  -0.073444  -0.084051  0  3.952638  0
C  C114  1  0.33522539  0.94850533  0.88460204  1  -0.01667  0  -0.076828  -0.123516  0  3.942474  0
C  C115  1  0.41778042  0.80249349  0.86215741  1  0.020773  0  -0.072527  -0.080428  0  3.957086  0
C  C116  1  0.41015478  0.44968048  0.85472336  1  0.182326  0  0.0108  0.104169  0  4.077972  0
C  C117  1  0.34400142  0.30330342  0.89683630  1  0.145194  0  0.01099  0.10523  0  4.078633  0
C  C118  1  0.34220850  0.49319700  0.83741032  1  -0.139226  0  -0.028134  -0.186245  0  3.93218  0
C  C119  1  0.41220227  0.25930946  0.91385003  1  -0.152885  0  -0.028799  -0.186821  0  3.932243  0
C  C120  1  0.34338962  0.37268512  0.87527723  1  -0.109507  0  -0.027692  -0.073474  0  4.097679  0
C  C121  1  0.41081622  0.38031930  0.87645513  1  -0.116721  0  -0.026871  -0.071086  0  4.090787  0
C  C122  1  0.94433513  0.79242572  0.84978231  1  0.151266  0  0.010027  0.104823  0  4.076597  0
C  C123  1  0.80501301  0.95443934  0.89892454  1  0.132906  0  0.009862  0.104301  0  4.078223  0
C  C124  1  0.99041457  0.83118862  0.83495229  1  -0.134868  0  -0.027811  -0.185698  0  3.930499  0
C  C125  1  0.75881274  0.91578160  0.91378284  1  -0.079217  0  -0.028838  -0.187113  0  3.931534  0
C  C126  1  0.87257581  0.90943079  0.87550928  1  -0.120953  0  -0.028318  -0.074656  0  4.096917  0
C  C127  1  0.87656306  0.83750922  0.87305446  1  -0.111969  0  -0.027463  -0.073763  0  4.094715  0
C  C128  1  0.76852582  0.51587579  0.41250038  1  1.562899  0  0.229613  0.583202  0  4.134295  0
C  C129  1  0.17969065  0.64274937  0.53651513  1  1.561462  0  0.229906  0.584092  0  4.130572  0
C  C130  1  0.69465771  0.23164258  0.08961467  1  1.551809  0  0.23004  0.584574  0  4.131077  0
C  C131  1  0.23679177  0.98124040  0.83808504  1  1.559818  0  0.229842  0.584804  0  4.132385  0
S  S132  1  0.29553132  0.32824578  0.39794551  1  0.289462  0  0.088968  0.152787  0  2.776297  0
S  S133  1  0.45253176  0.42335826  0.35486760  1  0.332038  0  0.097637  0.16395  0  2.77011  0
S  S134  1  0.66291727  0.62627089  0.56059576  1  0.330043  0  0.112108  0.187647  0  2.76606  0
S  S135  1  0.58740874  0.61656339  0.68681742  1  0.297645  0  0.091488  0.157495  0  2.781598  0
S  S136  1  0.13636702  0.16263671  0.56299873  1  0.300992  0  0.093072  0.158084  0  2.773817  0
S  S137  1  0.11773814  0.08850850  0.68939544  1  0.33396  0  0.109006  0.182524  0  2.760914  0
S  S138  1  0.97186368  0.80184664  0.40003462  1  0.315062  0  0.09723  0.165752  0  2.780145  0
S  S139  1  0.77381843  0.94832165  0.34601292  1  0.302648  0  0.093195  0.158991  0  2.772059  0
S  S140  1  0.61753731  0.58573162  0.18757308  1  0.29666  0  0.090569  0.155601  0  2.778363  0
S  S141  1  0.62954837  0.66210640  0.06134867  1  0.309868  0  0.094045  0.159586  0  2.769948  0
S  S142  1  0.01282632  0.18724791  0.11297892  1  0.351584  0  0.097095  0.165339  0  2.774946  0
S  S143  1  0.23897351  0.06438584  0.13814769  1  0.331745  0  0.094359  0.161448  0  2.773139  0
S  S144  1  0.27940326  0.44950322  0.84765875  1  0.310499  0  0.095913  0.162892  0  2.779795  0
S  S145  1  0.47510500  0.30294658  0.90367016  1  0.318636  0  0.095884  0.162377  0  2.769327  0
S  S146  1  0.95101411  0.92239008  0.84941158  1  0.309983  0  0.097718  0.165979  0  2.774013  0
S  S147  1  0.79793273  0.82476902  0.89904532  1  0.296444  0  0.094262  0.161157  0  2.770292  0
Cl  Cl148  1  0.28872257  0.54176014  0.41423370  1  -0.132553  0  0.029209  -0.000874  0  1.523102  0
Cl  Cl149  1  0.46038872  0.20843421  0.34027975  1  -0.153057  0  0.007852  -0.029871  0  1.48763  0
Cl  Cl150  1  0.78820443  0.53558148  0.66583348  1  -0.154329  0  0.007049  -0.031151  0  1.488651  0
Cl  Cl151  1  0.46188754  0.70959950  0.58177214  1  -0.151055  0  0.015764  -0.020969  0  1.487357  0
Cl  Cl152  1  0.02980060  0.28832074  0.66653867  1  -0.153625  0  0.012371  -0.0251  0  1.490198  0
Cl  Cl153  1  0.22243438  0.96310657  0.58553439  1  -0.152972  0  0.008597  -0.028998  0  1.494412  0
Cl  Cl154  1  0.76339246  0.77987997  0.40116708  1  -0.152625  0  0.017043  -0.01759  0  1.499332  0
Cl  Cl155  1  0.98240644  0.96955219  0.34570528  1  -0.157091  0  0.01119  -0.026072  0  1.492846  0
Cl  Cl156  1  0.70889896  0.46129583  0.08308274  1  -0.139136  0  0.027369  -0.003069  0  1.520275  0
Cl  Cl157  1  0.53664018  0.78582106  0.16616612  1  -0.160851  0  0.008546  -0.028968  0  1.486296  0
Cl  Cl158  1  0.10626321  0.08994006  0.22811023  1  -0.157177  0  0.010665  -0.026473  0  1.489442  0
Cl  Cl159  1  0.14525744  0.16142902  0.02308402  1  -0.151727  0  0.010867  -0.026231  0  1.490619  0
Cl  Cl160  1  0.48547850  0.47283504  0.85118353  1  -0.152537  0  0.011942  -0.025042  0  1.484109  0
Cl  Cl161  1  0.26852747  0.28052512  0.90007999  1  -0.148962  0  0.01349  -0.023146  0  1.489845  0
Cl  Cl162  1  0.96319102  0.70236034  0.84232968  1  -0.158503  0  0.010818  -0.02647  0  1.484416  0
Cl  Cl163  1  0.78650156  0.04437055  0.90643701  1  -0.159928  0  0.011618  -0.025221  0  1.48723  0
O  O164  1  0.00010385  0.50023772  0.49960941  1  -1.234086  0  -0.571233  -1.034605  0  2.521673  0
O  O165  1  0.08071436  0.31577939  0.52401468  1  -1.158039  0  -0.319281  -0.544933  0  2.320083  0
O  O166  1  0.04257717  0.52160158  0.58485025  1  -1.17099  0  -0.308171  -0.533081  0  2.332559  0
O  O167  1  0.15475676  0.50617723  0.45236734  1  -1.155489  0  -0.309407  -0.531106  0  2.370638  0
O  O168  1  0.02025013  0.37564830  0.58129898  1  -1.164277  0  -0.313589  -0.536181  0  2.372263  0
O  O169  1  0.15135769  0.39454739  0.44529191  1  -1.183404  0  -0.321917  -0.550013  0  2.324728  0
O  O170  1  0.07075901  0.59901416  0.53091343  1  -1.16261  0  -0.304585  -0.540669  0  2.361776  0
O  O171  1  0.00243716  0.65753857  0.44655688  1  -1.167493  0  -0.317551  -0.541794  0  2.32728  0
O  O172  1  0.89581137  0.50070092  0.43616414  1  -1.167239  0  -0.304907  -0.540763  0  2.376963  0
O  O173  1  0.88551057  0.65634806  0.45015927  1  -1.155917  0  -0.312393  -0.535855  0  2.363426  0
O  O174  1  0.99265055  0.38314658  0.44579234  1  -1.168905  0  -0.308476  -0.536002  0  2.319726  0
O  O175  1  0.87684291  0.53322341  0.58107508  1  -1.165403  0  -0.31612  -0.541165  0  2.366588  0
O  O176  1  0.81634642  0.56846861  0.52301675  1  -1.159325  0  -0.313193  -0.53403  0  2.332795  0
O  O177  1  0.74824184  0.25207067  0.25007471  1  -1.232709  0  -0.570022  -1.032433  0  2.518229  0
O  O178  1  0.59390968  0.35931699  0.30383206  1  -1.170487  0  -0.319787  -0.545403  0  2.324454  0
O  O179  1  0.65600808  0.17303356  0.21897171  1  -1.163927  0  -0.30803  -0.534144  0  2.329636  0
O  O180  1  0.72082619  0.37245829  0.16824957  1  -1.155776  0  -0.309282  -0.530827  0  2.364185  0
O  O181  1  0.59502201  0.24347306  0.30229968  1  -1.170055  0  -0.315704  -0.540557  0  2.370852  0
O  O182  1  0.67196110  0.43362986  0.22592651  1  -1.14772  0  -0.320669  -0.548346  0  2.33144  0
O  O183  1  0.73270695  0.20418660  0.16576447  1  -1.164884  0  -0.305472  -0.542721  0  2.364301  0
O  O184  1  0.87912832  0.22699842  0.17038067  1  -1.176318  0  -0.317643  -0.543285  0  2.32688  0
O  O185  1  0.85913027  0.25852891  0.30900835  1  -1.176756  0  -0.312324  -0.543136  0  2.349307  0
O  O186  1  0.93450159  0.17467018  0.23009152  1  -1.136185  0  -0.312996  -0.536138  0  2.363132  0
O  O187  1  0.74925065  0.36681202  0.30892042  1  -1.16772  0  -0.31117  -0.54021  0  2.323971  0
O  O188  1  0.74641792  0.09121327  0.29678104  1  -1.169757  0  -0.320865  -0.545714  0  2.325091  0
O  O189  1  0.85507563  0.10097608  0.30448304  1  -1.156614  0  -0.314128  -0.537967  0  2.370865  0
O  O190  1  0.25006312  0.75018863  0.75001613  1  -1.228931  0  -0.571315  -1.032602  0  2.521364  0
O  O191  1  0.37323831  0.72403762  0.66707841  1  -1.165842  0  -0.313034  -0.53593  0  2.369494  0
O  O192  1  0.36831855  0.76048948  0.80205565  1  -1.173384  0  -0.309118  -0.535139  0  2.330684  0
O  O193  1  0.17466826  0.93440390  0.72808732  1  -1.136249  0  -0.314629  -0.537069  0  2.321387  0
O  O194  1  0.43477431  0.67074870  0.72480082  1  -1.160935  0  -0.32112  -0.546918  0  2.332165  0
O  O195  1  0.22272249  0.87539980  0.66970805  1  -1.170788  0  -0.315752  -0.540695  0  2.381427  0
O  O196  1  0.24928107  0.85422539  0.81356082  1  -1.16183  0  -0.304823  -0.542183  0  2.360955  0
O  O197  1  0.09316323  0.85637855  0.80101943  1  -1.17015  0  -0.317638  -0.542682  0  2.328421  0
O  O198  1  0.16653127  0.66109369  0.71914697  1  -1.171699  0  -0.311322  -0.542099  0  2.334202  0
O  O199  1  0.09557882  0.73976223  0.79997318  1  -1.165677  0  -0.314073  -0.538122  0  2.362234  0
O  O200  1  0.21749940  0.71944538  0.66424365  1  -1.152368  0  -0.311099  -0.538494  0  2.346327  0
O  O201  1  0.36079082  0.60182941  0.80524241  1  -1.158466  0  -0.313582  -0.53873  0  2.355547  0
O  O202  1  0.25153513  0.59138014  0.79944963  1  -1.170056  0  -0.319374  -0.54528  0  2.330928  0
O  O203  1  0.50086883  0.99936807  0.99979534  1  -1.230511  0  -0.570001  -1.030583  0  2.518419  0
O  O204  1  0.50439051  0.15762474  0.94947849  1  -1.166085  0  -0.31965  -0.544535  0  2.33082  0
O  O205  1  0.38938398  0.99442017  0.94039084  1  -1.170596  0  -0.312762  -0.541096  0  2.344229  0
O  O206  1  0.65435585  0.89244066  0.94679818  1  -1.171535  0  -0.319383  -0.544853  0  2.328265  0
O  O207  1  0.39214390  0.15152445  0.94563096  1  -1.159145  0  -0.313202  -0.53723  0  2.368441  0
O  O208  1  0.65676919  0.00572180  0.95107477  1  -1.168284  0  -0.314869  -0.539395  0  2.367865  0
O  O209  1  0.49791958  0.88485723  0.94173331  1  -1.171781  0  -0.3106  -0.542103  0  2.329819  0
O  O210  1  0.57729110  0.81551885  0.02326812  1  -1.156766  0  -0.320317  -0.546018  0  2.328806  0
O  O211  1  0.52942846  0.03316673  0.08582805  1  -1.14746  0  -0.31071  -0.541815  0  2.334307  0
O  O212  1  0.52745576  0.87550508  0.08124474  1  -1.162696  0  -0.315577  -0.541792  0  2.364064  0
O  O213  1  0.58328839  0.08869424  0.03090495  1  -1.171814  0  -0.311728  -0.540748  0  2.33745  0
O  O214  1  0.31630840  0.07449444  0.02078435  1  -1.155712  0  -0.313777  -0.537261  0  2.367179  0
O  O215  1  0.37296824  0.02620729  0.08029608  1  -1.167676  0  -0.319754  -0.546261  0  2.326384  0
O  O216  1  0.75146532  0.58340493  0.38755162  1  -1.104066  0  -0.34032  -0.477982  0  2.201699  0
O  O217  1  0.73552733  0.51339055  0.44700932  1  -1.102448  0  -0.279078  -0.438187  0  2.0397  0
O  O218  1  0.15216161  0.71497385  0.51637959  1  -1.102573  0  -0.339929  -0.474975  0  2.186725  0
O  O219  1  0.22972613  0.59091561  0.51945941  1  -1.106317  0  -0.277127  -0.440109  0  2.059753  0
O  O220  1  0.76535219  0.20185926  0.06795873  1  -1.082445  0  -0.339488  -0.474129  0  2.188505  0
O  O221  1  0.66022145  0.29965504  0.09016541  1  -1.091155  0  -0.279022  -0.441814  0  2.057043  0
O  O222  1  0.17022137  0.00042369  0.86402727  1  -1.102792  0  -0.34016  -0.475866  0  2.186629  0
O  O223  1  0.23803861  0.01346099  0.80324404  1  -1.10763  0  -0.278851  -0.439471  0  2.039538  0
