# generated using pymatgen
data_PrCrH26C42N12O
_symmetry_space_group_name_H-M   'P 1'
_cell_length_a   10.91032715
_cell_length_b   13.13074619
_cell_length_c   16.38173349
_cell_angle_alpha   72.62830035
_cell_angle_beta   82.12361156
_cell_angle_gamma   70.70695898
_symmetry_Int_Tables_number   1
_chemical_formula_structural   PrCrH26C42N12O
_chemical_formula_sum   'Pr2 Cr2 H52 C84 N24 O2'
_cell_volume   2112.10791281
_cell_formula_units_Z   2
loop_
 _symmetry_equiv_pos_site_id
 _symmetry_equiv_pos_as_xyz
  1  'x, y, z'
loop_
 _atom_site_type_symbol
 _atom_site_label
 _atom_site_symmetry_multiplicity
 _atom_site_fract_x
 _atom_site_fract_y
 _atom_site_fract_z
 _atom_site_occupancy
 _atom_site_pbe_bader_charge
 _atom_site_pbe_bader_spin_density
 _atom_site_pbe_cm5_charge
 _atom_site_pbe_ddec_charge
 _atom_site_pbe_ddec_spin_density
 _atom_site_pbe_ddec_sum_bond_order
 _atom_site_pbe_magmom
Pr  Pr0  1  0.99311977  0.31131534  0.25777078  1  2.166705  -0.00051  1.512265  1.722515  -0.0007  2.352145  0.0
Pr  Pr1  1  0.00707541  0.68861514  0.74218971  1  2.166999  0.000564  1.512733  1.722373  0.000692  2.353385  0.0
Cr  Cr2  1  0.52826443  0.23681811  0.22705677  1  1.488701  -0.839266  0.726068  0.720171  -1.032244  4.172457  -0.854
Cr  Cr3  1  0.47268457  0.76281629  0.77256157  1  1.485043  0.83903  0.725409  0.719123  1.029647  4.172544  0.852
H  H4  1  0.20749999  0.48148756  0.22237041  1  0.121559  0.000165  0.121707  0.093409  0.000421  1.007078  0.0
H  H5  1  0.79295285  0.51816591  0.77752105  1  0.124836  0.000213  0.121637  0.092754  0.000249  1.007095  0.0
H  H6  1  0.20740016  0.67868590  0.16891545  1  0.126933  0.000175  0.116686  0.128647  0.000197  0.982108  0.0
H  H7  1  0.79284734  0.32100021  0.83127333  1  0.124127  0.000109  0.116557  0.128195  0.000134  0.982466  0.0
H  H8  1  0.02342866  0.82065266  0.07888144  1  0.070147  -6.1e-05  0.114653  0.11491  -7.2e-05  0.970172  0.0
H  H9  1  0.97679056  0.17915670  0.92140302  1  0.111897  -6.8e-05  0.114438  0.114674  -7.6e-05  0.970375  0.0
H  H10  1  0.81751388  0.85900588  0.00619456  1  0.096011  1.7e-05  0.112354  0.118647  3.1e-05  0.981227  0.0
H  H11  1  0.18272045  0.14093680  0.99402705  1  0.095133  6e-06  0.112624  0.119089  2.3e-05  0.980577  0.0
H  H12  1  0.66922731  0.78393032  0.95447910  1  0.103487  -8e-06  0.118304  0.132914  -3.4e-05  0.973804  0.0
H  H13  1  0.33072968  0.21613883  0.04582936  1  0.099667  7.6e-05  0.118257  0.132906  6.9e-05  0.973797  0.0
H  H14  1  0.60928857  0.62151824  0.94510969  1  0.158637  -0.000957  0.109887  0.114773  -0.001922  1.032142  0.0
H  H15  1  0.39031421  0.37875845  0.05532917  1  0.158654  -0.000409  0.109945  0.114844  -0.000901  1.03179  0.0
H  H16  1  0.65366014  0.41257132  0.98619868  1  0.151819  6.4e-05  0.114407  0.136206  0.000201  0.99719  0.0
H  H17  1  0.34611261  0.58765442  0.01393605  1  0.154574  -4.8e-05  0.11478  0.136593  -5.3e-05  0.996545  0.0
H  H18  1  0.82358551  0.29314768  0.08831146  1  0.086527  -0.00035  0.114405  0.073425  -0.000403  1.024086  0.0
H  H19  1  0.17654622  0.70688086  0.91155864  1  0.086307  -9.7e-05  0.114351  0.073164  -0.00021  1.024668  0.0
H  H20  1  0.22364568  0.29533300  0.39140912  1  0.117145  -0.00021  0.122188  0.090144  -0.000281  1.022601  0.0
H  H21  1  0.77620148  0.70473840  0.60873374  1  0.117087  -7e-05  0.122351  0.090594  -0.000209  1.022445  0.0
H  H22  1  0.30007205  0.40804226  0.45594406  1  0.130954  -0.000151  0.111265  0.124126  -0.000185  1.006782  0.0
H  H23  1  0.69977844  0.59223108  0.54403494  1  0.12993  -0.000126  0.111342  0.124165  -0.000138  1.006269  0.0
H  H24  1  0.15373439  0.60322391  0.45781569  1  0.079691  -1.2e-05  0.103556  0.102068  -6e-06  1.02221  0.0
H  H25  1  0.84612073  0.39706422  0.54200844  1  0.079972  -1.9e-05  0.103587  0.102752  -6e-06  1.021742  0.0
H  H26  1  0.94212583  0.75039540  0.42241089  1  0.083035  4e-06  0.09538  0.090451  0.0  1.080953  0.0
H  H27  1  0.05768519  0.24984156  0.57734225  1  0.08339  9e-06  0.095288  0.090072  -3e-06  1.081228  0.0
H  H28  1  0.73023995  0.82212145  0.35139154  1  0.154321  -9e-06  0.107834  0.125428  -6.3e-05  1.036114  0.0
H  H29  1  0.26955977  0.17799569  0.64834084  1  0.152482  0.000415  0.107817  0.125198  0.000672  1.035391  0.0
H  H30  1  0.58045630  0.79606734  0.26730630  1  0.159773  -0.000123  0.113016  0.122625  -0.000215  1.010928  0.0
H  H31  1  0.41939795  0.20385855  0.73260335  1  0.158744  0.000137  0.11305  0.12254  0.000187  1.012154  0.0
H  H32  1  0.52133625  0.66548620  0.20047929  1  0.125347  -9.4e-05  0.115212  0.129435  -0.000131  0.991393  0.0
H  H33  1  0.47856951  0.33430310  0.79949178  1  0.116996  1.6e-05  0.115066  0.129353  1.4e-05  0.992133  0.0
H  H34  1  0.67329080  0.47726692  0.21106343  1  0.124975  3e-05  0.121224  0.091254  0.000132  1.022049  0.0
H  H35  1  0.32668811  0.52261706  0.78889533  1  0.126138  0.000108  0.121208  0.090946  0.000178  1.022467  0.0
H  H36  1  0.28988458  0.08802150  0.30858638  1  0.136717  0.000128  0.121707  0.093093  0.000481  1.015782  0.0
H  H37  1  0.71014481  0.91180614  0.69162145  1  0.134467  0.000112  0.121751  0.092999  0.00022  1.015475  0.0
H  H38  1  0.43073751  0.96032771  0.42689092  1  0.140809  0.000232  0.113493  0.130239  0.000285  1.008742  0.0
H  H39  1  0.56905154  0.03944585  0.57342177  1  0.137868  0.000242  0.11325  0.129452  0.000274  1.008709  0.0
H  H40  1  0.33832904  0.93642000  0.57824201  1  0.139125  -0.000134  0.112354  0.122166  -0.000463  1.016218  0.0
H  H41  1  0.66119825  0.06340472  0.42200018  1  0.138123  -6e-06  0.112422  0.12234  -3e-06  1.015855  0.0
H  H42  1  0.14611329  0.97479112  0.67560267  1  0.133939  0.000106  0.111245  0.123753  4.4e-05  1.007885  0.0
H  H43  1  0.85319427  0.02523685  0.32452622  1  0.131131  8.3e-05  0.111091  0.1237  0.000181  1.008744  0.0
H  H44  1  0.90967571  0.06690148  0.69859700  1  0.08618  5e-06  0.108766  0.114179  -2e-06  0.989572  0.0
H  H45  1  0.08967484  0.93338958  0.30134640  1  0.08613  -2e-06  0.108349  0.113441  2e-06  0.989942  0.0
H  H46  1  0.69944109  0.19736305  0.63938722  1  0.086638  3.2e-05  0.116886  0.119099  3.3e-05  0.968173  0.0
H  H47  1  0.30008316  0.80311537  0.36038613  1  0.086414  2.5e-05  0.117113  0.11931  2.5e-05  0.968081  0.0
H  H48  1  0.57283964  0.32536857  0.51017941  1  0.136752  -8e-05  0.113743  0.12485  -0.00011  0.991857  0.0
H  H49  1  0.42694200  0.67512703  0.48949826  1  0.134566  0.000182  0.113742  0.124699  0.000216  0.992119  0.0
H  H50  1  0.68896459  0.35745679  0.36872827  1  0.120536  0.000119  0.123828  0.088541  9.6e-05  1.004775  0.0
H  H51  1  0.31103736  0.64269121  0.63098302  1  0.120136  4e-06  0.123822  0.088439  -2.1e-05  1.004467  0.0
H  H52  1  0.10814030  0.17911227  0.12087793  1  0.607727  -4.7e-05  0.307122  0.380179  -0.000136  0.946488  0.0
H  H53  1  0.89162065  0.82085076  0.87888713  1  0.610995  2.8e-05  0.30715  0.379861  -2.3e-05  0.947035  0.0
H  H54  1  0.98409605  0.14667280  0.16630395  1  0.609503  -0.000424  0.327897  0.409972  -0.000548  0.881121  0.0
H  H55  1  0.01603379  0.85310087  0.83413709  1  0.609568  0.000147  0.328077  0.410062  0.000193  0.879734  0.0
C  C56  1  0.34085102  0.25975819  0.21383327  1  0.699363  -0.004151  0.017141  -0.037108  0.00304  3.712507  0.018
C  C57  1  0.65986147  0.73946455  0.78625398  1  0.704837  -0.009701  0.016251  -0.039031  -0.013199  3.71699  -0.012
C  C58  1  0.70892644  0.22928802  0.24363526  1  0.732097  0.003953  0.014292  -0.033879  0.009502  3.71712  0.014
C  C59  1  0.29198362  0.76989392  0.75618893  1  0.744117  0.006312  0.016123  -0.028977  -0.000688  3.711526  -0.017
C  C60  1  0.59216262  0.21792036  0.10920663  1  0.630006  0.01037  -0.057394  -0.183592  0.013194  3.841533  0.023
C  C61  1  0.40842791  0.78239139  0.88990374  1  0.62674  -0.01177  -0.060123  -0.188871  -0.014319  3.855713  -0.011
C  C62  1  0.55624708  0.07057944  0.26809723  1  0.666965  0.010341  -0.044097  -0.161123  0.013529  3.808454  0.009
C  C63  1  0.44415356  0.92956361  0.73228472  1  0.666427  -0.010513  -0.040512  -0.153646  -0.012725  3.794993  -0.031
C  C64  1  0.48562626  0.24178476  0.35012756  1  0.670112  0.01063  -0.036408  -0.151294  0.013283  3.786233  0.026
C  C65  1  0.51435466  0.75898949  0.64955238  1  0.660602  -0.010596  -0.040269  -0.160028  -0.013591  3.80159  -0.009
C  C66  1  0.47992714  0.40568256  0.19171932  1  0.589483  0.01002  -0.044379  -0.172559  0.013136  3.803882  0.009
C  C67  1  0.52067757  0.59355441  0.80858740  1  0.601663  -0.011439  -0.042123  -0.168127  -0.013345  3.790759  -0.023
C  C68  1  0.13114712  0.54276038  0.18104330  1  0.467887  0.000199  0.06476  0.125819  0.000311  3.940449  0.0
C  C69  1  0.86920315  0.45693661  0.81894952  1  0.466318  0.000299  0.063961  0.126198  0.000507  3.940497  0.0
C  C70  1  0.12943505  0.65531961  0.15184023  1  0.074147  0.000156  -0.074389  -0.113745  0.000201  3.955722  0.0
C  C71  1  0.87081287  0.34441203  0.84829583  1  0.083288  0.00017  -0.073603  -0.112891  0.000225  3.954884  0.0
C  C72  1  0.02994827  0.73201306  0.10119865  1  -0.05864  -9.7e-05  -0.061494  -0.076627  -0.00013  3.928578  0.0
C  C73  1  0.97029134  0.26779305  0.89898145  1  -0.10474  -0.000166  -0.06137  -0.076355  -0.00023  3.927255  0.0
C  C74  1  0.93780846  0.69456318  0.07543439  1  -0.042738  7.6e-05  -0.002545  0.047981  7.2e-05  4.008747  0.0
C  C75  1  0.06242451  0.30531666  0.92467737  1  -0.040713  0.000193  -0.00254  0.047664  0.000181  4.008502  0.0
C  C76  1  0.83270043  0.76881898  0.02196407  1  -0.117596  -0.000329  -0.090608  -0.161178  -0.000288  4.024886  0.0
C  C77  1  0.16748698  0.23113870  0.97820723  1  -0.1176  -0.00033  -0.090363  -0.161233  -0.000267  4.024394  0.0
C  C78  1  0.75045119  0.72807730  0.99420204  1  -0.02267  -6.2e-05  -0.068437  -0.098039  -9.2e-05  3.953105  0.0
C  C79  1  0.24961174  0.27196034  0.00601476  1  0.002725  -2.7e-05  -0.068797  -0.098416  -0.000115  3.95367  0.0
C  C80  1  0.76777324  0.61006130  0.01745283  1  0.011671  -0.000184  0.005363  0.048514  -0.000169  3.966819  0.0
C  C81  1  0.23224775  0.38997704  0.98271501  1  -0.01362  -0.000142  0.005567  0.048457  -0.000144  3.9677  0.0
C  C82  1  0.68761309  0.56543048  0.98692296  1  -0.046747  -0.000603  -0.045081  -0.025204  -0.000561  3.837068  0.0
C  C83  1  0.31219688  0.43473084  0.01332243  1  -0.043818  -0.000541  -0.044962  -0.0251  -0.000429  3.836871  0.0
C  C84  1  0.71057610  0.45102159  0.01009824  1  0.006675  0.000176  -0.070992  -0.102871  0.000417  3.900263  0.0
C  C85  1  0.28929487  0.54913214  0.99002366  1  0.002271  0.0  -0.070878  -0.102861  4.1e-05  3.900389  0.0
C  C86  1  0.80878649  0.38306656  0.06738048  1  0.479014  -0.000328  0.06091  0.125712  -0.000211  3.963778  0.0
C  C87  1  0.19125945  0.61697670  0.93258905  1  0.478679  -8.2e-05  0.061424  0.126481  -4e-06  3.963997  0.0
C  C88  1  0.86646044  0.53451777  0.07407400  1  0.451277  4.9e-05  0.116394  0.12677  4.1e-05  3.983174  0.0
C  C89  1  0.13369309  0.46544121  0.92595602  1  0.453092  5.6e-05  0.1163  0.127053  3.7e-05  3.983246  0.0
C  C90  1  0.95169658  0.57788534  0.10448451  1  0.509704  -0.000138  0.119353  0.132862  -0.000139  3.964707  0.0
C  C91  1  0.04854088  0.42198637  0.89555133  1  0.50885  -0.000117  0.119385  0.13297  -0.000136  3.963726  0.0
C  C92  1  0.16057320  0.37876543  0.39270106  1  0.508272  -0.000546  0.064495  0.125907  -0.000624  3.928486  0.0
C  C93  1  0.83930827  0.62134339  0.60735354  1  0.513458  -0.000291  0.064269  0.125609  -0.000431  3.927443  0.0
C  C94  1  0.20412181  0.44404397  0.42933738  1  -0.024989  -0.00026  -0.076731  -0.10956  -0.000294  3.947173  0.0
C  C95  1  0.79574138  0.55614761  0.57063761  1  -0.031155  -0.000372  -0.076357  -0.108319  -0.00045  3.946068  0.0
C  C96  1  0.12397044  0.54998859  0.42971922  1  -0.026111  -6.7e-05  -0.063587  -0.06709  -3.5e-05  3.912568  0.0
C  C97  1  0.87589325  0.45022757  0.57017638  1  -0.024802  0.000162  -0.063391  -0.068314  0.00018  3.912606  0.0
C  C98  1  0.00107632  0.59063638  0.39312856  1  -0.020874  -4.4e-05  -0.00311  0.045476  -3.8e-05  4.01276  0.0
C  C99  1  0.99879604  0.40952209  0.60675127  1  -0.015438  -3.5e-05  -0.002759  0.045618  -3e-05  4.012269  0.0
C  C100  1  0.91353147  0.69932697  0.39182738  1  -0.123638  4e-05  -0.091215  -0.128709  3.3e-05  4.009006  0.0
C  C101  1  0.08631341  0.30084961  0.60797146  1  0.049865  7.7e-05  -0.091236  -0.128126  6e-05  4.007864  0.0
C  C102  1  0.79724562  0.73865660  0.35357981  1  0.057774  -1.4e-05  -0.078221  -0.104771  9.3e-05  3.938435  0.0
C  C103  1  0.20262048  0.26145616  0.64619971  1  -0.117627  0.000639  -0.078376  -0.105334  0.000591  3.938411  0.0
C  C104  1  0.75990786  0.67064851  0.31385199  1  -0.045753  7e-06  0.002531  0.051719  2.4e-05  3.975321  0.0
C  C105  1  0.24003313  0.32937906  0.68597313  1  -0.016823  4.7e-05  0.002711  0.05223  2e-05  3.975674  0.0
C  C106  1  0.64210364  0.71036470  0.27084471  1  -0.047328  -0.000116  -0.052796  -0.055871  -4.4e-05  3.874556  0.0
C  C107  1  0.35781171  0.28958048  0.72902778  1  -0.076284  -6.4e-05  -0.053238  -0.055925  -8.3e-05  3.875611  0.0
C  C108  1  0.61038948  0.64061459  0.23430738  1  -0.00672  -0.000132  -0.077329  -0.117372  -0.000193  3.943588  0.0
C  C109  1  0.38954290  0.35927120  0.76560976  1  0.005067  0.000116  -0.07725  -0.117752  0.000134  3.944984  0.0
C  C110  1  0.69759261  0.53281688  0.23972108  1  0.480098  4.1e-05  0.058213  0.113758  7e-06  3.95123  0.0
C  C111  1  0.30242012  0.46709737  0.76019276  1  0.480246  0.000533  0.058535  0.114028  0.000647  3.951786  0.0
C  C112  1  0.84275619  0.56059486  0.31580501  1  0.464796  -2e-06  0.117255  0.130233  -8e-06  3.966894  0.0
C  C113  1  0.15722077  0.43943516  0.68405950  1  0.465941  -4.8e-05  0.117289  0.129922  -7.6e-05  3.966816  0.0
C  C114  1  0.96539751  0.51952496  0.35658559  1  0.458403  -1.3e-05  0.115065  0.123959  -6e-06  3.983211  0.0
C  C115  1  0.03453198  0.48056816  0.64332201  1  0.455757  8.8e-05  0.115547  0.124754  7.6e-05  3.982897  0.0
C  C116  1  0.25054360  0.07739977  0.37417986  1  0.451659  7e-05  0.064948  0.12517  0.000221  3.928531  0.0
C  C117  1  0.74939050  0.92249372  0.62600362  1  0.449254  0.000333  0.064559  0.124404  0.000416  3.929414  0.0
C  C118  1  0.33040879  0.00466181  0.44158534  1  0.062058  0.000367  -0.072337  -0.10724  0.000403  3.927976  0.0
C  C119  1  0.66938769  0.99521814  0.55866056  1  0.064994  0.000263  -0.071996  -0.106001  0.000258  3.928375  0.0
C  C120  1  0.27914445  0.99165015  0.52436726  1  -0.064693  -0.00017  -0.051242  -0.042228  -0.00031  3.860662  0.0
C  C121  1  0.72049217  0.00826161  0.47584455  1  -0.063526  0.000162  -0.051315  -0.042778  4e-05  3.860868  0.0
C  C122  1  0.14698780  0.04863713  0.53858634  1  -0.040007  3.6e-05  0.000663  0.042115  4.1e-05  3.987397  0.0
C  C123  1  0.85263997  0.95135182  0.46153135  1  -0.048632  -5.9e-05  0.000491  0.0421  -5.1e-05  3.986997  0.0
C  C124  1  0.08630086  0.03146485  0.62253008  1  -0.079198  -3.5e-05  -0.075821  -0.104364  5.8e-05  3.959537  0.0
C  C125  1  0.91314717  0.96859612  0.37754185  1  -0.070134  0.00012  -0.075848  -0.104542  0.000139  3.960077  0.0
C  C126  1  0.95698345  0.08259246  0.63496310  1  -0.03654  0.00017  -0.084708  -0.126713  0.000164  3.998967  0.0
C  C127  1  0.04247429  0.91762108  0.36501227  1  -0.043247  2.2e-05  -0.083534  -0.124174  1.8e-05  3.998881  0.0
C  C128  1  0.88028378  0.15850276  0.56479799  1  -0.003448  -0.000179  -0.003955  0.036265  -0.000168  4.021825  0.0
C  C129  1  0.11932783  0.84176370  0.43511718  1  -0.000455  -2.2e-05  -0.004916  0.034066  -2.4e-05  4.02342  0.0
C  C130  1  0.74654995  0.21374851  0.57572102  1  -0.029268  9.2e-05  -0.06007  -0.07734  0.00012  3.944521  0.0
C  C131  1  0.25307216  0.78664385  0.42407656  1  -0.019686  1.4e-05  -0.060228  -0.077395  4e-06  3.944042  0.0
C  C132  1  0.67715470  0.28537828  0.50557314  1  -0.052337  -0.000385  -0.077111  -0.116425  -0.000507  3.972171  0.0
C  C133  1  0.32261349  0.71500071  0.49416441  1  -0.060505  -1e-06  -0.076763  -0.11562  -4.1e-05  3.972527  0.0
C  C134  1  0.74276211  0.30299407  0.42504500  1  0.50052  -0.000368  0.06552  0.133132  -0.000452  3.928653  0.0
C  C135  1  0.25712612  0.69720386  0.57472336  1  0.505445  -0.000121  0.065245  0.132842  -0.000168  3.929274  0.0
C  C136  1  0.93860951  0.18123577  0.48056768  1  0.482187  6e-05  0.117754  0.121877  7.7e-05  3.981201  0.0
C  C137  1  0.06116360  0.81892083  0.51938528  1  0.485378  -1.6e-05  0.117847  0.122836  -1.2e-05  3.981289  0.0
C  C138  1  0.07380756  0.12260106  0.46672038  1  0.447725  -0.000121  0.116163  0.120917  -0.000111  3.989197  0.0
C  C139  1  0.92596740  0.87744604  0.53334052  1  0.454854  -7.5e-05  0.116748  0.121587  -7e-05  3.987626  0.0
N  N140  1  0.22861330  0.27491965  0.21221590  1  -1.387536  -0.047535  -0.477595  -0.443201  -0.042139  3.285269  -0.034
N  N141  1  0.77197398  0.72463921  0.78828827  1  -1.393794  0.01046  -0.478524  -0.443364  0.00959  3.286085  0.008
N  N142  1  0.81361360  0.23285985  0.24998287  1  -1.433572  -0.024692  -0.47627  -0.46652  -0.022081  3.305533  -0.018
N  N143  1  0.18721277  0.76646497  0.74998509  1  -1.442153  0.04816  -0.475637  -0.467496  0.042789  3.304896  0.035
N  N144  1  0.63629764  0.20492605  0.04189991  1  -1.289667  -0.062896  -0.384606  -0.329226  -0.055038  2.917603  -0.044
N  N145  1  0.36401465  0.79531670  0.95722166  1  -1.289641  -0.006265  -0.388066  -0.331982  -0.004613  2.920129  -0.004
N  N146  1  0.56520995  0.97454844  0.29229008  1  -1.32815  0.011055  -0.358962  -0.330428  0.008904  3.038475  0.008
N  N147  1  0.43486858  0.02561663  0.70841479  1  -1.322596  0.10104  -0.356893  -0.3294  0.088377  3.035911  0.071
N  N148  1  0.46190543  0.24381943  0.42205184  1  -1.318624  -0.077858  -0.357619  -0.32989  -0.068384  3.003078  -0.056
N  N149  1  0.53780911  0.75692171  0.57757725  1  -1.316722  -0.012808  -0.360131  -0.330591  -0.010459  3.006153  -0.01
N  N150  1  0.44714940  0.50439308  0.17364910  1  -1.249803  0.007428  -0.357127  -0.320086  0.005773  2.989102  0.005
N  N151  1  0.55300801  0.49489750  0.82680685  1  -1.255541  0.064297  -0.353678  -0.316957  0.056174  2.987156  0.046
N  N152  1  0.04372069  0.50490574  0.16018269  1  -1.253447  2e-05  -0.359144  -0.357561  -1e-05  3.490534  0.0
N  N153  1  0.95658917  0.49487123  0.83977165  1  -1.255595  0.000957  -0.358459  -0.357183  0.000935  3.488642  0.001
N  N154  1  0.88331206  0.42194585  0.10098358  1  -1.244519  -2e-06  -0.371124  -0.397225  4e-05  3.484267  0.0
N  N155  1  0.11685707  0.57800634  0.89896280  1  -1.244424  0.000233  -0.371223  -0.397395  0.000208  3.484658  0.0
N  N156  1  0.04561119  0.41449814  0.35713806  1  -1.273193  -0.000172  -0.3945  -0.380615  -0.000154  3.526593  0.0
N  N157  1  0.95432332  0.58556162  0.64286723  1  -1.275215  -4.2e-05  -0.394936  -0.381341  -8.2e-05  3.526444  0.0
N  N158  1  0.81095689  0.49377264  0.27790335  1  -1.269112  -7e-06  -0.395921  -0.385165  4.9e-05  3.54305  0.0
N  N159  1  0.18908046  0.50619940  0.72198387  1  -1.270932  0.000246  -0.396474  -0.384978  0.000214  3.543151  0.0
N  N160  1  0.12693149  0.13781724  0.38515252  1  -1.260473  -0.000316  -0.367879  -0.375893  -0.000314  3.462891  0.0
N  N161  1  0.87299859  0.86215798  0.61495011  1  -1.262507  -0.000296  -0.368008  -0.3763  -0.000315  3.463554  0.0
N  N162  1  0.86958858  0.25494287  0.41235074  1  -1.240049  -0.001066  -0.364471  -0.354468  -0.001054  3.492324  -0.001
N  N163  1  0.13031006  0.74516995  0.58752948  1  -1.241521  -0.00017  -0.364438  -0.354884  -0.00018  3.493252  0.0
O  O164  1  0.06517004  0.15591833  0.17684852  1  -1.208495  -0.001155  -0.59986  -0.770865  -0.001025  2.054456  -0.001
O  O165  1  0.93511884  0.84402473  0.82311664  1  -1.211444  0.000497  -0.599379  -0.770129  0.000524  2.053595  0.0
