# generated using pymatgen
data_ZnH14C26(NO3)2
_symmetry_space_group_name_H-M   'P 1'
_cell_length_a   15.28257196
_cell_length_b   15.27569862
_cell_length_c   22.27067561
_cell_angle_alpha   82.67964421
_cell_angle_beta   78.29692802
_cell_angle_gamma   72.13796019
_symmetry_Int_Tables_number   1
_chemical_formula_structural   ZnH14C26(NO3)2
_chemical_formula_sum   'Zn4 H56 C104 N8 O24'
_cell_volume   4833.78142092
_cell_formula_units_Z   4
loop_
 _symmetry_equiv_pos_site_id
 _symmetry_equiv_pos_as_xyz
  1  'x, y, z'
loop_
 _atom_site_type_symbol
 _atom_site_label
 _atom_site_symmetry_multiplicity
 _atom_site_fract_x
 _atom_site_fract_y
 _atom_site_fract_z
 _atom_site_occupancy
 _atom_site_pbe_bader_charge
 _atom_site_pbe_bader_spin_density
 _atom_site_pbe_cm5_charge
 _atom_site_pbe_ddec_charge
 _atom_site_pbe_ddec_spin_density
 _atom_site_pbe_ddec_sum_bond_order
 _atom_site_pbe_magmom
Zn  Zn0  1  0.11859794  0.28248900  0.33044101  1  1.288366  0  0.670524  0.824946  0  2.423186  0
Zn  Zn1  1  0.88140160  0.71750855  0.66955941  1  1.288349  0  0.670523  0.824934  0  2.423106  0
Zn  Zn2  1  0.15321625  0.29588896  0.20044262  1  1.285933  0  0.668432  0.827633  0  2.40564  0
Zn  Zn3  1  0.84678143  0.70411272  0.79955950  1  1.285998  0  0.668488  0.827708  0  2.405597  0
H  H4  1  0.28151881  0.20852830  0.08760573  1  0.133162  0  0.132749  0.105056  0  0.956282  0
H  H5  1  0.71848281  0.79147130  0.91239378  1  0.13318  0  0.132713  0.104974  0  0.956348  0
H  H6  1  0.27213389  0.20917868  0.97608133  1  0.102898  0  0.122799  0.138581  0  0.967006  0
H  H7  1  0.72786840  0.79082092  0.02391764  1  0.102944  0  0.122781  0.138557  0  0.966925  0
H  H8  1  0.00360828  0.41423944  0.01089297  1  0.120549  0  0.1206  0.140325  0  0.984828  0
H  H9  1  0.99639248  0.58576085  0.98910660  1  0.12052  0  0.12059  0.140275  0  0.984863  0
H  H10  1  0.02487500  0.40626668  0.11975828  1  0.147417  0  0.123674  0.100213  0  1.007081  0
H  H11  1  0.97512596  0.59373293  0.88024132  1  0.147417  0  0.123674  0.100187  0  1.007057  0
H  H12  1  0.11981967  0.52805529  0.79556523  1  0.133302  0  0.115468  0.116773  0  1.010928  0
H  H13  1  0.88018109  0.47194500  0.20443479  1  0.133221  0  0.115462  0.116761  0  1.010943  0
H  H14  1  0.11239510  0.52203096  0.68446027  1  0.148023  0  0.116026  0.123168  0  1.019704  0
H  H15  1  0.88760566  0.47796933  0.31553975  1  0.148049  0  0.116023  0.123128  0  1.019739  0
H  H16  1  0.10225754  0.08081196  0.73890973  1  0.132203  0  0.123216  0.129765  0  0.970557  0
H  H17  1  0.89774235  0.91918903  0.26109035  1  0.132201  0  0.123233  0.129774  0  0.970599  0
H  H18  1  0.11224480  0.08588125  0.85031109  1  0.121939  0  0.120953  0.125697  0  0.972551  0
H  H19  1  0.88775422  0.91412043  0.14968950  1  0.122113  0  0.120941  0.125672  0  0.972579  0
H  H20  1  0.23383205  0.18108605  0.53449910  1  0.105345  0  0.122459  0.140003  0  0.965044  0
H  H21  1  0.76616717  0.81891494  0.46550152  1  0.105329  0  0.122475  0.140032  0  0.96509  0
H  H22  1  0.23222789  0.17882459  0.42183941  1  0.135082  0  0.131005  0.107  0  0.972057  0
H  H23  1  0.76777287  0.82117570  0.57816061  1  0.135082  0  0.131003  0.106973  0  0.97211  0
H  H24  1  0.98176654  0.38673501  0.43206815  1  0.1696  0  0.128337  0.111533  0  0.988343  0
H  H25  1  0.01823363  0.61326735  0.56793133  1  0.16957  0  0.128326  0.11149  0  0.988336  0
H  H26  1  0.97325361  0.39831451  0.54479722  1  0.112527  0  0.12227  0.139552  0  0.981319  0
H  H27  1  0.02674742  0.60168716  0.45520265  1  0.112529  0  0.12228  0.139551  0  0.981392  0
H  H28  1  0.89328284  0.27353088  0.17886024  1  0.104839  0  0.105065  0.111386  0  0.997519  0
H  H29  1  0.10671725  0.72646942  0.82113942  1  0.104845  0  0.105085  0.111431  0  0.997544  0
H  H30  1  0.73467854  0.26452061  0.17603077  1  0.071088  0  0.100602  0.098541  0  1.009103  0
H  H31  1  0.26532108  0.73547900  0.82396991  1  0.071047  0  0.100598  0.098553  0  1.009084  0
H  H32  1  0.64736414  0.33426801  0.36484242  1  0.043909  0  0.100175  0.098973  0  1.007426  0
H  H33  1  0.35263501  0.66573091  0.63515884  1  0.043826  0  0.100181  0.098985  0  1.00739  0
H  H34  1  0.80788072  0.33809239  0.36777029  1  0.084573  0  0.105268  0.109445  0  0.995483  0
H  H35  1  0.19211956  0.66190722  0.63223030  1  0.084578  0  0.10528  0.109481  0  0.995482  0
H  H36  1  0.58879665  0.33884157  0.17254328  1  0.027645  0  0.099817  0.098154  0  1.010114  0
H  H37  1  0.41120182  0.66115736  0.82745718  1  0.027494  0  0.099805  0.098131  0  1.010147  0
H  H38  1  0.43262321  0.32360975  0.16905811  1  0.097182  0  0.103467  0.108835  0  0.997671  0
H  H39  1  0.56737574  0.67638987  0.83094312  1  0.097177  0  0.103461  0.108843  0  0.997674  0
H  H40  1  0.40129917  0.23113043  0.36007011  1  0.096744  0  0.100652  0.101746  0  1.00898  0
H  H41  1  0.59870119  0.76887124  0.63992985  1  0.096686  0  0.100645  0.101727  0  1.008982  0
H  H42  1  0.55909641  0.24203299  0.36393783  1  0.030648  0  0.099212  0.09712  0  1.009244  0
H  H43  1  0.44090301  0.75796732  0.63606237  1  0.03065  0  0.099219  0.097133  0  1.009246  0
H  H44  1  0.22122375  0.00310570  0.16928935  1  0.101083  0  0.102874  0.106743  0  1.000421  0
H  H45  1  0.77877654  0.99689390  0.83071124  1  0.100991  0  0.102864  0.106729  0  1.000376  0
H  H46  1  0.21434546  0.84280051  0.16838053  1  0.055466  0  0.098623  0.09734  0  1.009513  0
H  H47  1  0.78565577  0.15720047  0.83161891  1  0.055475  0  0.098627  0.097367  0  1.009395  0
H  H48  1  0.07869310  0.85212709  0.35833856  1  0.082328  0  0.098363  0.102262  0  1.019406  0
H  H49  1  0.92130758  0.14787114  0.64166120  1  0.082378  0  0.098384  0.103921  0  1.01749  0
H  H50  1  0.09138651  0.00983888  0.35902930  1  0.118016  0  0.107088  0.11498  0  0.992342  0
H  H51  1  0.90861465  0.99016003  0.64097079  1  0.118004  0  0.107095  0.115039  0  0.992302  0
H  H52  1  0.12603815  0.75451962  0.16626053  1  0.062229  0  0.098396  0.097527  0  1.011962  0
H  H53  1  0.87396175  0.24548137  0.83373820  1  0.062266  0  0.098406  0.09753  0  1.011951  0
H  H54  1  0.11590858  0.59519227  0.16514416  1  0.085602  0  0.101222  0.106409  0  0.998607  0
H  H55  1  0.88409037  0.40480736  0.83485482  1  0.085626  0  0.101244  0.106433  0  0.998606  0
H  H56  1  0.13419294  0.54605436  0.35643671  1  0.071138  0  0.103164  0.10936  0  1.004161  0
H  H57  1  0.86580782  0.45394594  0.64356331  1  0.071148  0  0.103161  0.109358  0  1.004197  0
H  H58  1  0.14799067  0.70397194  0.35831205  1  0.070754  0  0.101094  0.102398  0  1.005628  0
H  H59  1  0.85201077  0.29602836  0.64168698  1  0.070737  0  0.101087  0.102314  0  1.005831  0
C  C60  1  0.22183328  0.25343422  0.06823195  1  0.494457  0  0.06567  0.113919  0  3.918111  0
C  C61  1  0.77816768  0.74656538  0.93176765  1  0.494501  0  0.065748  0.114106  0  3.918067  0
C  C62  1  0.21629977  0.25393214  0.00664085  1  0.010721  0  -0.071735  -0.195026  0  3.939351  0
C  C63  1  0.78370186  0.74606747  0.99335821  1  0.010689  0  -0.071681  -0.194955  0  3.93921  0
C  C64  1  0.13688339  0.31166540  0.98536942  1  0.31149  0  0.11307  0.241843  0  4.008063  0
C  C65  1  0.86311824  0.68833421  0.01462965  1  0.311563  0  0.113059  0.241765  0  4.008114  0
C  C66  1  0.06668540  0.36829822  0.02558074  1  0.05461  0  -0.071955  -0.193791  0  3.919036  0
C  C67  1  0.93331529  0.63170002  0.97441722  1  0.054618  0  -0.071954  -0.193699  0  3.919128  0
C  C68  1  0.07815743  0.36411981  0.08636714  1  0.480515  0  0.063932  0.122779  0  3.890279  0
C  C69  1  0.92184058  0.63587843  0.91363298  1  0.480524  0  0.063906  0.122831  0  3.890472  0
C  C70  1  0.12332060  0.22667304  0.90422134  1  1.302574  0  0.24661  0.444032  0  4.088581  0
C  C71  1  0.87667882  0.77332726  0.09577976  1  1.302539  0  0.246724  0.444281  0  4.088352  0
C  C72  1  0.11659242  0.22574113  0.83909557  1  -0.019168  0  -0.003916  -0.066084  0  3.99593  0
C  C73  1  0.88340574  0.77426124  0.16090508  1  -0.019427  0  -0.003922  -0.066104  0  3.995942  0
C  C74  1  0.11582056  0.30517557  0.79867177  1  -0.036385  0  0.007609  0.03467  0  4.005164  0
C  C75  1  0.88417886  0.69482474  0.20132889  1  -0.036574  0  0.007605  0.034674  0  4.005117  0
C  C76  1  0.11852829  0.38809831  0.81945071  1  0.000517  0  -0.004215  -0.06956  0  3.981688  0
C  C77  1  0.88147200  0.61190130  0.18054853  1  0.000498  0  -0.004223  -0.069548  0  3.981777  0
C  C78  1  0.12180635  0.39351917  0.88469280  1  1.316985  0  0.249933  0.448739  0  4.080989  0
C  C79  1  0.87819615  0.60647975  0.11530575  1  1.31698  0  0.249867  0.44868  0  4.081154  0
C  C80  1  0.11786768  0.46497211  0.77864262  1  0.036898  0  -0.051685  -0.040779  0  3.880877  0
C  C81  1  0.88213221  0.53502888  0.22135701  1  0.037009  0  -0.05165  -0.04075  0  3.880941  0
C  C82  1  0.11451710  0.46150359  0.71644468  1  -0.006933  0  -0.054892  -0.050523  0  3.877621  0
C  C83  1  0.88548298  0.53849670  0.28355588  1  -0.006913  0  -0.05492  -0.050482  0  3.877497  0
C  C84  1  0.11103351  0.38129953  0.69516046  1  -0.018816  0  0.001627  -0.061125  0  3.97706  0
C  C85  1  0.88896598  0.61870284  0.30483956  1  -0.018824  0  0.001624  -0.061165  0  3.977072  0
C  C86  1  0.11157633  0.30184923  0.73574110  1  0.026024  0  0.008344  0.034088  0  3.996666  0
C  C87  1  0.88842317  0.69815314  0.26425892  1  0.025666  0  0.00839  0.034112  0  3.996631  0
C  C88  1  0.10704832  0.21966484  0.71530982  1  -0.035657  0  0.000669  -0.054078  0  3.979007  0
C  C89  1  0.89295137  0.78033684  0.28469023  1  -0.035312  0  0.000639  -0.054151  0  3.978958  0
C  C90  1  0.10672472  0.14272999  0.75607686  1  0.004606  0  -0.056006  -0.062313  0  3.913577  0
C  C91  1  0.89327410  0.85727239  0.24392280  1  0.004561  0  -0.056007  -0.062263  0  3.913567  0
C  C92  1  0.11178857  0.14575547  0.81788661  1  0.004047  0  -0.05647  -0.059578  0  3.9185  0
C  C93  1  0.88821132  0.85424552  0.18211392  1  0.004088  0  -0.056485  -0.059617  0  3.91855  0
C  C94  1  0.10240364  0.21476567  0.65026272  1  1.332328  0  0.249178  0.434684  0  4.092891  0
C  C95  1  0.89759531  0.78523395  0.34973671  1  1.332299  0  0.249264  0.43489  0  4.092878  0
C  C96  1  0.10668646  0.37977233  0.62960788  1  1.303467  0  0.250851  0.446003  0  4.076898  0
C  C97  1  0.89331363  0.62022798  0.37039178  1  1.303575  0  0.250858  0.446028  0  4.076936  0
C  C98  1  0.10348753  0.29038909  0.54748903  1  0.278861  0  0.114117  0.238415  0  4.008762  0
C  C99  1  0.89651189  0.70961121  0.45251072  1  0.278644  0  0.114085  0.238353  0  4.008777  0
C  C100  1  0.17693085  0.22738964  0.51331408  1  0.063159  0  -0.071772  -0.195444  0  3.940566  0
C  C101  1  0.82306723  0.77261067  0.48668676  1  0.063174  0  -0.071807  -0.19551  0  3.940488  0
C  C102  1  0.17602858  0.22528094  0.45131261  1  0.47622  0  0.062921  0.113723  0  3.914788  0
C  C103  1  0.82397084  0.77471936  0.54868894  1  0.476204  0  0.062945  0.11379  0  3.91476  0
C  C104  1  0.03564245  0.34206291  0.45678841  1  0.433701  0  0.064488  0.116798  0  3.887195  0
C  C105  1  0.96435811  0.65793807  0.54321158  1  0.433775  0  0.064521  0.116891  0  3.887189  0
C  C106  1  0.03125556  0.34844955  0.51918295  1  0.074936  0  -0.071523  -0.194744  0  3.923639  0
C  C107  1  0.96874540  0.65155006  0.48081665  1  0.075198  0  -0.071535  -0.194756  0  3.923732  0
C  C108  1  0.95772167  0.30718092  0.27463023  1  1.544198  0  0.209946  0.577393  0  4.192892  0
C  C109  1  0.04228036  0.69281731  0.72536979  1  1.543909  0  0.209896  0.57729  0  4.192918  0
C  C110  1  0.86047908  0.30610371  0.27343575  1  -0.019013  0  -0.02245  -0.041247  0  3.977827  0
C  C111  1  0.13952121  0.69389589  0.72656530  1  -0.019212  0  -0.022446  -0.041184  0  3.977895  0
C  C112  1  0.83863079  0.28671728  0.21931241  1  -0.046857  0  -0.086328  -0.087996  0  3.991214  0
C  C113  1  0.16136950  0.71328233  0.78068774  1  -0.046922  0  -0.086389  -0.088132  0  3.991401  0
C  C114  1  0.74960617  0.28248450  0.21793689  1  -0.069933  0  -0.093099  -0.135766  0  3.994597  0
C  C115  1  0.25039278  0.71751512  0.78206299  1  -0.06987  0  -0.093093  -0.13573  0  3.994651  0
C  C116  1  0.67921736  0.29831772  0.27031589  1  0.009525  0  -0.004245  0.073897  0  4.006399  0
C  C117  1  0.32078159  0.70168190  0.72968443  1  0.00952  0  -0.004268  0.073814  0  4.006478  0
C  C118  1  0.70131584  0.31944255  0.32410026  1  -0.084617  0  -0.090996  -0.133764  0  3.987456  0
C  C119  1  0.29868217  0.68055569  0.67590032  1  -0.084764  0  -0.090959  -0.133638  0  3.987384  0
C  C120  1  0.79076004  0.32274181  0.32581728  1  -0.027424  0  -0.086336  -0.09112  0  3.99046  0
C  C121  1  0.20923911  0.67725712  0.67418308  1  -0.026839  0  -0.086376  -0.091263  0  3.990511  0
C  C122  1  0.58567353  0.29138877  0.26851499  1  -0.005213  0  -0.007484  0.069216  0  4.010675  0
C  C123  1  0.41432502  0.70861222  0.73148527  1  -0.005207  0  -0.007475  0.069202  0  4.010671  0
C  C124  1  0.54887140  0.31346195  0.21364508  1  -0.043833  0  -0.093636  -0.137881  0  3.997338  0
C  C125  1  0.45112842  0.68653698  0.78635519  1  -0.04372  0  -0.093585  -0.137799  0  3.99732  0
C  C126  1  0.46133994  0.30566528  0.21144772  1  -0.032112  0  -0.084515  -0.087423  0  3.991484  0
C  C127  1  0.53865814  0.69433503  0.78855312  1  -0.032116  0  -0.084548  -0.087471  0  3.991572  0
C  C128  1  0.40754006  0.27610665  0.26427564  1  -0.081397  0  -0.020386  -0.035147  0  3.968222  0
C  C129  1  0.59245696  0.72389505  0.73572523  1  -0.081698  0  -0.020452  -0.035217  0  3.968357  0
C  C130  1  0.44348229  0.25410359  0.31917183  1  0.016177  0  -0.086634  -0.086252  0  3.999312  0
C  C131  1  0.55651733  0.74589603  0.68082796  1  0.016583  0  -0.086625  -0.086198  0  3.999361  0
C  C132  1  0.53130273  0.26134667  0.32119922  1  -0.024646  0  -0.094404  -0.138736  0  3.99794  0
C  C133  1  0.46869649  0.73865432  0.67880140  1  -0.024632  0  -0.094366  -0.138713  0  3.997977  0
C  C134  1  0.31142383  0.27172420  0.26280372  1  1.561072  0  0.212291  0.591344  0  4.175182  0
C  C135  1  0.68857599  0.72827473  0.73719700  1  1.561448  0  0.212231  0.591191  0  4.175481  0
C  C136  1  0.15768644  0.11411557  0.26432659  1  1.574389  0  0.211602  0.591624  0  4.172338  0
C  C137  1  0.84231451  0.88588403  0.73567526  1  1.574403  0  0.211558  0.591611  0  4.172578  0
C  C138  1  0.15684135  0.01623001  0.26424052  1  -0.026229  0  -0.017808  -0.029902  0  3.960823  0
C  C139  1  0.84315921  0.98377098  0.73575992  1  -0.02615  0  -0.017825  -0.029931  0  3.960874  0
C  C140  1  0.19088882  0.96873771  0.21053780  1  -0.101912  0  -0.086737  -0.090184  0  3.993489  0
C  C141  1  0.80911308  0.03126327  0.78946200  1  -0.101803  0  -0.086665  -0.0901  0  3.993464  0
C  C142  1  0.18567030  0.87949515  0.21015961  1  -0.024074  0  -0.095127  -0.139132  0  3.999221  0
C  C143  1  0.81433180  0.12050514  0.78983978  1  -0.024087  0  -0.09515  -0.13917  0  3.999151  0
C  C144  1  0.14553680  0.83526445  0.26317446  1  -0.061857  0  -0.011125  0.061637  0  4.010441  0
C  C145  1  0.85446510  0.16473653  0.73682535  1  -0.062023  0  -0.011164  0.061478  0  4.010904  0
C  C146  1  0.11236155  0.88335082  0.31698703  1  -0.012497  0  -0.089845  -0.129729  0  3.980531  0
C  C147  1  0.88764008  0.11664879  0.68301158  1  -0.012468  0  -0.089795  -0.130772  0  3.980277  0
C  C148  1  0.11826072  0.97226665  0.31756693  1  -0.031278  0  -0.084007  -0.086309  0  3.976088  0
C  C149  1  0.88174157  0.02773295  0.68243294  1  -0.031343  0  -0.084074  -0.08664  0  3.976777  0
C  C150  1  0.13785929  0.74145662  0.26237306  1  -0.000624  0  -0.003868  0.075839  0  3.997449  0
C  C151  1  0.86214281  0.25854367  0.73762588  1  -0.000577  0  -0.003881  0.075732  0  3.997573  0
C  C152  1  0.12905947  0.70891081  0.20810989  1  -0.094105  0  -0.094895  -0.14113  0  3.993837  0
C  C153  1  0.87094062  0.29108950  0.79188932  1  -0.094106  0  -0.094887  -0.141071  0  3.99382  0
C  C154  1  0.12220910  0.62038264  0.20727280  1  -0.027927  0  -0.086903  -0.088624  0  3.994513  0
C  C155  1  0.87779032  0.37961766  0.79272695  1  -0.028035  0  -0.086929  -0.088665  0  3.994497  0
C  C156  1  0.12316165  0.56153841  0.26095679  1  -0.029514  0  -0.02324  -0.03788  0  3.973756  0
C  C157  1  0.87683777  0.43846189  0.73904296  1  -0.029421  0  -0.023225  -0.037829  0  3.973743  0
C  C158  1  0.13166374  0.59318133  0.31528050  1  -0.06661  0  -0.090237  -0.099241  0  4.000251  0
C  C159  1  0.86833702  0.40681897  0.68471863  1  -0.066631  0  -0.090251  -0.099253  0  4.000273  0
C  C160  1  0.13894378  0.68154105  0.31599058  1  -0.036044  0  -0.09471  -0.139466  0  3.989028  0
C  C161  1  0.86105785  0.31845856  0.68400848  1  -0.036057  0  -0.094703  -0.139515  0  3.98926  0
C  C162  1  0.11752974  0.46544231  0.26052806  1  1.565471  0  0.208226  0.579936  0  4.196165  0
C  C163  1  0.88246902  0.53455800  0.73947179  1  1.565665  0  0.208173  0.57975  0  4.196383  0
N  N164  1  0.15381248  0.30727735  0.10736375  1  -1.247179  0  -0.317949  -0.202022  0  3.515688  0
N  N165  1  0.84618821  0.69272089  0.89263511  1  -1.247308  0  -0.317994  -0.202181  0  3.51582  0
N  N166  1  0.12778123  0.31078302  0.92253950  1  -1.170088  0  -0.229531  -0.231693  0  3.553964  0
N  N167  1  0.87222241  0.68921658  0.07745884  1  -1.16997  0  -0.229521  -0.23176  0  3.554024  0
N  N168  1  0.10382308  0.29540712  0.61125622  1  -1.175615  0  -0.230792  -0.221501  0  3.557295  0
N  N169  1  0.89617788  0.70459249  0.38874428  1  -1.175628  0  -0.2308  -0.221556  0  3.557365  0
N  N170  1  0.10682518  0.28169256  0.42369709  1  -1.227288  0  -0.319151  -0.201738  0  3.521107  0
N  N171  1  0.89317510  0.71830705  0.57630306  1  -1.227368  0  -0.319139  -0.201731  0  3.52115  0
O  O172  1  0.12491043  0.15995176  0.94154401  1  -1.088125  0  -0.272476  -0.429472  0  2.067029  0
O  O173  1  0.87508879  0.84004923  0.05845796  1  -1.088078  0  -0.272553  -0.429606  0  2.066922  0
O  O174  1  0.12059352  0.46437908  0.90608459  1  -1.106831  0  -0.268789  -0.436703  0  2.105369  0
O  O175  1  0.87940878  0.53562053  0.09391438  1  -1.106759  0  -0.268773  -0.436693  0  2.105422  0
O  O176  1  0.09789622  0.14561761  0.62979726  1  -1.096779  0  -0.262234  -0.425378  0  2.106475  0
O  O177  1  0.90210207  0.85438202  0.37020136  1  -1.096746  0  -0.262296  -0.425408  0  2.106313  0
O  O178  1  0.10726772  0.44593271  0.59198723  1  -1.096899  0  -0.263286  -0.427561  0  2.101385  0
O  O179  1  0.89273190  0.55406691  0.40801165  1  -1.097003  0  -0.263263  -0.427534  0  2.101413  0
O  O180  1  0.11788467  0.41782959  0.31186873  1  -1.172432  0  -0.317702  -0.550437  0  2.349805  0
O  O181  1  0.88211421  0.58216797  0.68813043  1  -1.172659  0  -0.317677  -0.550379  0  2.3499  0
O  O182  1  0.11361293  0.43824760  0.20965570  1  -1.164541  0  -0.322161  -0.556108  0  2.313319  0
O  O183  1  0.88638314  0.56175272  0.79034451  1  -1.164535  0  -0.322139  -0.556009  0  2.313346  0
O  O184  1  0.18585634  0.15360701  0.21336682  1  -1.172957  0  -0.322808  -0.554982  0  2.305663  0
O  O185  1  0.81414328  0.84639260  0.78663297  1  -1.172996  0  -0.322771  -0.554942  0  2.305844  0
O  O186  1  0.12774466  0.15103627  0.31566075  1  -1.162996  0  -0.318961  -0.54757  0  2.332659  0
O  O187  1  0.87225483  0.84896610  0.68433972  1  -1.162949  0  -0.318951  -0.54756  0  2.332601  0
O  O188  1  0.97718509  0.31734678  0.32587302  1  -1.163199  0  -0.317878  -0.547452  0  2.307576  0
O  O189  1  0.02281740  0.68265213  0.67412733  1  -1.163233  0  -0.317855  -0.547382  0  2.307612  0
O  O190  1  0.01410629  0.29817176  0.22353616  1  -1.174069  0  -0.316328  -0.56199  0  2.367847  0
O  O191  1  0.98589432  0.70182440  0.77646513  1  -1.173897  0  -0.316309  -0.561987  0  2.36775  0
O  O192  1  0.26425959  0.24925652  0.31314825  1  -1.175022  0  -0.319838  -0.560886  0  2.330025  0
O  O193  1  0.73574095  0.75073758  0.68685278  1  -1.175286  0  -0.319765  -0.560763  0  2.330223  0
O  O194  1  0.28327055  0.29299656  0.21116427  1  -1.157823  0  -0.32161  -0.546636  0  2.315152  0
O  O195  1  0.71672572  0.70700307  0.78883733  1  -1.157931  0  -0.321627  -0.546621  0  2.315215  0
