# generated using pymatgen
data_MnH2C4O3
_symmetry_space_group_name_H-M   'P 1'
_cell_length_a   7.11050222
_cell_length_b   15.00201774
_cell_length_c   15.00285855
_cell_angle_alpha   117.53161797
_cell_angle_beta   99.09982811
_cell_angle_gamma   99.09103585
_symmetry_Int_Tables_number   1
_chemical_formula_structural   MnH2C4O3
_chemical_formula_sum   'Mn6 H12 C24 O18'
_cell_volume   1351.59536519
_cell_formula_units_Z   6
loop_
 _symmetry_equiv_pos_site_id
 _symmetry_equiv_pos_as_xyz
  1  'x, y, z'
loop_
 _atom_site_type_symbol
 _atom_site_label
 _atom_site_symmetry_multiplicity
 _atom_site_fract_x
 _atom_site_fract_y
 _atom_site_fract_z
 _atom_site_occupancy
 _atom_site_pbe_bader_charge
 _atom_site_pbe_bader_spin_density
 _atom_site_pbe_cm5_charge
 _atom_site_pbe_ddec_charge
 _atom_site_pbe_ddec_spin_density
 _atom_site_pbe_ddec_sum_bond_order
 _atom_site_pbe_magmom
Mn  Mn0  1  0.97132933  0.26107405  0.58520457  1  1.554908  3.818103  0.606823  1.015823  3.908725  2.915294  3.781
Mn  Mn1  1  0.38624268  0.41484274  0.67594968  1  1.555342  3.818051  0.606504  1.015057  3.905524  2.916544  3.781
Mn  Mn2  1  0.71026833  0.32403315  0.73893058  1  1.557621  3.817534  0.607218  1.017996  3.90495  2.911973  3.78
Mn  Mn3  1  0.02867582  0.73892595  0.41479768  1  1.554934  3.818132  0.606759  1.015654  3.90876  2.915366  3.781
Mn  Mn4  1  0.61375749  0.58515881  0.32404694  1  1.555419  3.818042  0.606442  1.014961  3.90556  2.916644  3.781
Mn  Mn5  1  0.28972176  0.67596529  0.26106586  1  1.557729  3.81752  0.607204  1.017909  3.904961  2.911999  3.78
H  H6  1  0.64518997  0.47334025  0.25799199  1  -0.251497  -0.158076  -0.058874  -0.224353  -0.157265  0.777154  -0.084
H  H7  1  0.38723251  0.74205514  0.21530749  1  -0.252846  -0.157863  -0.058863  -0.225134  -0.157215  0.776972  -0.084
H  H8  1  0.17202623  0.78465504  0.52661367  1  -0.252699  -0.157706  -0.059009  -0.225151  -0.156972  0.777602  -0.084
H  H9  1  0.35481917  0.52666209  0.74200897  1  -0.251483  -0.158072  -0.058871  -0.224319  -0.157259  0.77709  -0.084
H  H10  1  0.61277236  0.25794720  0.78469316  1  -0.252842  -0.157848  -0.05886  -0.225145  -0.157198  0.777025  -0.084
H  H11  1  0.82799004  0.21533872  0.47338583  1  -0.252652  -0.15771  -0.059037  -0.225218  -0.156969  0.777645  -0.084
H  H12  1  0.30588115  0.44628893  0.46987406  1  0.142625  0.000713  0.120062  0.142513  0.000146  0.992166  0.0
H  H13  1  0.83602090  0.53004395  0.97642968  1  0.146151  0.000698  0.118996  0.141011  0.000139  0.993237  0.0
H  H14  1  0.85953875  0.02339508  0.55378354  1  0.155796  0.000691  0.119148  0.140625  0.000138  0.994091  0.0
H  H15  1  0.69411799  0.55370483  0.53012020  1  0.142686  0.000713  0.120049  0.142512  0.000146  0.992182  0.0
H  H16  1  0.16398408  0.46996150  0.02356975  1  0.145994  0.000698  0.119039  0.14106  0.000139  0.993279  0.0
H  H17  1  0.14044976  0.97660569  0.44622320  1  0.155652  0.000691  0.119145  0.140604  0.000138  0.994095  0.0
C  C18  1  0.76642116  0.43904494  0.61430837  1  1.52748  0.0258  0.251135  0.624153  0.023986  4.066124  0.022
C  C19  1  0.15205834  0.38574059  0.82473211  1  1.526167  0.025852  0.252455  0.627913  0.024018  4.062671  0.022
C  C20  1  0.32761718  0.17532134  0.56107415  1  1.472169  0.026064  0.252203  0.62637  0.023943  4.066324  0.022
C  C21  1  0.23358397  0.56095505  0.38569188  1  1.52749  0.025799  0.251158  0.62424  0.023985  4.065981  0.022
C  C22  1  0.84794470  0.61426096  0.17526671  1  1.525634  0.025855  0.252402  0.62772  0.024018  4.062719  0.022
C  C23  1  0.67238048  0.82467787  0.43892920  1  1.472388  0.026058  0.252184  0.626357  0.02394  4.066293  0.022
C  C24  1  0.88902692  0.46666998  0.55475360  1  -0.034689  0.012073  -0.015061  -0.131781  0.00815  3.954855  0.007
C  C25  1  0.33422235  0.44531466  0.91192064  1  -0.055566  0.012195  -0.015768  -0.134987  0.008229  3.954994  0.007
C  C26  1  0.42246660  0.08810966  0.53342651  1  0.041612  0.011899  -0.015279  -0.136024  0.008131  3.956772  0.007
C  C27  1  0.11097742  0.53332846  0.44524520  1  -0.034671  0.012071  -0.015089  -0.131981  0.008149  3.954897  0.007
C  C28  1  0.66577733  0.55468300  0.08807746  1  -0.055879  0.012196  -0.01577  -0.134963  0.008229  3.954904  0.007
C  C29  1  0.57753004  0.91189034  0.46657845  1  0.041584  0.0119  -0.015244  -0.135948  0.008132  3.956751  0.007
C  C30  1  0.06454971  0.43549213  0.53681727  1  0.564932  0.014422  0.092323  0.300342  0.01206  4.045793  0.013
C  C31  1  0.52773872  0.46318637  0.89870183  1  0.551594  0.014618  0.092831  0.300828  0.012142  4.046775  0.013
C  C32  1  0.62917689  0.10125532  0.56461374  1  0.54819  0.014444  0.092981  0.302189  0.012075  4.044055  0.013
C  C33  1  0.93545359  0.56450709  0.46318048  1  0.564765  0.014423  0.092324  0.300446  0.01206  4.045684  0.013
C  C34  1  0.47225914  0.53681908  0.10129776  1  0.551965  0.014613  0.092862  0.300948  0.012141  4.046671  0.013
C  C35  1  0.37082012  0.89874545  0.43539028  1  0.548105  0.014444  0.093008  0.302156  0.012075  4.044064  0.013
C  C36  1  0.17108996  0.46996718  0.48312011  1  -0.005708  0.009641  -0.082621  -0.182153  0.007293  3.920861  0.006
C  C37  1  0.68797944  0.51682585  0.98686687  1  0.020684  0.009506  -0.080705  -0.177873  0.007232  3.921269  0.006
C  C38  1  0.70113669  0.01305216  0.53008339  1  -0.043731  0.009622  -0.081471  -0.178326  0.00725  3.921197  0.006
C  C39  1  0.82891619  0.53003204  0.51687852  1  -0.005855  0.009641  -0.082611  -0.182239  0.007292  3.920966  0.006
C  C40  1  0.31201234  0.48317882  0.01313192  1  0.020579  0.00951  -0.08078  -0.178011  0.007235  3.921264  0.006
C  C41  1  0.29885531  0.98694705  0.46992287  1  -0.043517  0.009623  -0.081485  -0.178287  0.00725  3.921165  0.006
O  O42  1  0.60402207  0.46353633  0.61866641  1  -1.163158  0.089532  -0.28344  -0.496442  0.065245  2.282952  0.053
O  O43  1  0.98528489  0.38132882  0.84483744  1  -1.159956  0.08957  -0.282336  -0.496563  0.065416  2.284494  0.053
O  O44  1  0.14074237  0.15521554  0.53659869  1  -1.130184  0.089204  -0.282687  -0.495758  0.065251  2.281676  0.053
O  O45  1  0.39598291  0.53646055  0.38133038  1  -1.163308  0.089539  -0.283521  -0.496529  0.065244  2.282772  0.053
O  O46  1  0.01471463  0.61867429  0.15515852  1  -1.15929  0.089573  -0.282295  -0.496437  0.065413  2.284429  0.053
O  O47  1  0.85925469  0.84478523  0.46340933  1  -1.130379  0.089202  -0.282694  -0.4957  0.065246  2.281599  0.053
O  O48  1  0.83235846  0.39169726  0.66116686  1  -1.181693  0.080604  -0.293411  -0.536802  0.058316  2.464426  0.037
O  O49  1  0.17120637  0.33885174  0.73057782  1  -1.184865  0.080732  -0.295234  -0.539983  0.05835  2.464872  0.036
O  O50  1  0.44088024  0.26948334  0.60836684  1  -1.190452  0.080546  -0.294269  -0.538076  0.05832  2.466581  0.036
O  O51  1  0.16764849  0.60830352  0.33883455  1  -1.181657  0.080613  -0.293377  -0.536742  0.058319  2.464451  0.037
O  O52  1  0.82880263  0.66114747  0.26942169  1  -1.185  0.080733  -0.295214  -0.539919  0.058354  2.464969  0.036
O  O53  1  0.55911066  0.73051666  0.39163371  1  -1.190486  0.080539  -0.294206  -0.538064  0.058311  2.466598  0.036
O  O54  1  0.13454770  0.37228693  0.56796956  1  -1.152153  0.107116  -0.337292  -0.511168  0.075481  2.533695  0.044
O  O55  1  0.56663512  0.43199631  0.80436745  1  -1.148828  0.107367  -0.338248  -0.512703  0.075621  2.532583  0.044
O  O56  1  0.76245567  0.19557591  0.62781921  1  -1.156947  0.107029  -0.338057  -0.511425  0.075274  2.529513  0.044
O  O57  1  0.86545000  0.62770683  0.43202327  1  -1.152131  0.107106  -0.337268  -0.511096  0.075472  2.533534  0.044
O  O58  1  0.43335755  0.56800446  0.19562892  1  -1.14917  0.107392  -0.338216  -0.512632  0.075619  2.532634  0.044
O  O59  1  0.23754273  0.80442487  0.37218158  1  -1.156911  0.107024  -0.33809  -0.511458  0.075275  2.529616  0.044
