# generated using pymatgen
data_CdH14C18N6O5
_symmetry_space_group_name_H-M   'P 1'
_cell_length_a   7.97566054
_cell_length_b   9.22004830
_cell_length_c   13.29566955
_cell_angle_alpha   104.29493864
_cell_angle_beta   107.54055550
_cell_angle_gamma   92.46487514
_symmetry_Int_Tables_number   1
_chemical_formula_structural   CdH14C18N6O5
_chemical_formula_sum   'Cd2 H28 C36 N12 O10'
_cell_volume   896.06101312
_cell_formula_units_Z   2
loop_
 _symmetry_equiv_pos_site_id
 _symmetry_equiv_pos_as_xyz
  1  'x, y, z'
loop_
 _atom_site_type_symbol
 _atom_site_label
 _atom_site_symmetry_multiplicity
 _atom_site_fract_x
 _atom_site_fract_y
 _atom_site_fract_z
 _atom_site_occupancy
 _atom_site_hle17_bader_spin_density
 _atom_site_hle17_ddec_charge
 _atom_site_hle17_ddec_spin_density
 _atom_site_hle17_ddec_sum_bond_order
 _atom_site_hle17_magmom
 _atom_site_hse06_10hf_bader_spin_density
 _atom_site_hse06_10hf_ddec_charge
 _atom_site_hse06_10hf_ddec_spin_density
 _atom_site_hse06_10hf_ddec_sum_bond_order
 _atom_site_hse06_10hf_magmom
 _atom_site_hse06_bader_spin_density
 _atom_site_hse06_ddec_charge
 _atom_site_hse06_ddec_spin_density
 _atom_site_hse06_ddec_sum_bond_order
 _atom_site_hse06_magmom
 _atom_site_pbe_bader_spin_density
 _atom_site_pbe_cm5_charge
 _atom_site_pbe_ddec_charge
 _atom_site_pbe_ddec_spin_density
 _atom_site_pbe_ddec_sum_bond_order
 _atom_site_pbe_magmom
Cd  Cd0  1  0.44994472  0.01378341  0.27054447  1  0  1.120036  0  1.653799  0  0  0.931315  0  2.089406  0  0  0.989511  0  2.038517  0  0  0.772541  0.89064  0  2.122833  0
Cd  Cd1  1  0.55005292  0.98621765  0.72945574  1  0  1.120021  0  1.653796  0  0  0.931302  0  2.089406  0  0  0.989494  0  2.038517  0  0  0.772555  0.890622  0  2.122829  0
H  H2  1  0.91009580  0.80679879  0.84288623  1  0  0.104851  0  0.955498  0  0  0.11423  0  1.017834  0  0  0.116581  0  1.016125  0  0  0.117153  0.112011  0  1.020262  0
H  H3  1  0.08990617  0.19321245  0.15712171  1  0  0.104835  0  0.9555  0  0  0.114212  0  1.017825  0  0  0.116566  0  1.016113  0  0  0.117144  0.111975  0  1.020299  0
H  H4  1  0.91292776  0.96293545  0.05176385  1  0  0.124179  0  0.972352  0  0  0.136393  0  1.028973  0  0  0.138965  0  1.029135  0  0  0.109471  0.135932  0  1.025487  0
H  H5  1  0.08709251  0.03706456  0.94825127  1  0  0.124209  0  0.972385  0  0  0.13643  0  1.029002  0  0  0.139008  0  1.029161  0  0  0.109488  0.135966  0  1.025519  0
H  H6  1  0.80785076  0.74388217  0.13268741  1  0  0.10068  0  0.975619  0  0  0.112328  0  1.038204  0  0  0.114183  0  1.036631  0  0  0.117956  0.110318  0  1.039599  0
H  H7  1  0.19216049  0.25611216  0.86731770  1  0  0.100711  0  0.975664  0  0  0.112343  0  1.038258  0  0  0.114199  0  1.036686  0  0  0.117948  0.110334  0  1.039648  0
H  H8  1  0.71575553  0.53091820  0.14486033  1  0  0.11683  0  0.938947  0  0  0.127832  0  0.999702  0  0  0.131779  0  0.996024  0  0  0.11526  0.124802  0  1.002756  0
H  H9  1  0.28422483  0.46908281  0.85513245  1  0  0.116882  0  0.939029  0  0  0.127926  0  0.999716  0  0  0.131877  0  0.996028  0  0  0.115298  0.124898  0  1.002768  0
H  H10  1  0.57925830  0.05879996  0.97812457  1  0  0.08809  0  0.997209  0  0  0.091877  0  1.070682  0  0  0.095472  0  1.06668  0  0  0.113922  0.090917  0  1.06929  0
H  H11  1  0.42074786  0.94119771  0.02187198  1  0  0.088084  0  0.997244  0  0  0.091873  0  1.070706  0  0  0.095466  0  1.066705  0  0  0.113929  0.090916  0  1.06931  0
H  H12  1  0.72522139  0.34401621  0.81362531  1  0  0.106241  0  0.944082  0  0  0.108623  0  1.016499  0  0  0.112507  0  1.012356  0  0  0.123118  0.105705  0  1.019761  0
H  H13  1  0.27477876  0.65598484  0.18637231  1  0  0.106249  0  0.944187  0  0  0.108632  0  1.0166  0  0  0.112515  0  1.012465  0  0  0.123116  0.105714  0  1.019862  0
H  H14  1  0.84314441  0.01577175  0.26545867  1  0  0.097746  0  0.941101  0  0  0.103246  0  1.009607  0  0  0.106882  0  1.00611  0  0  0.117882  0.100213  0  1.012781  0
H  H15  1  0.15685693  0.98423499  0.73454915  1  0  0.097734  0  0.941165  0  0  0.103247  0  1.009653  0  0  0.10688  0  1.006159  0  0  0.117886  0.100213  0  1.012829  0
H  H16  1  0.58150752  0.79320290  0.42135607  1  0  0.114595  0  0.952855  0  0  0.120479  0  1.018807  0  0  0.124343  0  1.014506  0  0  0.127704  0.117601  0  1.022114  0
H  H17  1  0.41849190  0.20679140  0.57864704  1  0  0.114613  0  0.952941  0  0  0.120477  0  1.018917  0  0  0.12434  0  1.014617  0  0  0.12775  0.117609  0  1.022211  0
H  H18  1  0.14152622  0.75877711  0.47109903  1  0  0.132657  0  0.95677  0  0  0.137739  0  1.026604  0  0  0.141834  0  1.022823  0  0  0.114822  0.134478  0  1.029951  0
H  H19  1  0.85847179  0.24121830  0.52889726  1  0  0.132622  0  0.956545  0  0  0.13765  0  1.026457  0  0  0.141744  0  1.022677  0  0  0.114785  0.134389  0  1.029801  0
H  H20  1  0.13784666  0.66814412  0.60329230  1  0  0.11983  0  0.972767  0  0  0.130773  0  1.034859  0  0  0.133529  0  1.032442  0  0  0.126238  0.128869  0  1.036393  0
H  H21  1  0.86215247  0.33185015  0.39670324  1  0  0.119878  0  0.972642  0  0  0.130774  0  1.034801  0  0  0.133528  0  1.032389  0  0  0.126234  0.128865  0  1.036336  0
H  H22  1  0.01554271  0.50911637  0.72197761  1  0  0.122002  0  0.967749  0  0  0.130384  0  1.028635  0  0  0.13315  0  1.028775  0  0  0.106289  0.128445  0  1.028734  0
H  H23  1  0.98446151  0.49087679  0.27801859  1  0  0.121866  0  0.967752  0  0  0.130235  0  1.028672  0  0  0.133001  0  1.028814  0  0  0.106253  0.128293  0  1.02877  0
H  H24  1  0.65291239  0.49934956  0.64265014  1  0  0.107543  0  0.929928  0  0  0.11721  0  0.990285  0  0  0.119865  0  0.987405  0  0  0.125545  0.115331  0  0.992334  0
H  H25  1  0.34709214  0.50064474  0.35735007  1  0  0.107572  0  0.929922  0  0  0.11726  0  0.990247  0  0  0.119895  0  0.987389  0  0  0.125549  0.115378  0  0.992298  0
H  H26  1  0.57726660  0.30777690  0.34699971  1  0  0.401445  0  0.912337  0  0  0.368607  0  0.985094  0  0  0.380962  0  0.967413  0  0  0.278346  0.359872  0  0.997524  0
H  H27  1  0.42272716  0.69222638  0.65299346  1  0  0.401341  0  0.912472  0  0  0.368512  0  0.985194  0  0  0.380862  0  0.967521  0  0  0.278337  0.359774  0  0.99763  0
H  H28  1  0.48606647  0.28795029  0.43582371  1  0  0.393621  0  0.91924  0  0  0.356655  0  0.998188  0  0  0.36718  0  0.983254  0  0  0.285856  0.349261  0  1.008627  0
H  H29  1  0.51393578  0.71204738  0.56417293  1  0  0.393589  0  0.919341  0  0  0.356632  0  0.998228  0  0  0.367156  0  0.983295  0  0  0.285858  0.349239  0  1.008664  0
C  C30  1  0.87880003  0.76383767  0.90515002  1  0  0.040904  0  3.73406  0  0  0.007314  0  4.016498  0  0  0.013277  0  4.029697  0  0  0.017724  0.001185  0  4.007952  0
C  C31  1  0.12119997  0.23617017  0.09485325  1  0  0.04095  0  3.733947  0  0  0.007381  0  4.016384  0  0  0.013335  0  4.029604  0  0  0.017763  0.001249  0  4.007822  0
C  C32  1  0.87873120  0.84350719  0.01102487  1  0  -0.186881  0  3.768503  0  0  -0.202516  0  4.032997  0  0  -0.210564  0  4.052542  0  0  -0.112285  -0.196415  0  4.013336  0
C  C33  1  0.12128065  0.15649054  0.98898318  1  0  -0.186946  0  3.768472  0  0  -0.202579  0  4.032907  0  0  -0.210639  0  4.052461  0  0  -0.112301  -0.196473  0  4.01324  0
C  C34  1  0.82620199  0.73479574  0.05403368  1  0  -0.011102  0  3.67869  0  0  -0.069653  0  3.937066  0  0  -0.054382  0  3.958138  0  0  0.009696  -0.070866  0  3.924342  0
C  C35  1  0.17380297  0.26520083  0.94596925  1  0  -0.011125  0  3.678687  0  0  -0.069633  0  3.937027  0  0  -0.054399  0  3.958083  0  0  0.009658  -0.070846  0  3.924295  0
C  C36  1  0.73636338  0.45690646  0.97999870  1  0  0.13106  0  3.768703  0  0  0.11339  0  4.023061  0  0  0.124555  0  4.045644  0  0  0.109651  0.112979  0  4.008499  0
C  C37  1  0.26362918  0.54309683  0.01999728  1  0  0.131171  0  3.768628  0  0  0.113543  0  4.022963  0  0  0.124681  0  4.045529  0  0  0.109682  0.113137  0  4.008398  0
C  C38  1  0.70156210  0.43733781  0.07314851  1  0  -0.101905  0  3.683796  0  0  -0.142282  0  3.944764  0  0  -0.139255  0  3.95835  0  0  -0.065102  -0.14489  0  3.935212  0
C  C39  1  0.29842826  0.56265983  0.92684462  1  0  -0.10209  0  3.683904  0  0  -0.1425  0  3.944854  0  0  -0.13948  0  3.958454  0  0  -0.065154  -0.145105  0  3.935299  0
C  C40  1  0.64521714  0.29298074  0.07429554  1  0  -0.090208  0  3.74957  0  0  -0.063938  0  3.986677  0  0  -0.074714  0  4.009935  0  0  -0.01309  -0.058119  0  3.972696  0
C  C41  1  0.35478027  0.70701918  0.92570293  1  0  -0.090077  0  3.74958  0  0  -0.063811  0  3.986682  0  0  -0.074591  0  4.00995  0  0  -0.013088  -0.057993  0  3.972706  0
C  C42  1  0.60548647  0.26439609  0.17229362  1  0  0.657005  0  3.915549  0  0  0.604899  0  4.20872  0  0  0.639518  0  4.2026  0  0  0.209621  0.581524  0  4.212753  0
C  C43  1  0.39450326  0.73560606  0.82770093  1  0  0.656967  0  3.915658  0  0  0.604865  0  4.208839  0  0  0.639481  0  4.20272  0  0  0.209489  0.581488  0  4.212874  0
C  C44  1  0.62315737  0.17348310  0.98148534  1  0  0.102977  0  3.694492  0  0  0.059902  0  3.947445  0  0  0.068238  0  3.964012  0  0  0.042452  0.055762  0  3.931871  0
C  C45  1  0.37684636  0.82651569  0.01851174  1  0  0.10292  0  3.694477  0  0  0.059843  0  3.947445  0  0  0.068195  0  3.963982  0  0  0.042447  0.055701  0  3.931879  0
C  C46  1  0.70564879  0.33181618  0.88882827  1  0  0.0646  0  3.64961  0  0  0.019999  0  3.915943  0  0  0.027402  0  3.927744  0  0  0.051262  0.01541  0  3.906115  0
C  C47  1  0.29435127  0.66818486  0.11116708  1  0  0.064526  0  3.650005  0  0  0.019886  0  3.916378  0  0  0.027288  0  3.928175  0  0  0.051241  0.015296  0  3.906554  0
C  C48  1  0.17218163  0.92713567  0.33541034  1  0  0.623866  0  3.962213  0  0  0.576057  0  4.250383  0  0  0.610126  0  4.246251  0  0  0.189183  0.552914  0  4.25259  0
C  C49  1  0.82781611  0.07287442  0.66459368  1  0  0.623702  0  3.962608  0  0  0.575848  0  4.250831  0  0  0.609919  0  4.246707  0  0  0.189091  0.552708  0  4.253028  0
C  C50  1  0.01050994  0.88850483  0.36401218  1  0  -0.088734  0  3.7614  0  0  -0.06172  0  3.99551  0  0  -0.072917  0  4.019061  0  0  -0.011662  -0.054764  0  3.980005  0
C  C51  1  0.98948998  0.11149286  0.63599160  1  0  -0.088878  0  3.761596  0  0  -0.061836  0  3.99568  0  0  -0.073037  0  4.019235  0  0  -0.011751  -0.054884  0  3.980178  0
C  C52  1  0.85155091  0.94225121  0.31920461  1  0  0.091914  0  3.6965  0  0  0.049352  0  3.952928  0  0  0.05812  0  3.968401  0  0  0.039987  0.043876  0  3.943007  0
C  C53  1  0.14845082  0.05774987  0.68080005  1  0  0.091946  0  3.696565  0  0  0.04937  0  3.952988  0  0  0.058135  0  3.968468  0  0  0.040023  0.043897  0  3.943066  0
C  C54  1  0.70569098  0.81808583  0.40723859  1  0  0.065371  0  3.638389  0  0  0.022189  0  3.898659  0  0  0.02965  0  3.912228  0  0  0.05316  0.017072  0  3.890508  0
C  C55  1  0.29431674  0.18191186  0.59276424  1  0  0.065371  0  3.638255  0  0  0.022145  0  3.89863  0  0  0.02961  0  3.912195  0  0  0.053166  0.017017  0  3.890493  0
C  C56  1  0.86116049  0.76331005  0.45749496  1  0  0.134892  0  3.763927  0  0  0.116895  0  4.016364  0  0  0.11823  0  4.038147  0  0  0.113522  0.114909  0  4.002124  0
C  C57  1  0.13883757  0.23668536  0.54250285  1  0  0.134888  0  3.763877  0  0  0.116908  0  4.016328  0  0  0.118242  0  4.03811  0  0  0.113491  0.11492  0  4.002092  0
C  C58  1  0.01624289  0.79815184  0.43482896  1  0  -0.103123  0  3.655249  0  0  -0.13945  0  3.91009  0  0  -0.137339  0  3.928552  0  0  -0.06089  -0.139341  0  3.897687  0
C  C59  1  0.98376427  0.20184246  0.56517169  1  0  -0.10303  0  3.655168  0  0  -0.139293  0  3.909976  0  0  -0.137181  0  3.928438  0  0  -0.060822  -0.139185  0  3.89757  0
C  C60  1  0.00382401  0.63695550  0.60040885  1  0  0.006176  0  3.648282  0  0  -0.056742  0  3.910158  0  0  -0.048864  0  3.925192  0  0  0.019572  -0.061539  0  3.899428  0
C  C61  1  0.99618040  0.36303878  0.39958833  1  0  0.00621  0  3.648006  0  0  -0.056638  0  3.909891  0  0  -0.04876  0  3.924921  0  0  0.019634  -0.061426  0  3.899146  0
C  C62  1  0.93936366  0.55624531  0.65840612  1  0  -0.189246  0  3.76896  0  0  -0.203957  0  4.039063  0  0  -0.213552  0  4.060971  0  0  -0.10897  -0.197328  0  4.02408  0
C  C63  1  0.06064330  0.44374787  0.34159356  1  0  -0.189057  0  3.768802  0  0  -0.203741  0  4.038928  0  0  -0.213333  0  4.060829  0  0  -0.108984  -0.197114  0  4.02394  0
C  C64  1  0.75334664  0.55114919  0.61808827  1  0  0.082901  0  3.701524  0  0  0.04302  0  3.980395  0  0  0.051509  0  3.993281  0  0  0.034163  0.038046  0  3.971108  0
C  C65  1  0.24665823  0.44884736  0.38191239  1  0  0.082724  0  3.701696  0  0  0.042801  0  3.980623  0  0  0.051304  0  3.993512  0  0  0.034144  0.037832  0  3.971335  0
N  N66  1  0.83031640  0.61608512  0.88396665  1  0  -0.254062  0  2.894443  0  0  -0.250118  0  3.163595  0  0  -0.248341  0  3.185252  0  0  -0.226255  -0.245622  0  3.154399  0
N  N67  1  0.16967537  0.38392156  0.11603052  1  0  -0.254017  0  2.894436  0  0  -0.250053  0  3.163577  0  0  -0.248307  0  3.185206  0  0  -0.226257  -0.245558  0  3.154382  0
N  N68  1  0.79750276  0.59967227  0.97564042  1  0  0.025917  0  3.636316  0  0  0.140553  0  3.813614  0  0  0.101494  0  3.876795  0  0  -0.133826  0.145817  0  3.795248  0
N  N69  1  0.20249126  0.40033104  0.02435957  1  0  0.025803  0  3.636376  0  0  0.140369  0  3.813742  0  0  0.101425  0  3.876773  0  0  -0.133832  0.145634  0  3.795372  0
N  N70  1  0.64921302  0.19346283  0.89050115  1  0  -0.324977  0  3.283992  0  0  -0.246112  0  3.552579  0  0  -0.266582  0  3.573563  0  0  -0.326194  -0.23192  0  3.535646  0
N  N71  1  0.35078548  0.80653596  0.10949581  1  0  -0.324848  0  3.283996  0  0  -0.245964  0  3.55256  0  0  -0.266434  0  3.573545  0  0  -0.326131  -0.231775  0  3.535638  0
N  N72  1  0.70328035  0.90606567  0.34027956  1  0  -0.316318  0  3.300738  0  0  -0.23602  0  3.570527  0  0  -0.256426  0  3.590247  0  0  -0.330492  -0.223196  0  3.557793  0
N  N73  1  0.29671954  0.09393202  0.65972346  1  0  -0.316306  0  3.300706  0  0  -0.235982  0  3.570503  0  0  -0.256388  0  3.590224  0  0  -0.330538  -0.223159  0  3.557776  0
N  N74  1  0.86002075  0.67673096  0.53051836  1  0  0.034758  0  3.62046  0  0  0.150083  0  3.791077  0  0  0.138547  0  3.819102  0  0  -0.129738  0.156922  0  3.774682  0
N  N75  1  0.13998649  0.32326447  0.46948024  1  0  0.034794  0  3.620392  0  0  0.150083  0  3.791063  0  0  0.138549  0  3.819086  0  0  -0.129691  0.156931  0  3.774648  0
N  N76  1  0.70487291  0.62442419  0.54087775  1  0  -0.28804  0  2.959499  0  0  -0.266854  0  3.21544  0  0  -0.277005  0  3.230309  0  0  -0.229097  -0.25946  0  3.204604  0
N  N77  1  0.29512541  0.37557235  0.45912255  1  0  -0.28802  0  2.959651  0  0  -0.266801  0  3.21558  0  0  -0.276948  0  3.230443  0  0  -0.229143  -0.259413  0  3.204746  0
O  O78  1  0.60727623  0.37655024  0.24970496  1  0  -0.605132  0  1.931542  0  0  -0.557196  0  2.151431  0  0  -0.581216  0  2.142524  0  0  -0.317767  -0.540243  0  2.156984  0
O  O79  1  0.39271289  0.62344852  0.75028590  1  0  -0.605131  0  1.93148  0  0  -0.557203  0  2.151359  0  0  -0.581221  0  2.14245  0  0  -0.317694  -0.54025  0  2.156914  0
O  O80  1  0.57382865  0.12496026  0.16740838  1  0  -0.668808  0  2.033697  0  0  -0.595829  0  2.28669  0  0  -0.626666  0  2.277089  0  0  -0.335464  -0.574823  0  2.291964  0
O  O81  1  0.42615986  0.87504190  0.83258823  1  0  -0.668806  0  2.033721  0  0  -0.595834  0  2.286714  0  0  -0.626669  0  2.27711  0  0  -0.335442  -0.574828  0  2.29199  0
O  O82  1  0.57111583  0.24480683  0.39873984  1  0  -0.823419  0  1.918073  0  0  -0.758737  0  2.124633  0  0  -0.782805  0  2.090478  0  0  -0.585143  -0.741639  0  2.148186  0
O  O83  1  0.42888568  0.75519534  0.60125519  1  0  -0.82326  0  1.918244  0  0  -0.758583  0  2.124828  0  0  -0.78265  0  2.090685  0  0  -0.585131  -0.74148  0  2.148374  0
O  O84  1  0.16555557  0.02778246  0.28325530  1  0  -0.642298  0  1.958333  0  0  -0.582386  0  2.204412  0  0  -0.611697  0  2.196345  0  0  -0.332777  -0.561872  0  2.209206  0
O  O85  1  0.83444190  0.97222538  0.71674981  1  0  -0.642198  0  1.958195  0  0  -0.582276  0  2.204284  0  0  -0.611565  0  2.196168  0  0  -0.33279  -0.561763  0  2.209067  0
O  O86  1  0.30538923  0.85840536  0.36299880  1  0  -0.618485  0  1.920701  0  0  -0.55792  0  2.143131  0  0  -0.585185  0  2.135238  0  0  -0.323351  -0.538848  0  2.148107  0
O  O87  1  0.69462024  0.14161266  0.63701007  1  0  -0.61834  0  1.921043  0  0  -0.557731  0  2.143406  0  0  -0.584995  0  2.135513  0  0  -0.323205  -0.53867  0  2.148382  0
