# generated using pymatgen
data_ZnH22C29NO4
_symmetry_space_group_name_H-M   'P 1'
_cell_length_a   13.40973031
_cell_length_b   18.32611381
_cell_length_c   19.52830543
_cell_angle_alpha   87.74145559
_cell_angle_beta   87.81497349
_cell_angle_gamma   69.43210590
_symmetry_Int_Tables_number   1
_chemical_formula_structural   ZnH22C29NO4
_chemical_formula_sum   'Zn2 H44 C58 N2 O8'
_cell_volume   4488.13602904
_cell_formula_units_Z   2
loop_
 _symmetry_equiv_pos_site_id
 _symmetry_equiv_pos_as_xyz
  1  'x, y, z'
loop_
 _atom_site_type_symbol
 _atom_site_label
 _atom_site_symmetry_multiplicity
 _atom_site_fract_x
 _atom_site_fract_y
 _atom_site_fract_z
 _atom_site_occupancy
 _atom_site_pbe_bader_charge
 _atom_site_pbe_bader_spin_density
 _atom_site_pbe_cm5_charge
 _atom_site_pbe_ddec_charge
 _atom_site_pbe_ddec_spin_density
 _atom_site_pbe_ddec_sum_bond_order
 _atom_site_pbe_magmom
Zn  Zn0  1  0.48921089  0.58074046  0.50001594  1  1.290056  0  0.669928  0.832188  0  2.386865  0
Zn  Zn1  1  0.50685719  0.42127449  0.50036192  1  1.289529  0  0.669666  0.825718  0  2.428771  0
H  H2  1  0.84728401  0.32782166  0.41955286  1  0.090562  0  0.10135  0.105561  0  1.003492  0
H  H3  1  0.18070883  0.36592850  0.38178869  1  0.043364  0  0.098652  0.09949  0  0.998163  0
H  H4  1  0.55862933  0.59498063  0.84041405  1  0.064634  0  0.097185  0.095799  0  1.010078  0
H  H5  1  0.59966672  0.81779978  0.41935864  1  0.066121  0  0.108777  0.117924  0  1.007005  0
H  H6  1  0.37343254  0.85233058  0.58889844  1  0.074025  0  0.110627  0.117906  0  0.995093  0
H  H7  1  0.39161356  0.71273904  0.57966941  1  0.113263  0  0.12697  0.103507  0  0.977985  0
H  H8  1  0.46661123  0.93802746  0.61449206  1  0.069785  0  0.106865  0.106701  0  0.994536  0
H  H9  1  0.46463244  0.07319636  0.61415922  1  0.056374  0  0.10669  0.105681  0  0.995877  0
H  H10  1  0.48501122  0.07665332  0.39328898  1  0.062327  0  0.106544  0.105277  0  0.996194  0
H  H11  1  0.48731925  0.94157879  0.39370615  1  0.065958  0  0.106551  0.105997  0  0.994991  0
H  H12  1  0.59047801  0.14690840  0.41637597  1  0.073402  0  0.111946  0.117521  0  0.994668  0
H  H13  1  0.67006990  0.37410730  0.16848015  1  0.035335  0  0.096457  0.099542  0  1.003561  0
H  H14  1  0.03439893  0.31484610  0.38481597  1  0.05754  0  0.096879  0.095317  0  1.003553  0
H  H15  1  0.59517301  0.28210750  0.41887503  1  0.121797  0  0.129153  0.105694  0  0.97249  0
H  H16  1  0.38514029  0.33772410  0.58521707  1  0.141522  0  0.13158  0.106559  0  0.960124  0
H  H17  1  0.36815909  0.20579885  0.58920725  1  0.076219  0  0.113615  0.120279  0  0.989981  0
H  H18  1  0.81358931  0.53120021  0.53084120  1  0.071737  0  0.10338  0.105729  0  1.031244  0
H  H19  1  0.14863407  0.67827981  0.56658665  1  0.096623  0  0.102587  0.106089  0  0.997897  0
H  H20  1  0.87887783  0.60332995  0.56444981  1  0.053321  0  0.101181  0.098352  0  1.018865  0
H  H21  1  0.95848849  0.69747957  0.59925519  1  0.065226  0  0.098637  0.095123  0  0.997173  0
H  H22  1  0.26167558  0.45672039  0.42217398  1  0.091232  0  0.104157  0.11731  0  1.020101  0
H  H23  1  0.63541864  0.38221862  0.29519747  1  0.081855  0  0.099027  0.10301  0  1.001846  0
H  H24  1  0.68218165  0.53663942  0.05543016  1  0.056536  0  0.101128  0.102699  0  0.993707  0
H  H25  1  0.31735556  0.56624534  0.08221316  1  0.02144  0  0.082536  0.109417  0  1.022192  0
H  H26  1  0.26880650  0.66944340  0.07158230  1  0.023836  0  0.083432  0.108629  0  1.003552  0
H  H27  1  0.25595681  0.62538647  0.15266430  1  0.010519  0  0.083992  0.110763  0  1.027502  0
H  H28  1  0.40816033  0.67842582  0.14897602  1  0.025874  0  0.088347  0.078174  0  0.999322  0
H  H29  1  0.46612826  0.61919156  0.07925812  1  0.037052  0  0.088013  0.083221  0  1.012398  0
H  H30  1  0.23847034  0.58751756  0.26323969  1  0.00881  0  0.079904  0.100806  0  1.025987  0
H  H31  1  0.29791947  0.56162099  0.34423031  1  0.005734  0  0.084496  0.116994  0  1.026244  0
H  H32  1  0.21323379  0.65875054  0.32746611  1  0.011883  0  0.085748  0.115644  0  0.997735  0
H  H33  1  0.40307768  0.64980427  0.32065205  1  0.071546  0  0.092723  0.100779  0  1.000038  0
H  H34  1  0.34348918  0.67750285  0.24003518  1  0.004483  0  0.08677  0.078228  0  1.015036  0
H  H35  1  0.68547557  0.53088173  0.92877429  1  0.078746  0  0.099744  0.098589  0  1.003687  0
H  H36  1  0.75953228  0.71896882  0.40116635  1  0.006162  0  0.080824  0.100002  0  1.019642  0
H  H37  1  0.80463225  0.62012802  0.37650339  1  0.053943  0  0.09454  0.129661  0  0.982492  0
H  H38  1  0.77694045  0.64324365  0.46387181  1  0.036659  0  0.0847  0.112206  0  1.040726  0
H  H39  1  0.63123994  0.60732300  0.40928528  1  0.108195  0  0.102652  0.119764  0  1.023742  0
H  H40  1  0.60920429  0.68682926  0.35114795  1  0.05615  0  0.1004  0.104691  0  0.955556  0
H  H41  1  0.45902353  0.41241852  0.94284743  1  0.056208  0  0.09964  0.097635  0  1.007206  0
H  H42  1  0.45697841  0.41757178  0.06942232  1  0.062514  0  0.101342  0.101161  0  0.996796  0
H  H43  1  0.56174354  0.35905314  0.84355326  1  0.074874  0  0.098088  0.096388  0  1.007947  0
H  H44  1  0.53277154  0.37030693  0.71760219  1  0.08295  0  0.10134  0.104322  0  1.004546  0
H  H45  1  0.52707232  0.60563545  0.71468245  1  0.083181  0  0.100828  0.103562  0  1.004153  0
C  C46  1  0.50722324  0.49544705  0.63330374  1  1.559836  0  0.212722  0.594936  0  4.167835  0
C  C47  1  0.17192907  0.57532005  0.51075957  1  -0.043195  0  -0.011877  -0.067259  0  3.917704  0
C  C48  1  0.59199334  0.43034306  0.26089773  1  -0.078216  0  -0.097382  -0.105551  0  4.051727  0
C  C49  1  0.28982794  0.55845127  0.50409492  1  1.552995  0  0.215344  0.597686  0  4.170497  0
C  C50  1  0.61117269  0.42600579  0.19046535  1  -0.025076  0  -0.104851  -0.153132  0  4.069192  0
C  C51  1  0.55396363  0.48795897  0.14709084  1  -0.077166  0  -0.012397  0.011149  0  3.998946  0
C  C52  1  0.47799896  0.55602628  0.17475985  1  0.01451  0  -0.009323  0.015598  0  3.878991  0
C  C53  1  0.45780786  0.56036404  0.24641580  1  0.013339  0  -0.002392  0.057974  0  3.87038  0
C  C54  1  0.51605040  0.49669248  0.28897992  1  0.010197  0  -0.019512  -0.082829  0  3.950464  0
C  C55  1  0.63290413  0.50947152  0.03075670  1  -0.049991  0  -0.092989  -0.136794  0  4.012622  0
C  C56  1  0.63421496  0.50664341  0.95943643  1  -0.084971  0  -0.094521  -0.132893  0  4.005548  0
C  C57  1  0.01745591  0.53293296  0.50537798  1  0.025105  0  -0.003413  0.030701  0  3.948472  0
C  C58  1  0.57043794  0.47290909  0.92633240  1  -0.04042  0  -0.011439  0.062319  0  4.017002  0
C  C59  1  0.50945334  0.43871427  0.96733310  1  0.014503  0  -0.093968  -0.129415  0  4.004012  0
C  C60  1  0.50774770  0.44198211  0.03847341  1  -0.099198  0  -0.093151  -0.133681  0  4.008402  0
C  C61  1  0.50183759  0.49595558  0.36567138  1  1.546163  0  0.21692  0.603316  0  4.164003  0
C  C62  1  0.56721306  0.47917911  0.07136373  1  0.00182  0  -0.00594  0.079128  0  4.00347  0
C  C63  1  0.55372284  0.41346680  0.81558020  1  -0.050247  0  -0.096498  -0.143733  0  4.005679  0
C  C64  1  0.53754279  0.41934439  0.74536282  1  -0.09636  0  -0.087335  -0.087093  0  3.99698  0
C  C65  1  0.52674542  0.48892501  0.70874399  1  0.037114  0  -0.021173  -0.034735  0  3.967684  0
C  C66  1  0.53561903  0.55171895  0.74349097  1  -0.059101  0  -0.087801  -0.088967  0  3.998853  0
C  C67  1  0.55383155  0.54528939  0.81352109  1  -0.059154  0  -0.096193  -0.142739  0  4.002173  0
C  C68  1  0.12500238  0.52306278  0.48550121  1  0.006206  0  -0.001188  0.06034  0  3.948503  0
C  C69  1  0.56144422  0.47652503  0.85105042  1  -0.017128  0  -0.007052  0.074481  0  4.010061  0
C  C70  1  0.55909025  0.71895806  0.45371734  1  0.50961  0  0.136775  0.29346  0  3.891168  0
C  C71  1  0.55088273  0.79706375  0.45545241  1  -0.044146  0  -0.084603  -0.235629  0  3.910296  0
C  C72  1  0.48472007  0.84757871  0.50350651  1  -0.003639  0  0.011504  0.11783  0  4.022462  0
C  C73  1  0.70480604  0.44746282  0.49077488  1  1.575417  0  0.21254  0.592785  0  4.170911  0
C  C74  1  0.42709256  0.81635794  0.55025774  1  0.025519  0  -0.088429  -0.194733  0  3.975236  0
C  C75  1  0.43636245  0.73898493  0.54525687  1  0.454466  0  0.053039  0.109424  0  3.942564  0
C  C76  1  0.46901989  0.96868432  0.56579043  1  -0.019678  0  -0.084516  -0.120569  0  3.981532  0
C  C77  1  0.46780676  0.04496316  0.56558158  1  -0.064769  0  -0.084603  -0.1198  0  3.981438  0
C  C78  1  0.47546884  0.08475086  0.50373155  1  0.044571  0  -0.005614  0.06114  0  4.00313  0
C  C79  1  0.97040577  0.47802550  0.48230375  1  0.005155  0  -0.005619  0.027445  0  3.958669  0
C  C80  1  0.48245895  0.04609393  0.44201000  1  -0.036601  0  -0.0848  -0.120319  0  3.989433  0
C  C81  1  0.48376147  0.96997321  0.44223793  1  -0.047243  0  -0.084923  -0.119461  0  3.986647  0
C  C82  1  0.47814428  0.92959153  0.50413268  1  -0.046889  0  -0.004332  0.063944  0  3.998341  0
C  C83  1  0.54240325  0.18742697  0.45431740  1  -0.003528  0  -0.081942  -0.183189  0  3.956857  0
C  C84  1  0.54673189  0.26188825  0.45569106  1  0.493116  0  0.060955  0.109253  0  3.925533  0
C  C85  1  0.98610828  0.36205348  0.41745014  1  -0.083809  0  -0.096805  -0.143844  0  4.019346  0
C  C86  1  0.42938252  0.29300239  0.54921051  1  0.468688  0  0.063224  0.111197  0  3.921048  0
C  C87  1  0.42101698  0.21945971  0.55116095  1  0.036305  0  -0.079812  -0.182524  0  3.949707  0
C  C88  1  0.47900452  0.16425738  0.50317109  1  -0.091769  0  0.015362  0.113041  0  3.999153  0
C  C89  1  0.82071773  0.43194118  0.47645956  1  0.012408  0  -0.021749  -0.031495  0  3.987219  0
C  C90  1  0.03141422  0.41620632  0.43896297  1  -0.030886  0  -0.010056  0.076642  0  4.029426  0
C  C91  1  0.11110779  0.63859530  0.54911782  1  -0.033004  0  -0.089316  -0.101291  0  4.008236  0
C  C92  1  0.00493573  0.64887602  0.56753230  1  -0.040074  0  -0.099852  -0.094411  0  4.076665  0
C  C93  1  0.96002496  0.59599047  0.54731835  1  -0.099571  0  -0.090471  -0.129279  0  4.011983  0
C  C94  1  0.41780908  0.62222551  0.12643793  1  -0.031828  0  -0.16542  -0.141235  0  4.001295  0
C  C95  1  0.30853039  0.62087228  0.10729752  1  -0.045945  0  -0.244137  -0.346258  0  3.960852  0
C  C96  1  0.37064814  0.62905911  0.27770455  1  -0.025418  0  -0.167408  -0.152491  0  3.975974  0
C  C97  1  0.27451133  0.60809936  0.30452602  1  -0.010209  0  -0.2438  -0.344019  0  3.948818  0
C  C98  1  0.63548075  0.66573298  0.40341063  1  -0.032341  0  -0.159482  -0.192372  0  3.947029  0
C  C99  1  0.75037549  0.66225316  0.41163396  1  -0.068576  0  -0.240554  -0.339757  0  3.950154  0
C  C100  1  0.13647144  0.41134337  0.41731756  1  -0.064955  0  -0.096953  -0.143883  0  4.036322  0
C  C101  1  0.18146336  0.46212038  0.43951147  1  -0.010851  0  -0.090988  -0.120476  0  3.999268  0
C  C102  1  0.86500821  0.48423118  0.49951513  1  -0.029806  0  -0.081561  -0.135109  0  3.956418  0
C  C103  1  0.88290868  0.36894690  0.43624610  1  -0.062744  0  -0.091191  -0.100533  0  4.018811  0
N  N104  1  0.50022055  0.69105930  0.49814599  1  -1.235968  0  -0.313578  -0.256343  0  3.4377  0
N  N105  1  0.49181740  0.31363353  0.50264039  1  -1.241906  0  -0.319353  -0.19989  0  3.517165  0
O  O106  1  0.47894436  0.56339012  0.60512718  1  -1.160574  0  -0.323169  -0.5586  0  2.318867  0
O  O107  1  0.52109903  0.43197083  0.60319321  1  -1.16721  0  -0.322203  -0.55391  0  2.32741  0
O  O108  1  0.32394885  0.61504509  0.49663684  1  -1.155324  0  -0.322542  -0.548736  0  2.26702  0
O  O109  1  0.34770415  0.48668706  0.50980829  1  -1.177723  0  -0.315767  -0.563179  0  2.389351  0
O  O110  1  0.50134985  0.55588637  0.39698913  1  -1.174266  0  -0.309439  -0.55278  0  2.367587  0
O  O111  1  0.49485130  0.43421858  0.39406973  1  -1.169839  0  -0.32039  -0.557896  0  2.312178  0
O  O112  1  0.64965638  0.51639374  0.50895323  1  -1.18353  0  -0.320643  -0.561822  0  2.359019  0
O  O113  1  0.66870904  0.39284159  0.48224417  1  -1.161301  0  -0.321564  -0.544747  0  2.28588  0
