# generated using pymatgen
data_SmV2H24C44S4N4O13
_symmetry_space_group_name_H-M   'P 1'
_cell_length_a   9.93104134
_cell_length_b   15.37306728
_cell_length_c   15.31315501
_cell_angle_alpha   90.00124622
_cell_angle_beta   91.96171767
_cell_angle_gamma   90.04785016
_symmetry_Int_Tables_number   1
_chemical_formula_structural   SmV2H24C44S4N4O13
_chemical_formula_sum   'Sm2 V4 H48 C88 S8 N8 O26'
_cell_volume   2336.49706112
_cell_formula_units_Z   2
loop_
 _symmetry_equiv_pos_site_id
 _symmetry_equiv_pos_as_xyz
  1  'x, y, z'
loop_
 _atom_site_type_symbol
 _atom_site_label
 _atom_site_symmetry_multiplicity
 _atom_site_fract_x
 _atom_site_fract_y
 _atom_site_fract_z
 _atom_site_occupancy
 _atom_site_pbe_bader_charge
 _atom_site_pbe_bader_spin_density
 _atom_site_pbe_cm5_charge
 _atom_site_pbe_ddec_charge
 _atom_site_pbe_ddec_spin_density
 _atom_site_pbe_ddec_sum_bond_order
 _atom_site_pbe_magmom
Sm  Sm0  1  0.24678547  0.49841902  0.49914129  1  2.306142  -0.0  1.583084  2.352019  -0.0  1.941162  0.0
Sm  Sm1  1  0.74675652  0.50161737  0.49844923  1  2.307401  -0.0  1.583541  2.352547  0.0  1.942166  0.0
V  V2  1  0.04012886  0.99350553  0.99732804  1  1.639301  1.087778  1.185733  1.091414  1.14825  3.207953  1.089
V  V3  1  0.36781649  0.95311428  0.08005440  1  1.414418  -0.222534  1.100853  0.998271  -0.242893  3.121391  -0.22
V  V4  1  0.86864277  0.04690353  0.08057026  1  1.416472  -0.219098  1.101389  0.997594  -0.23924  3.124345  -0.216
V  V5  1  0.54049287  0.00655473  0.99784365  1  1.636555  1.087677  1.185134  1.090933  1.148626  3.208006  1.089
H  H6  1  0.77801355  0.73893688  0.57730158  1  0.138375  1e-05  0.1114  0.118218  8e-06  1.027246  0.0
H  H7  1  0.77056501  0.25513472  0.41203862  1  0.106979  -7e-06  0.112857  0.122568  9e-06  1.014737  0.0
H  H8  1  0.79586655  0.42228297  0.73787507  1  0.141921  -1.3e-05  0.111758  0.1261  -9e-06  1.029709  0.0
H  H9  1  0.78188965  0.58038883  0.26358429  1  0.135079  -6e-06  0.112284  0.126125  -5e-06  1.02932  0.0
H  H10  1  0.71349338  0.26285893  0.57529738  1  0.148961  1e-06  0.111278  0.12487  1e-06  1.03396  0.0
H  H11  1  0.70517459  0.73560360  0.42317659  1  0.14633  1.3e-05  0.113613  0.127443  9e-06  1.034691  0.0
H  H12  1  0.73174956  0.58540619  0.73618514  1  0.115727  -4e-06  0.111804  0.119083  -2e-06  1.022692  0.0
H  H13  1  0.71479164  0.43121951  0.25635370  1  0.094037  1e-05  0.110417  0.115381  8e-06  1.036896  0.0
H  H14  1  0.20563662  0.26367586  0.42435024  1  0.152363  1.3e-05  0.113241  0.126928  9e-06  1.034745  0.0
H  H15  1  0.21303316  0.73478689  0.57719244  1  0.163851  1e-06  0.111713  0.1252  1e-06  1.034852  0.0
H  H16  1  0.21598399  0.56893483  0.25656970  1  0.08968  1.1e-05  0.110413  0.11555  9e-06  1.037794  0.0
H  H17  1  0.23069217  0.41506716  0.73697865  1  0.128127  -4e-06  0.1121  0.118987  -2e-06  1.022492  0.0
H  H18  1  0.27016760  0.74571089  0.41371727  1  0.134222  -7e-06  0.112318  0.121896  9e-06  1.015411  0.0
H  H19  1  0.27875409  0.26319672  0.57975509  1  0.133191  1e-05  0.11175  0.117793  8e-06  1.027685  0.0
H  H20  1  0.28074360  0.41966725  0.26404655  1  0.129985  -6e-06  0.111734  0.124703  -5e-06  1.030356  0.0
H  H21  1  0.29699294  0.57740145  0.73900574  1  0.147998  -1.3e-05  0.111275  0.125599  -9e-06  1.027836  0.0
H  H22  1  0.78759089  0.82682427  0.71266508  1  0.064515  3e-05  0.100121  0.100603  1.2e-05  1.025919  0.0
H  H23  1  0.77681107  0.16623521  0.27764496  1  0.068232  -0.000218  0.095962  0.088856  -0.000374  1.042249  0.0
H  H24  1  0.79531841  0.28672626  0.82518517  1  0.068936  -4e-06  0.100025  0.100563  -5.1e-05  1.019042  0.0
H  H25  1  0.78330818  0.71566932  0.17507940  1  0.071053  1.1e-05  0.098353  0.09986  1.2e-05  1.020156  0.0
H  H26  1  0.72351020  0.17491035  0.71096118  1  0.083606  3.9e-05  0.099942  0.100236  2e-05  1.023344  0.0
H  H27  1  0.71009347  0.82480546  0.28879293  1  0.078818  6.6e-05  0.099982  0.101786  0.000112  1.016462  0.0
H  H28  1  0.73145611  0.72069533  0.82352786  1  0.077319  -3.9e-05  0.098956  0.098918  -9.6e-05  1.030462  0.0
H  H29  1  0.71534966  0.29620885  0.16906942  1  0.05835  7.8e-05  0.098514  0.097401  4.3e-05  1.025158  0.0
H  H30  1  0.21173031  0.17449790  0.28998886  1  0.075857  6.5e-05  0.099698  0.101693  0.000111  1.017972  0.0
H  H31  1  0.22213997  0.82254144  0.71296744  1  0.063082  3.8e-05  0.101062  0.102196  1.8e-05  1.019658  0.0
H  H32  1  0.21718459  0.70392645  0.16938107  1  0.055346  7.6e-05  0.098289  0.096634  4e-05  1.027377  0.0
H  H33  1  0.22963533  0.27972172  0.82443077  1  0.08764  -3.7e-05  0.098574  0.097797  -9.5e-05  1.033199  0.0
H  H34  1  0.27525887  0.83454527  0.27927279  1  0.068519  -0.000198  0.095707  0.08901  -0.000347  1.042872  0.0
H  H35  1  0.28918846  0.17540958  0.71517335  1  0.103418  2.6e-05  0.100622  0.10131  6e-06  1.022523  0.0
H  H36  1  0.28152198  0.28438214  0.17558774  1  0.066925  1.4e-05  0.098083  0.099244  1.5e-05  1.021816  0.0
H  H37  1  0.29734313  0.71281242  0.82665273  1  0.050998  -6e-06  0.100168  0.100445  -5.3e-05  1.020047  0.0
H  H38  1  0.00335398  0.69473018  0.83343154  1  0.195484  0.000217  0.115083  0.153898  0.000128  1.046052  0.0
H  H39  1  0.99128661  0.29927194  0.16322980  1  0.21253  0.000117  0.11779  0.158379  0.000102  1.039378  0.0
H  H40  1  0.00221367  0.16145002  0.69668415  1  0.182542  0.000158  0.113424  0.156458  0.000139  1.046608  0.0
H  H41  1  0.99088866  0.83009674  0.30346097  1  0.200272  0.000549  0.118316  0.162822  0.000479  1.045  0.0
H  H42  1  0.49977386  0.30507093  0.83351185  1  0.196893  0.000217  0.115309  0.154342  0.000127  1.045661  0.0
H  H43  1  0.48934204  0.70080166  0.16345723  1  0.2148  0.000118  0.117905  0.158811  9.9e-05  1.038548  0.0
H  H44  1  0.50930181  0.83843339  0.69714261  1  0.187467  0.000158  0.113189  0.156154  0.000142  1.046557  0.0
H  H45  1  0.48839986  0.16992788  0.30372038  1  0.199849  0.000551  0.118497  0.163367  0.000475  1.044201  0.0
H  H46  1  0.99705653  0.65317123  0.00464294  1  0.095375  0.000333  0.115632  0.139216  0.000283  0.989067  0.0
H  H47  1  0.99954100  0.34076688  0.99292467  1  0.127515  0.000627  0.122642  0.145657  0.000465  0.975174  0.0
H  H48  1  0.00081714  0.99060985  0.65516718  1  0.120242  0.000279  0.118136  0.13597  0.0002  0.985024  0.0
H  H49  1  0.98781003  0.99997640  0.34491548  1  0.128924  6e-05  0.12316  0.146183  6e-05  0.973198  0.0
H  H50  1  0.49133753  0.34660558  0.00461091  1  0.096529  0.000332  0.115947  0.139467  0.000282  0.988973  0.0
H  H51  1  0.49924899  0.65924728  0.99323977  1  0.126811  0.000624  0.12301  0.145855  0.000465  0.975283  0.0
H  H52  1  0.50904697  0.00926854  0.65557364  1  0.127153  0.000277  0.118035  0.135686  0.000199  0.984893  0.0
H  H53  1  0.48493121  0.00006517  0.34508905  1  0.124824  5.7e-05  0.123064  0.145837  5.8e-05  0.973347  0.0
C  C54  1  0.99516418  0.73368203  0.56810882  1  -0.178337  -1e-05  -0.012093  -0.092778  -7e-06  3.961968  0.0
C  C55  1  0.98816276  0.26226483  0.42781695  1  -0.209111  -0.000284  -0.007954  -0.081711  -0.000258  3.936593  0.0
C  C56  1  0.01331856  0.42773482  0.73406400  1  -0.165884  -6e-05  -0.011751  -0.089954  -5.5e-05  3.952495  0.0
C  C57  1  0.99839928  0.56520285  0.26239556  1  -0.217623  2e-06  -0.011493  -0.089738  3e-06  3.960008  0.0
C  C58  1  0.49564432  0.26631161  0.56845982  1  -0.149642  -7e-06  -0.012008  -0.09394  -5e-06  3.963818  0.0
C  C59  1  0.48782722  0.73778090  0.42807149  1  -0.20708  -0.000289  -0.008483  -0.082451  -0.000262  3.937926  0.0
C  C60  1  0.51437457  0.57227614  0.73421566  1  -0.173661  -6.7e-05  -0.011318  -0.089269  -6.1e-05  3.953516  0.0
C  C61  1  0.49728278  0.43490200  0.26248845  1  -0.158421  -3e-06  -0.011747  -0.089917  -2e-06  3.959792  0.0
C  C62  1  0.87517500  0.75842203  0.60603194  1  0.033369  -2.6e-05  -0.077042  -0.070575  -1.7e-05  3.953139  0.0
C  C63  1  0.86725447  0.23610325  0.38649110  1  0.041531  0.000109  -0.073666  -0.061765  0.000137  3.932905  0.0
C  C64  1  0.89076678  0.39190486  0.75828994  1  -0.013627  4.8e-05  -0.075712  -0.065439  5.7e-05  3.936446  0.0
C  C65  1  0.87645939  0.60623396  0.24063079  1  0.006491  -0.000128  -0.077098  -0.066778  -0.000114  3.942652  0.0
C  C66  1  0.62081513  0.24207065  0.60499581  1  -0.071549  -7.9e-05  -0.076939  -0.065243  -6.5e-05  3.940896  0.0
C  C67  1  0.61146803  0.75932878  0.39296537  1  0.022224  0.000239  -0.075884  -0.065412  0.000216  3.93713  0.0
C  C68  1  0.63672279  0.61253798  0.75681806  1  0.017455  8.6e-05  -0.075595  -0.065628  9.5e-05  3.946521  0.0
C  C69  1  0.61980756  0.40033200  0.23708091  1  -0.021547  4e-06  -0.075915  -0.066649  8e-06  3.951514  0.0
C  C70  1  0.11213980  0.24029208  0.39350550  1  -0.046158  0.000239  -0.075056  -0.064151  0.000215  3.936423  0.0
C  C71  1  0.12016845  0.75655219  0.60592764  1  -0.099853  -7.3e-05  -0.077136  -0.065071  -6e-05  3.940883  0.0
C  C72  1  0.12111408  0.59979302  0.23720802  1  0.102998  -2e-06  -0.075798  -0.066458  5e-06  3.951573  0.0
C  C73  1  0.13552523  0.38771401  0.75724053  1  0.006307  8.5e-05  -0.07563  -0.06586  9.5e-05  3.947731  0.0
C  C74  1  0.36663219  0.76438555  0.38753713  1  0.011105  0.000112  -0.072786  -0.060491  0.000138  3.930211  0.0
C  C75  1  0.37599353  0.24282581  0.60762008  1  0.032559  -2.3e-05  -0.076526  -0.068322  -1.4e-05  3.953353  0.0
C  C76  1  0.37515889  0.39387006  0.24091654  1  0.000203  -0.000122  -0.075981  -0.064282  -0.000109  3.940183  0.0
C  C77  1  0.39207752  0.60786877  0.75907514  1  -0.068271  4.2e-05  -0.075761  -0.06474  5.2e-05  3.936827  0.0
C  C78  1  0.88090407  0.80705023  0.68287483  1  -0.024682  3.8e-05  -0.084429  -0.12059  1e-06  3.950883  0.0
C  C79  1  0.87116667  0.18646634  0.31021618  1  -0.01141  -0.000346  -0.087166  -0.129029  -0.00046  3.962987  0.0
C  C80  1  0.89094483  0.31496487  0.80646455  1  -0.0841  -0.00035  -0.085812  -0.124496  -0.000378  3.952834  0.0
C  C81  1  0.87794055  0.68291813  0.19225501  1  0.027256  -9.5e-05  -0.086412  -0.122645  -0.000125  3.953803  0.0
C  C82  1  0.62599725  0.19365690  0.68193711  1  -0.063073  -5.4e-05  -0.083726  -0.121257  -9.5e-05  3.94998  0.0
C  C83  1  0.61368082  0.80847453  0.31672146  1  -0.092519  -0.000142  -0.085147  -0.116391  -5.1e-05  3.932342  0.0
C  C84  1  0.63614844  0.68926849  0.80531545  1  -0.019557  -0.00027  -0.085929  -0.122894  -0.000293  3.949093  0.0
C  C85  1  0.61976095  0.32373272  0.18859628  1  0.011439  0.000101  -0.085793  -0.121135  9e-05  3.953294  0.0
C  C86  1  0.11503093  0.19117136  0.31726114  1  -0.025467  -0.000143  -0.085106  -0.116273  -5.2e-05  3.932104  0.0
C  C87  1  0.12477988  0.80484182  0.68293847  1  -0.025975  -6.3e-05  -0.084819  -0.123466  -0.000104  3.950325  0.0
C  C88  1  0.12145245  0.67640466  0.18876805  1  -0.07202  0.000116  -0.086166  -0.121055  0.000102  3.952556  0.0
C  C89  1  0.13448887  0.31096166  0.80568130  1  -0.064612  -0.000276  -0.086816  -0.122323  -0.000296  3.95123  0.0
C  C90  1  0.36986273  0.81401752  0.31122868  1  -0.00998  -0.000342  -0.08673  -0.128945  -0.000452  3.960243  0.0
C  C91  1  0.38226544  0.19422373  0.68445647  1  -0.107747  3.2e-05  -0.085176  -0.121156  -5e-06  3.950245  0.0
C  C92  1  0.37627962  0.31717289  0.19255187  1  0.025932  -9.9e-05  -0.086587  -0.123259  -0.00013  3.953949  0.0
C  C93  1  0.39272930  0.68473233  0.80739925  1  0.019407  -0.000346  -0.086519  -0.127111  -0.000376  3.954712  0.0
C  C94  1  0.00540825  0.83007442  0.72203163  1  -0.0435  0.000375  -0.00612  0.067091  0.000255  4.027053  0.0
C  C95  1  0.99473086  0.16382782  0.27523043  1  -0.026011  0.000205  -0.009875  0.082162  0.000176  4.021565  0.0
C  C96  1  0.01263544  0.27381161  0.83030379  1  0.007976  0.000618  -0.006274  0.070196  0.000515  4.027134  0.001
C  C97  1  0.00013514  0.71840907  0.16619375  1  -0.064582  0.000459  -0.007864  0.072112  0.000442  4.034573  0.0
C  C98  1  0.50695574  0.16980441  0.72231694  1  0.00719  0.000377  -0.00597  0.065756  0.000259  4.027095  0.0
C  C99  1  0.49309178  0.83625544  0.27546883  1  -0.025855  0.000207  -0.009766  0.083688  0.000182  4.019954  0.0
C  C100  1  0.51459333  0.72613694  0.83066514  1  -0.054281  0.000613  -0.006565  0.072159  0.000518  4.023989  0.001
C  C101  1  0.49824981  0.28168683  0.16626824  1  -0.076107  0.000464  -0.007727  0.072247  0.000442  4.034375  0.0
C  C102  1  0.01057360  0.88004122  0.80563019  1  -0.003461  7.9e-05  0.028196  -0.024111  0.000397  3.922449  0.0
C  C103  1  0.00469165  0.11258025  0.19260409  1  -0.037178  -0.000915  -0.038705  -0.125099  -0.000814  4.036508  0.0
C  C104  1  0.01399558  0.19093172  0.88140492  1  0.119929  -0.006442  0.009987  -0.069796  -0.005981  3.935666  -0.004
C  C105  1  0.00238328  0.80186569  0.11674105  1  0.058813  1.5e-05  0.006644  -0.077141  -0.000122  3.959235  0.0
C  C106  1  0.51247762  0.11987192  0.80593107  1  -0.044991  0.000113  0.027911  -0.02331  0.000396  3.921751  0.0
C  C107  1  0.50284906  0.88751156  0.19283165  1  -0.043792  -0.000892  -0.038577  -0.125291  -0.000781  4.036275  0.0
C  C108  1  0.51612327  0.80900999  0.88180620  1  0.11748  -0.006241  0.009833  -0.070884  -0.005799  3.934587  -0.004
C  C109  1  0.50022521  0.19815847  0.11690899  1  0.057565  -0.000148  0.006559  -0.076942  -0.000261  3.958833  0.0
C  C110  1  0.00939229  0.83200942  0.88363653  1  0.400994  0.010805  0.082543  0.164034  0.010299  4.044565  0.009
C  C111  1  0.00896200  0.16158152  0.11417069  1  0.20138  0.006693  0.025218  0.110082  0.006735  4.060255  0.007
C  C112  1  0.01435923  0.11154653  0.83447332  1  0.366001  0.006085  0.104669  0.217029  0.005304  3.991598  0.006
C  C113  1  0.00054326  0.87797137  0.16529959  1  0.3008  -0.001121  0.090154  0.198783  -0.000412  4.020895  0.002
C  C114  1  0.50855975  0.16787221  0.88384721  1  0.431704  0.010662  0.082241  0.163444  0.010199  4.044526  0.009
C  C115  1  0.50760848  0.83849609  0.11443230  1  0.209084  0.006776  0.025292  0.109578  0.006836  4.061624  0.007
C  C116  1  0.51831665  0.88839846  0.83492941  1  0.356718  0.005786  0.10488  0.218408  0.005009  3.990244  0.005
C  C117  1  0.49866291  0.12210590  0.16555168  1  0.30018  -0.000845  0.090676  0.200278  -0.000176  4.020237  0.002
C  C118  1  0.00446374  0.73901812  0.88883930  1  -0.170914  -0.007403  -0.080069  -0.137553  -0.007222  3.89165  -0.005
C  C119  1  0.99916118  0.25523119  0.10797068  1  -0.092107  0.001446  -0.084278  -0.136931  0.001062  3.898137  0.001
C  C120  1  0.00727695  0.10627025  0.74106936  1  -0.044214  0.003146  -0.095098  -0.184593  0.002673  3.909558  0.002
C  C121  1  0.99442597  0.88507410  0.25881717  1  0.047677  0.0074  -0.084086  -0.159165  0.006511  3.894706  0.005
C  C122  1  0.50125690  0.26079824  0.88893167  1  -0.166081  -0.007272  -0.079794  -0.137456  -0.007104  3.891035  -0.005
C  C123  1  0.49771719  0.74482676  0.10822505  1  -0.102592  0.001052  -0.084323  -0.1372  0.000701  3.896907  0.0
C  C124  1  0.51366049  0.89363153  0.74151779  1  0.022785  0.003349  -0.094575  -0.184372  0.002869  3.908939  0.002
C  C125  1  0.49203045  0.11497469  0.25903808  1  -0.041848  0.007285  -0.084093  -0.159365  0.006442  3.894232  0.005
C  C126  1  0.00203997  0.71760856  0.97602466  1  0.057825  0.007533  -0.093971  -0.173538  0.006705  3.923384  0.005
C  C127  1  0.00409056  0.27620650  0.02156102  1  -0.04  0.003492  -0.080565  -0.147529  0.003064  3.910951  0.002
C  C128  1  0.00620916  0.01937820  0.71992179  1  -0.1087  -0.001803  -0.076438  -0.124477  -0.00201  3.907878  -0.001
C  C129  1  0.99277304  0.97133894  0.28033577  1  -0.146495  -0.008192  -0.082306  -0.125585  -0.007797  3.906982  -0.005
C  C130  1  0.49791105  0.28221332  0.97607707  1  0.061513  0.007352  -0.094765  -0.174103  0.006541  3.923954  0.004
C  C131  1  0.50350944  0.72382416  0.02187208  1  -0.031725  0.003636  -0.080925  -0.147515  0.003193  3.91074  0.002
C  C132  1  0.51294877  0.98050778  0.72034184  1  -0.170358  -0.001958  -0.07658  -0.124418  -0.002166  3.907218  -0.001
C  C133  1  0.49028034  0.02870853  0.28052198  1  -0.054628  -0.007943  -0.082548  -0.125596  -0.007594  3.907331  -0.005
C  C134  1  0.01255678  0.97100474  0.79991880  1  0.438169  0.009694  0.083103  0.166593  0.009223  4.046254  0.009
C  C135  1  0.00281009  0.02071650  0.20071683  1  0.180682  0.007284  0.021732  0.102143  0.007131  4.080891  0.007
C  C136  1  0.01250333  0.19729181  0.97155980  1  0.268898  0.008239  0.095233  0.216962  0.008199  3.998316  0.008
C  C137  1  0.00552354  0.79714335  0.02452022  1  0.315336  -0.001355  0.10105  0.208987  -0.00174  4.011755  0.001
C  C138  1  0.51696400  0.02893686  0.80032315  1  0.430849  0.009733  0.083259  0.166787  0.009264  4.045924  0.009
C  C139  1  0.50087795  0.97936130  0.20093875  1  0.175662  0.007261  0.022657  0.10314  0.007128  4.08041  0.007
C  C140  1  0.51277988  0.80271233  0.97190124  1  0.26698  0.00781  0.095215  0.216753  0.0078  3.998753  0.008
C  C141  1  0.50311185  0.20276666  0.02467380  1  0.314665  -0.001152  0.101213  0.209436  -0.001532  4.010712  0.001
S  S142  1  0.98823241  0.67915400  0.46557147  1  3.21375  8e-06  0.548857  1.26229  1.1e-05  6.110885  0.0
S  S143  1  0.98683682  0.31760032  0.53042793  1  3.207878  3e-06  0.546401  1.252862  3e-06  6.118074  0.0
S  S144  1  0.01501323  0.53036244  0.67995597  1  3.189814  3e-06  0.54845  1.261046  -1e-06  6.111799  0.0
S  S145  1  0.99759308  0.46359156  0.31766226  1  3.182952  3e-06  0.545374  1.256312  3e-06  6.12314  0.0
S  S146  1  0.48770567  0.32080253  0.46589927  1  3.193272  8e-06  0.549474  1.263538  1.1e-05  6.110263  0.0
S  S147  1  0.48746612  0.68243543  0.53067707  1  3.208129  3e-06  0.546888  1.253559  3e-06  6.117273  0.0
S  S148  1  0.51572030  0.46963426  0.68012890  1  3.181327  3e-06  0.548508  1.260348  -1e-06  6.110916  0.0
S  S149  1  0.49704084  0.53651254  0.31781066  1  3.189623  3e-06  0.545545  1.256401  2e-06  6.122705  0.0
N  N150  1  0.01074064  0.86738270  0.96733185  1  -1.225194  0.00913  -0.451729  -0.443188  0.000174  3.490903  -0.017
N  N151  1  0.01785062  0.12558737  0.02935047  1  -1.221375  0.01704  -0.539648  -0.502115  0.010698  3.574235  -0.009
N  N152  1  0.01807893  0.02830229  0.87055100  1  -1.203945  0.007449  -0.446287  -0.442686  -0.001413  3.463758  -0.019
N  N153  1  0.00738385  0.96212545  0.12935069  1  -1.229719  0.019954  -0.560741  -0.509998  0.013743  3.661989  -0.005
N  N154  1  0.51013956  0.13253943  0.96757496  1  -1.22372  0.009111  -0.451108  -0.443243  0.000185  3.489068  -0.017
N  N155  1  0.51754977  0.87445407  0.02966828  1  -1.21979  0.01688  -0.540097  -0.502487  0.010565  3.576646  -0.01
N  N156  1  0.52116962  0.97167118  0.87098338  1  -1.203115  0.007369  -0.446734  -0.44366  -0.001421  3.464369  -0.019
N  N157  1  0.50587562  0.03797160  0.12962427  1  -1.221402  0.019825  -0.561294  -0.510753  0.013653  3.663576  -0.005
O  O158  1  0.09539782  0.61265267  0.46636054  1  -1.349538  1.2e-05  -0.424343  -0.750715  1e-05  2.42559  0.0
O  O159  1  0.09943869  0.38054645  0.53236118  1  -1.3453  -1e-05  -0.41352  -0.743349  -1e-05  2.405991  0.0
O  O160  1  0.14602197  0.53596503  0.63760192  1  -1.35114  -8e-06  -0.397677  -0.714442  -9e-06  2.393214  0.0
O  O161  1  0.13132854  0.45553488  0.36199690  1  -1.354514  3e-06  -0.396176  -0.711477  3e-06  2.39345  0.0
O  O162  1  0.35339314  0.36172609  0.45910770  1  -1.3542  4e-06  -0.397179  -0.711411  2e-06  2.398186  0.0
O  O163  1  0.35629764  0.63776483  0.53444029  1  -1.350699  -2e-06  -0.394252  -0.709692  -3e-06  2.394858  0.0
O  O164  1  0.40208166  0.46812681  0.61521160  1  -1.352218  2e-06  -0.424737  -0.752197  1e-06  2.417632  0.0
O  O165  1  0.38948630  0.53311947  0.38199999  1  -1.351155  -3e-06  -0.416491  -0.746777  -3e-06  2.413454  0.0
O  O166  1  0.85562574  0.36212075  0.53357271  1  -1.349388  -2e-06  -0.394677  -0.70998  -3e-06  2.395749  0.0
O  O167  1  0.85380197  0.63829292  0.45808131  1  -1.352288  3e-06  -0.396868  -0.711114  1e-06  2.397466  0.0
O  O168  1  0.88906745  0.46685270  0.38116243  1  -1.348001  -2e-06  -0.416114  -0.746235  -3e-06  2.412896  0.0
O  O169  1  0.90266944  0.53146362  0.61408934  1  -1.362536  3e-06  -0.425169  -0.753247  2e-06  2.422379  0.0
O  O170  1  0.60001492  0.61959187  0.53207389  1  -1.343441  -1.1e-05  -0.413661  -0.744212  -1e-05  2.406878  0.0
O  O171  1  0.59507100  0.38726608  0.46597655  1  -1.349397  1.1e-05  -0.424157  -0.750393  9e-06  2.424129  0.0
O  O172  1  0.63132738  0.54472909  0.36139838  1  -1.353271  3e-06  -0.395854  -0.711259  2e-06  2.392726  0.0
O  O173  1  0.64588229  0.46442223  0.63673923  1  -1.351539  -8e-06  -0.398784  -0.71458  -9e-06  2.395693  0.0
O  O174  1  0.00895703  0.74614439  0.40042573  1  -1.33526  8.3e-05  -0.329062  -0.575949  8.8e-05  2.170328  0.0
O  O175  1  0.00421058  0.24974126  0.59580913  1  -1.330409  -1e-05  -0.328256  -0.571428  -1.4e-05  2.155556  0.0
O  O176  1  0.99859087  0.59502630  0.74785384  1  -1.318093  4e-06  -0.327208  -0.571707  2.2e-05  2.162573  0.0
O  O177  1  0.97301862  0.39823911  0.25036719  1  -1.318752  6e-06  -0.330458  -0.575022  1.6e-05  2.158459  0.0
O  O178  1  0.50729559  0.25371569  0.40070596  1  -1.33316  8.5e-05  -0.329642  -0.576861  8.9e-05  2.169839  0.0
O  O179  1  0.50552677  0.75031637  0.59598610  1  -1.3325  -1e-05  -0.328485  -0.571552  -1.4e-05  2.156356  0.0
O  O180  1  0.50123484  0.40493627  0.74823250  1  -1.318674  3e-06  -0.327048  -0.571582  2e-05  2.161669  0.0
O  O181  1  0.47149295  0.60184096  0.25065651  1  -1.321907  4e-06  -0.330158  -0.575058  1.6e-05  2.159795  0.0
O  O182  1  0.22454184  0.99272483  0.03134542  1  -1.000519  0.032489  -0.679514  -0.739385  0.026843  2.182284  0.014
O  O183  1  0.72456596  0.00726942  0.03294413  1  -1.001343  0.032191  -0.679955  -0.73971  0.02655  2.183559  0.014
