# generated using pymatgen
data_ZnH6(C3N2)2
_symmetry_space_group_name_H-M   'P 1'
_cell_length_a   14.34719820
_cell_length_b   14.72884117
_cell_length_c   17.60348571
_cell_angle_alpha   100.53801584
_cell_angle_beta   89.99999973
_cell_angle_gamma   90.00024853
_symmetry_Int_Tables_number   1
_chemical_formula_structural   ZnH6(C3N2)2
_chemical_formula_sum   'Zn16 H96 C96 N64'
_cell_volume   3657.18530761
_cell_formula_units_Z   16
loop_
 _symmetry_equiv_pos_site_id
 _symmetry_equiv_pos_as_xyz
  1  'x, y, z'
loop_
 _atom_site_type_symbol
 _atom_site_label
 _atom_site_symmetry_multiplicity
 _atom_site_fract_x
 _atom_site_fract_y
 _atom_site_fract_z
 _atom_site_occupancy
 _atom_site_pbe_bader_charge
 _atom_site_pbe_bader_spin_density
 _atom_site_pbe_cm5_charge
 _atom_site_pbe_ddec_charge
 _atom_site_pbe_ddec_spin_density
 _atom_site_pbe_ddec_sum_bond_order
 _atom_site_pbe_magmom
Zn  Zn0  1  0.02709327  0.39408916  0.20349839  1  1.18547  0  0.715442  0.631225  0  2.521331  0
Zn  Zn1  1  0.52709897  0.10592086  0.79650719  1  1.185502  0  0.715499  0.631235  0  2.521321  0
Zn  Zn2  1  0.97290210  0.60590717  0.79650046  1  1.1855  0  0.715455  0.631217  0  2.521238  0
Zn  Zn3  1  0.47290199  0.89408652  0.20349281  1  1.18549  0  0.715468  0.631209  0  2.521327  0
Zn  Zn4  1  0.73756696  0.60707554  0.06901165  1  1.181911  0  0.717363  0.625515  0  2.543931  0
Zn  Zn5  1  0.23756474  0.89292192  0.93099073  1  1.181925  0  0.717407  0.625547  0  2.544055  0
Zn  Zn6  1  0.26243120  0.39292355  0.93098763  1  1.181969  0  0.717371  0.625521  0  2.54393  0
Zn  Zn7  1  0.76243621  0.10706817  0.06901113  1  1.182025  0  0.717397  0.625515  0  2.544056  0
Zn  Zn8  1  0.96502587  0.86050527  0.29205685  1  1.18654  0  0.714124  0.623419  0  2.564429  0
Zn  Zn9  1  0.46503228  0.63949803  0.70794304  1  1.186375  0  0.714119  0.623424  0  2.564279  0
Zn  Zn10  1  0.03497159  0.13949936  0.70793818  1  1.186506  0  0.714132  0.623368  0  2.564297  0
Zn  Zn11  1  0.53497633  0.36050658  0.29205654  1  1.186511  0  0.714112  0.623408  0  2.564308  0
Zn  Zn12  1  0.20128782  0.19750720  0.41279356  1  1.187794  0  0.717211  0.629648  0  2.55673  0
Zn  Zn13  1  0.70129648  0.30249463  0.58720449  1  1.187894  0  0.717182  0.629646  0  2.556895  0
Zn  Zn14  1  0.79870337  0.80248776  0.58720053  1  1.187902  0  0.717168  0.62973  0  2.556816  0
Zn  Zn15  1  0.29870726  0.69750240  0.41279220  1  1.187938  0  0.717181  0.629599  0  2.556887  0
H  H16  1  0.19042254  0.31092966  0.28141962  1  0.115477  0  0.125561  0.080962  0  1.007845  0
H  H17  1  0.69043209  0.18907486  0.71858454  1  0.115248  0  0.12553  0.080936  0  1.00786  0
H  H18  1  0.80957284  0.68906460  0.71857835  1  0.115569  0  0.125561  0.080996  0  1.00782  0
H  H19  1  0.30957514  0.81092422  0.28141645  1  0.115332  0  0.125565  0.080983  0  1.007797  0
H  H20  1  0.95212626  0.44458707  0.38797212  1  0.092508  0  0.109423  0.098207  0  1.036232  0
H  H21  1  0.45213439  0.05542067  0.61202856  1  0.092252  0  0.109457  0.098152  0  1.0363  0
H  H22  1  0.04786981  0.55541410  0.61202351  1  0.092096  0  0.109413  0.098124  0  1.036328  0
H  H23  1  0.54786795  0.94458185  0.38797580  1  0.092189  0  0.109419  0.098107  0  1.036294  0
H  H24  1  0.04164167  0.35496344  0.49149861  1  0.074999  0  0.109285  0.099042  0  1.029935  0
H  H25  1  0.54164893  0.14503837  0.50850228  1  0.075455  0  0.109304  0.099137  0  1.02989  0
H  H26  1  0.95835161  0.64503635  0.50849851  1  0.075376  0  0.109277  0.099023  0  1.029885  0
H  H27  1  0.45835341  0.85495864  0.49149951  1  0.074984  0  0.109305  0.099114  0  1.029889  0
H  H28  1  0.92053064  0.48818485  0.07868446  1  0.088559  0  0.124292  0.080786  0  1.003093  0
H  H29  1  0.42053370  0.01181654  0.92131579  1  0.088505  0  0.124257  0.080721  0  1.003127  0
H  H30  1  0.07946613  0.51182115  0.92131419  1  0.088423  0  0.124282  0.080782  0  1.00316  0
H  H31  1  0.57946725  0.98818187  0.07868054  1  0.088423  0  0.12425  0.080699  0  1.003116  0
H  H32  1  0.83861005  0.46026461  0.30306552  1  0.090709  0  0.105378  0.090992  0  1.061044  0
H  H33  1  0.33861184  0.03973849  0.69693614  1  0.090757  0  0.105366  0.090994  0  1.061108  0
H  H34  1  0.16138741  0.53974070  0.69693246  1  0.090663  0  0.105394  0.090986  0  1.060991  0
H  H35  1  0.66138841  0.96026337  0.30306186  1  0.090632  0  0.105309  0.090894  0  1.061062  0
H  H36  1  0.69490273  0.54124363  0.23351669  1  0.100273  0  0.112823  0.104956  0  1.016057  0
H  H37  1  0.19490290  0.95875918  0.76648199  1  0.100365  0  0.11279  0.104923  0  1.01599  0
H  H38  1  0.30509334  0.45876305  0.76648434  1  0.100327  0  0.11282  0.105055  0  1.016063  0
H  H39  1  0.80509457  0.04123646  0.23351449  1  0.10035  0  0.112827  0.105084  0  1.016039  0
H  H40  1  0.09212403  0.36513327  0.02988468  1  0.118513  0  0.123636  0.083232  0  1.016593  0
H  H41  1  0.59212427  0.13487357  0.97012211  1  0.118621  0  0.12361  0.083219  0  1.016617  0
H  H42  1  0.90787065  0.63486514  0.97011165  1  0.118604  0  0.123667  0.083296  0  1.016642  0
H  H43  1  0.40787111  0.86513034  0.02988247  1  0.118719  0  0.123679  0.083322  0  1.016633  0
H  H44  1  0.34156956  0.50572045  0.10281100  1  0.083854  0  0.105532  0.095191  0  1.046737  0
H  H45  1  0.84156931  0.99427953  0.89719461  1  0.08389  0  0.105516  0.09515  0  1.0468  0
H  H46  1  0.65842652  0.49428002  0.89718792  1  0.083729  0  0.105567  0.095257  0  1.046639  0
H  H47  1  0.15842607  0.00571886  0.10280740  1  0.083776  0  0.105559  0.095232  0  1.046666  0
H  H48  1  0.22814811  0.50572172  0.22951962  1  0.106858  0  0.107698  0.101852  0  1.042428  0
H  H49  1  0.72814786  0.99428465  0.77048926  1  0.106973  0  0.107779  0.101871  0  1.042484  0
H  H50  1  0.77184936  0.49427806  0.77047693  1  0.106727  0  0.10767  0.101806  0  1.042432  0
H  H51  1  0.27185030  0.00571995  0.22951428  1  0.106882  0  0.107757  0.101843  0  1.04249  0
H  H52  1  0.84324262  0.28178338  0.16417334  1  0.12654  0  0.123112  0.084821  0  1.034067  0
H  H53  1  0.34324729  0.21821422  0.83582576  1  0.126602  0  0.123118  0.084853  0  1.034115  0
H  H54  1  0.15676112  0.71821363  0.83582846  1  0.12648  0  0.123073  0.084811  0  1.034107  0
H  H55  1  0.65675854  0.78178901  0.16417303  1  0.126489  0  0.123088  0.084767  0  1.034107  0
H  H56  1  0.99310413  0.05762478  0.03895498  1  0.058625  0  0.103439  0.087799  0  1.055999  0
H  H57  1  0.49310492  0.44237418  0.96104263  1  0.05865  0  0.103437  0.087791  0  1.055978  0
H  H58  1  0.00689682  0.94237016  0.96104423  1  0.058716  0  0.103466  0.087814  0  1.055949  0
H  H59  1  0.50689673  0.55762698  0.03895868  1  0.058637  0  0.103461  0.087808  0  1.055973  0
H  H60  1  0.11669430  0.19551158  0.10183268  1  0.063482  0  0.111608  0.098786  0  1.019875  0
H  H61  1  0.61670227  0.30448848  0.89816851  1  0.063619  0  0.111566  0.098736  0  1.01982  0
H  H62  1  0.88330805  0.80448474  0.89816787  1  0.063819  0  0.111607  0.098782  0  1.01987  0
H  H63  1  0.38330565  0.69551406  0.10183188  1  0.063778  0  0.111597  0.098772  0  1.019835  0
H  H64  1  0.85720234  0.68727024  0.21560924  1  0.083085  0  0.119073  0.076406  0  1.041537  0
H  H65  1  0.35719977  0.81272912  0.78439344  1  0.083172  0  0.119079  0.076443  0  1.041517  0
H  H66  1  0.14280070  0.31272331  0.78439146  1  0.083519  0  0.119092  0.07645  0  1.041489  0
H  H67  1  0.64279909  0.18727480  0.21560772  1  0.083163  0  0.119097  0.076414  0  1.041483  0
H  H68  1  0.91200382  0.92610924  0.12287410  1  0.087085  0  0.105467  0.092333  0  1.045834  0
H  H69  1  0.41200227  0.57389312  0.87712848  1  0.087154  0  0.105479  0.092354  0  1.045849  0
H  H70  1  0.08799783  0.07388707  0.87712760  1  0.087111  0  0.10548  0.092445  0  1.045708  0
H  H71  1  0.58800635  0.42610597  0.12286796  1  0.087403  0  0.105467  0.092298  0  1.045878  0
H  H72  1  0.80412395  0.80591092  0.02007161  1  0.108826  0  0.110235  0.100325  0  1.018813  0
H  H73  1  0.30412503  0.69408889  0.97993455  1  0.108742  0  0.110248  0.10032  0  1.018785  0
H  H74  1  0.19587700  0.19408539  0.97993292  1  0.108817  0  0.110227  0.100348  0  1.018704  0
H  H75  1  0.69588777  0.30590674  0.02006476  1  0.108692  0  0.11016  0.100319  0  1.018663  0
H  H76  1  0.09476219  0.99950766  0.41400112  1  0.108625  0  0.122179  0.080682  0  1.017211  0
H  H77  1  0.59476741  0.50049539  0.58600213  1  0.108154  0  0.122153  0.080757  0  1.017056  0
H  H78  1  0.90523319  0.00049629  0.58599153  1  0.108341  0  0.122107  0.080638  0  1.017164  0
H  H79  1  0.40523424  0.49950782  0.41400233  1  0.108675  0  0.122169  0.080682  0  1.017178  0
H  H80  1  0.11656458  0.16297055  0.24190020  1  0.081335  0  0.10432  0.088319  0  1.063866  0
H  H81  1  0.61656782  0.33703296  0.75810266  1  0.081262  0  0.10431  0.088294  0  1.064001  0
H  H82  1  0.88342800  0.83703891  0.75809785  1  0.081481  0  0.104334  0.088397  0  1.063815  0
H  H83  1  0.38343174  0.66296889  0.24189705  1  0.081287  0  0.104308  0.088334  0  1.063847  0
H  H84  1  0.00726834  0.01171401  0.18726473  1  0.05075  0  0.102985  0.085297  0  1.073512  0
H  H85  1  0.50727225  0.48828417  0.81274071  1  0.050993  0  0.102967  0.085302  0  1.07345  0
H  H86  1  0.99272494  0.98828717  0.81272920  1  0.050794  0  0.10295  0.085207  0  1.07354  0
H  H87  1  0.49273079  0.51171627  0.18726673  1  0.050788  0  0.102988  0.085255  0  1.073464  0
H  H88  1  0.08709769  0.24442985  0.57294449  1  0.069418  0  0.118798  0.074726  0  1.039669  0
H  H89  1  0.58710683  0.25557561  0.42705583  1  0.073738  0  0.118806  0.074721  0  1.039603  0
H  H90  1  0.91289490  0.75557338  0.42705657  1  0.069551  0  0.118784  0.074691  0  1.039654  0
H  H91  1  0.41289900  0.74442763  0.57294182  1  0.069477  0  0.11879  0.074709  0  1.03971  0
H  H92  1  0.20202760  0.00070897  0.62542719  1  0.089228  0  0.112589  0.106117  0  1.014287  0
H  H93  1  0.70203295  0.49929423  0.37457164  1  0.089381  0  0.112632  0.106104  0  1.01422  0
H  H94  1  0.79796847  0.99929771  0.37457440  1  0.0892  0  0.112629  0.106089  0  1.014222  0
H  H95  1  0.29797009  0.50070969  0.62542725  1  0.089394  0  0.112598  0.106096  0  1.014308  0
H  H96  1  0.28954861  0.04089382  0.49490832  1  0.050354  0  0.109156  0.103058  0  1.021379  0
H  H97  1  0.78955309  0.45911251  0.50509668  1  0.050238  0  0.109139  0.103072  0  1.021402  0
H  H98  1  0.71044886  0.95911009  0.50509682  1  0.050224  0  0.109166  0.103057  0  1.021393  0
H  H99  1  0.21044926  0.54089347  0.49490708  1  0.050331  0  0.109185  0.10309  0  1.02129  0
H  H100  1  0.33591304  0.34501451  0.36137682  1  0.124695  0  0.118507  0.067767  0  1.05081  0
H  H101  1  0.83591129  0.15498789  0.63862246  1  0.124693  0  0.118481  0.067723  0  1.050811  0
H  H102  1  0.66408582  0.65498112  0.63862249  1  0.124462  0  0.118491  0.067748  0  1.050724  0
H  H103  1  0.16408479  0.84500498  0.36137642  1  0.124924  0  0.118539  0.067739  0  1.050908  0
H  H104  1  0.52990166  0.13186727  0.28921321  1  0.085932  0  0.10359  0.092026  0  1.05971  0
H  H105  1  0.02989655  0.36813863  0.71078718  1  0.085901  0  0.103618  0.091992  0  1.059812  0
H  H106  1  0.47010277  0.86813388  0.71078923  1  0.085979  0  0.103611  0.092016  0  1.059826  0
H  H107  1  0.97009186  0.63186323  0.28920855  1  0.085759  0  0.103642  0.092097  0  1.059719  0
H  H108  1  0.37821056  0.06050287  0.35463115  1  0.078196  0  0.104865  0.096087  0  1.052613  0
H  H109  1  0.87820171  0.43949970  0.64537214  1  0.078213  0  0.10484  0.096014  0  1.052609  0
H  H110  1  0.62179318  0.93949206  0.64537146  1  0.078365  0  0.104826  0.095998  0  1.052758  0
H  H111  1  0.12178460  0.56049386  0.35462742  1  0.078148  0  0.104896  0.096081  0  1.05249  0
C  C112  1  0.13777120  0.33505728  0.32477767  1  0.928568  0  0.112824  0.126762  0  4.013344  0
C  C113  1  0.63777646  0.16494978  0.67522404  1  0.928548  0  0.11286  0.126845  0  4.013247  0
C  C114  1  0.86221721  0.66493215  0.67521613  1  0.928637  0  0.112819  0.126851  0  4.01329  0
C  C115  1  0.36222937  0.83504654  0.32477538  1  0.928666  0  0.112796  0.126759  0  4.01327  0
C  C116  1  0.01514810  0.40334541  0.38059599  1  0.343902  0  -0.019621  -0.058012  0  4.030628  0
C  C117  1  0.51515445  0.09666249  0.61940756  1  0.344524  0  -0.019583  -0.057806  0  4.030652  0
C  C118  1  0.98484518  0.59665024  0.61939992  1  0.344454  0  -0.019592  -0.057878  0  4.030542  0
C  C119  1  0.48484929  0.90333589  0.38059616  1  0.344472  0  -0.019541  -0.057728  0  4.030589  0
C  C120  1  0.06021673  0.35883396  0.43243177  1  0.34205  0  -0.021216  -0.056331  0  4.029388  0
C  C121  1  0.56022468  0.14117069  0.56756956  1  0.341271  0  -0.021323  -0.056627  0  4.029541  0
C  C122  1  0.93977516  0.64116237  0.56756481  1  0.341669  0  -0.021222  -0.05627  0  4.029192  0
C  C123  1  0.43978046  0.85882839  0.43243199  1  0.341888  0  -0.021266  -0.056521  0  4.029413  0
C  C124  1  0.87862282  0.49163221  0.13051899  1  0.966072  0  0.11528  0.131642  0  4.008096  0
C  C125  1  0.37862237  0.00837590  0.86948515  1  0.966332  0  0.115267  0.131691  0  4.008243  0
C  C126  1  0.12137953  0.50838414  0.86948525  1  0.966631  0  0.115239  0.13155  0  4.0082  0
C  C127  1  0.62137997  0.99162043  0.13051313  1  0.966442  0  0.115271  0.131755  0  4.008129  0
C  C128  1  0.83531120  0.47940950  0.24654711  1  0.310519  0  -0.024379  -0.068414  0  4.036951  0
C  C129  1  0.33531150  0.02059566  0.75345430  1  0.310568  0  -0.02436  -0.068422  0  4.036793  0
C  C130  1  0.16469254  0.52060202  0.75345410  1  0.310432  0  -0.024407  -0.068376  0  4.03671  0
C  C131  1  0.66469502  0.97940205  0.24654249  1  0.310669  0  -0.024305  -0.068263  0  4.036945  0
C  C132  1  0.76338574  0.51856527  0.21172355  1  0.345631  0  -0.019334  -0.059098  0  4.043471  0
C  C133  1  0.26338671  0.98144059  0.78828127  1  0.345655  0  -0.019426  -0.059159  0  4.043532  0
C  C134  1  0.23661382  0.48144901  0.78828036  1  0.345372  0  -0.019346  -0.05928  0  4.043804  0
C  C135  1  0.73661703  0.01855089  0.21171910  1  0.345552  0  -0.019406  -0.05936  0  4.043994  0
C  C136  1  0.14390496  0.40489103  0.06689082  1  0.931063  0  0.107506  0.12099  0  4.010584  0
C  C137  1  0.64390781  0.09511189  0.93311536  1  0.931087  0  0.107437  0.120943  0  4.010605  0
C  C138  1  0.85609112  0.59511012  0.93310992  1  0.931019  0  0.107446  0.120893  0  4.010811  0
C  C139  1  0.35608687  0.90488096  0.06688693  1  0.930939  0  0.107395  0.120875  0  4.010725  0
C  C140  1  0.27235110  0.47718346  0.10578903  1  0.306782  0  -0.025094  -0.0602  0  4.037024  0
C  C141  1  0.77235224  0.02281796  0.89421464  1  0.306557  0  -0.025072  -0.06017  0  4.03711  0
C  C142  1  0.72764497  0.52282185  0.89420894  1  0.307078  0  -0.025084  -0.060247  0  4.036831  0
C  C143  1  0.22763895  0.97717213  0.10578892  1  0.306858  0  -0.025117  -0.060204  0  4.036959  0
C  C144  1  0.21605858  0.47674034  0.16918513  1  0.401352  0  -0.023318  -0.056039  0  4.026284  0
C  C145  1  0.71606320  0.02326636  0.83081993  1  0.401456  0  -0.023446  -0.056035  0  4.026296  0
C  C146  1  0.78393680  0.52326358  0.83081377  1  0.401218  0  -0.023303  -0.055953  0  4.026216  0
C  C147  1  0.28393217  0.97673618  0.16918159  1  0.401149  0  -0.023419  -0.056014  0  4.026395  0
C  C148  1  0.90109215  0.23892613  0.13942833  1  0.954463  0  0.112738  0.135383  0  3.995412  0
C  C149  1  0.40109631  0.26107172  0.86057194  1  0.954423  0  0.112739  0.135275  0  3.995678  0
C  C150  1  0.09890881  0.76106186  0.86058115  1  0.954275  0  0.112736  0.135256  0  3.995612  0
C  C151  1  0.59890882  0.73893498  0.13942454  1  0.95449  0  0.112789  0.135463  0  3.99553  0
C  C152  1  0.97986267  0.12432577  0.07492012  1  0.309828  0  -0.024108  -0.063526  0  4.050819  0
C  C153  1  0.47986177  0.37567520  0.92507609  1  0.310214  0  -0.024166  -0.063678  0  4.050952  0
C  C154  1  0.02014037  0.87566500  0.92508695  1  0.309384  0  -0.024164  -0.063599  0  4.051036  0
C  C155  1  0.52013988  0.62432943  0.07491951  1  0.310049  0  -0.024095  -0.06352  0  4.051047  0
C  C156  1  0.04140294  0.19301756  0.10608212  1  0.419425  0  -0.018703  -0.05542  0  4.045757  0
C  C157  1  0.54140674  0.30698217  0.89391901  1  0.418735  0  -0.018628  -0.055275  0  4.045561  0
C  C158  1  0.95860150  0.80697528  0.89392471  1  0.419363  0  -0.018616  -0.055369  0  4.045809  0
C  C159  1  0.45859909  0.69302108  0.10607750  1  0.418894  0  -0.018651  -0.055384  0  4.045762  0
C  C160  1  0.85863130  0.73592438  0.17615953  1  0.973741  0  0.108222  0.124763  0  4.007694  0
C  C161  1  0.35862991  0.76407499  0.82384372  1  0.973999  0  0.108233  0.124742  0  4.007773  0
C  C162  1  0.14137732  0.26406711  0.82383857  1  0.973525  0  0.108187  0.124699  0  4.007851  0
C  C163  1  0.64137941  0.23592410  0.17615727  1  0.973883  0  0.108237  0.124844  0  4.007944  0
C  C164  1  0.88571840  0.85837943  0.12727468  1  0.362172  0  -0.023957  -0.055513  0  4.041692  0
C  C165  1  0.38571924  0.64162076  0.87272756  1  0.362097  0  -0.023908  -0.055457  0  4.041611  0
C  C166  1  0.11428046  0.14161690  0.87272417  1  0.36222  0  -0.024001  -0.055682  0  4.041862  0
C  C167  1  0.61429425  0.35837833  0.12727172  1  0.359347  0  -0.023897  -0.05534  0  4.041684  0
C  C168  1  0.83216495  0.79854450  0.07579380  1  0.333989  0  -0.02277  -0.061237  0  4.041742  0
C  C169  1  0.33216815  0.70145544  0.92420954  1  0.33395  0  -0.022795  -0.061218  0  4.041573  0
C  C170  1  0.16783461  0.20145182  0.92420619  1  0.333946  0  -0.022825  -0.061321  0  4.041654  0
C  C171  1  0.66784465  0.29854087  0.07579272  1  0.337002  0  -0.022846  -0.061428  0  4.041869  0
C  C172  1  0.08672709  0.02249644  0.35910804  1  0.940491  0  0.109171  0.125523  0  4.005106  0
C  C173  1  0.58674071  0.47751106  0.64090112  1  0.941458  0  0.109322  0.125516  0  4.004905  0
C  C174  1  0.91325923  0.97751094  0.64089253  1  0.940794  0  0.109237  0.125539  0  4.005022  0
C  C175  1  0.41327070  0.52249766  0.35910818  1  0.94047  0  0.109218  0.125597  0  4.00512  0
C  C176  1  0.09670204  0.10616418  0.26969932  1  0.380729  0  -0.022136  -0.048898  0  4.032378  0
C  C177  1  0.59671389  0.39384199  0.73030964  1  0.381007  0  -0.022277  -0.048949  0  4.032563  0
C  C178  1  0.90328776  0.89384528  0.73029987  1  0.381208  0  -0.022188  -0.048951  0  4.03284  0
C  C179  1  0.40329403  0.60616122  0.26969653  1  0.380738  0  -0.022218  -0.049133  0  4.03274  0
C  C180  1  0.04166883  0.03080167  0.24254986  1  0.370038  0  -0.023545  -0.057421  0  4.03793  0
C  C181  1  0.54167823  0.46920426  0.75745622  1  0.369708  0  -0.023402  -0.05739  0  4.037738  0
C  C182  1  0.95832236  0.96920226  0.75744733  1  0.36945  0  -0.02354  -0.057454  0  4.038284  0
C  C183  1  0.45832760  0.53080171  0.24254868  1  0.369915  0  -0.023436  -0.057083  0  4.037801  0
C  C184  1  0.13151737  0.18416269  0.56968366  1  0.982918  0  0.110308  0.129715  0  4.013844  0
C  C185  1  0.63152749  0.31583538  0.43031211  1  0.978734  0  0.110304  0.129812  0  4.013825  0
C  C186  1  0.86848079  0.81584192  0.43031535  1  0.983039  0  0.110337  0.129797  0  4.013972  0
C  C187  1  0.36848601  0.68416096  0.56968334  1  0.982918  0  0.110336  0.129789  0  4.0139  0
C  C188  1  0.19203971  0.05826421  0.59573750  1  0.320655  0  -0.02051  -0.06041  0  4.043757  0
C  C189  1  0.69204830  0.44173274  0.40426037  1  0.321435  0  -0.020571  -0.060396  0  4.043668  0
C  C190  1  0.80795845  0.94173764  0.40426278  1  0.320757  0  -0.02053  -0.060402  0  4.043552  0
C  C191  1  0.30795614  0.55826635  0.59573835  1  0.320484  0  -0.020458  -0.060304  0  4.043694  0
C  C192  1  0.23494639  0.07788002  0.53052922  1  0.387313  0  -0.024259  -0.066573  0  4.03815  0
C  C193  1  0.73495280  0.42212263  0.46947293  1  0.387289  0  -0.024257  -0.066617  0  4.037975  0
C  C194  1  0.76505107  0.92212596  0.46947454  1  0.387151  0  -0.024269  -0.066476  0  4.037878  0
C  C195  1  0.26505373  0.57787645  0.53052805  1  0.387084  0  -0.024319  -0.066589  0  4.038094  0
C  C196  1  0.36814148  0.27721050  0.35056938  1  0.929822  0  0.109195  0.123316  0  4.02328  0
C  C197  1  0.86814351  0.22279068  0.64942744  1  0.929708  0  0.109258  0.123399  0  4.023129  0
C  C198  1  0.63185041  0.72278516  0.64942255  1  0.929443  0  0.109208  0.123345  0  4.022863  0
C  C199  1  0.13185604  0.77720290  0.35056701  1  0.929722  0  0.109195  0.123417  0  4.023177  0
C  C200  1  0.46749722  0.16651974  0.31438519  1  0.338858  0  -0.024324  -0.062318  0  4.027429  0
C  C201  1  0.96749626  0.33348324  0.68561417  1  0.338698  0  -0.024363  -0.062342  0  4.02737  0
C  C202  1  0.53250094  0.83347727  0.68561433  1  0.339461  0  -0.024323  -0.062335  0  4.027302  0
C  C203  1  0.03249424  0.66651931  0.31438337  1  0.338773  0  -0.024371  -0.062434  0  4.027221  0
C  C204  1  0.39161821  0.13069266  0.34693984  1  0.372631  0  -0.023422  -0.058886  0  4.030064  0
C  C205  1  0.89161253  0.36931068  0.65306072  1  0.372972  0  -0.023405  -0.058725  0  4.029933  0
C  C206  1  0.60838483  0.86930161  0.65305528  1  0.372069  0  -0.02333  -0.058694  0  4.03  0
C  C207  1  0.10837587  0.63069255  0.34693921  1  0.37297  0  -0.023421  -0.058831  0  4.029728  0
N  N208  1  0.06474033  0.38779317  0.31203873  1  -1.254213  0  -0.379127  -0.295862  0  3.608576  0
N  N209  1  0.56474257  0.11221356  0.68796577  1  -1.25418  0  -0.379101  -0.29585  0  3.608453  0
N  N210  1  0.93525086  0.61219972  0.68795618  1  -1.254299  0  -0.379065  -0.29593  0  3.608465  0
N  N211  1  0.43526257  0.88778344  0.31203659  1  -1.253998  0  -0.379099  -0.295876  0  3.60849  0
N  N212  1  0.13818308  0.31518275  0.39660466  1  -1.239471  0  -0.379754  -0.301657  0  3.582411  0
N  N213  1  0.63819261  0.18482087  0.60339481  1  -1.239351  0  -0.379751  -0.301637  0  3.582591  0
N  N214  1  0.86180393  0.68480876  0.60338947  1  -1.2398  0  -0.379781  -0.301817  0  3.58239  0
N  N215  1  0.36181252  0.81517753  0.39660436  1  -1.239791  0  -0.379795  -0.301717  0  3.582441  0
N  N216  1  0.90848712  0.46289844  0.19478410  1  -1.243236  0  -0.378288  -0.295545  0  3.625842  0
N  N217  1  0.40848820  0.03710703  0.80521964  1  -1.243358  0  -0.378243  -0.295519  0  3.625629  0
N  N218  1  0.09151453  0.53711239  0.80521758  1  -1.243539  0  -0.378228  -0.295421  0  3.625525  0
N  N219  1  0.59151554  0.96289205  0.19478135  1  -1.243265  0  -0.378221  -0.295462  0  3.625688  0
N  N220  1  0.79128877  0.52571137  0.13800923  1  -1.250909  0  -0.3781  -0.304932  0  3.640086  0
N  N221  1  0.29128691  0.97429323  0.86199597  1  -1.251151  0  -0.377991  -0.304871  0  3.640238  0
N  N222  1  0.20871358  0.47430290  0.86199753  1  -1.250675  0  -0.378063  -0.304864  0  3.640273  0
N  N223  1  0.70871822  0.02569757  0.13800202  1  -1.251203  0  -0.378063  -0.304961  0  3.640346  0
N  N224  1  0.13465373  0.43070244  0.14400359  1  -1.265001  0  -0.38069  -0.29575  0  3.625733  0
N  N225  1  0.63466135  0.06930529  0.85600050  1  -1.265036  0  -0.380609  -0.295708  0  3.625515  0
N  N226  1  0.86534095  0.56929941  0.85599726  1  -1.264972  0  -0.380661  -0.295807  0  3.625831  0
N  N227  1  0.36533751  0.93069863  0.14400010  1  -1.264848  0  -0.380639  -0.295758  0  3.625465  0
N  N228  1  0.22619495  0.43150253  0.04106895  1  -1.263342  0  -0.381418  -0.291899  0  3.631067  0
N  N229  1  0.72619629  0.06849662  0.95893607  1  -1.263621  0  -0.381414  -0.291901  0  3.631388  0
N  N230  1  0.77380182  0.56850347  0.95893027  1  -1.263477  0  -0.381483  -0.291889  0  3.631043  0
N  N231  1  0.27379699  0.93148933  0.04106798  1  -1.263614  0  -0.381408  -0.291914  0  3.631333  0
N  N232  1  0.99077661  0.26557078  0.14692960  1  -1.27463  0  -0.375333  -0.301241  0  3.598908  0
N  N233  1  0.49078136  0.23442814  0.85307482  1  -1.274743  0  -0.375382  -0.301265  0  3.599137  0
N  N234  1  0.00922294  0.73442205  0.85308064  1  -1.274532  0  -0.375392  -0.301208  0  3.599007  0
N  N235  1  0.50922377  0.76557649  0.14692021  1  -1.274604  0  -0.375439  -0.30132  0  3.599187  0
N  N236  1  0.89068226  0.15381653  0.09628966  1  -1.24786  0  -0.381449  -0.295464  0  3.618947  0
N  N237  1  0.39068262  0.34618199  0.90370503  1  -1.247692  0  -0.3814  -0.295307  0  3.61902  0
N  N238  1  0.10931869  0.84617493  0.90371695  1  -1.2476  0  -0.381488  -0.295427  0  3.619206  0
N  N239  1  0.60931903  0.65382125  0.09629319  1  -1.24783  0  -0.381473  -0.295473  0  3.619089  0
N  N240  1  0.81573648  0.72075251  0.10707117  1  -1.273461  0  -0.381341  -0.303019  0  3.626635  0
N  N241  1  0.31573655  0.77925012  0.89293258  1  -1.27353  0  -0.381368  -0.303089  0  3.626559  0
N  N242  1  0.18426865  0.27924589  0.89292800  1  -1.273556  0  -0.381314  -0.302967  0  3.626581  0
N  N243  1  0.68426928  0.22075101  0.10707497  1  -1.273729  0  -0.381319  -0.302982  0  3.626876  0
N  N244  1  0.90211942  0.81835058  0.19108186  1  -1.273758  0  -0.37954  -0.289808  0  3.624082  0
N  N245  1  0.40211487  0.68164830  0.80891903  1  -1.273827  0  -0.379582  -0.289867  0  3.623959  0
N  N246  1  0.09788711  0.18164369  0.80891383  1  -1.274009  0  -0.379462  -0.289729  0  3.624203  0
N  N247  1  0.59789027  0.31835285  0.19108227  1  -1.274097  0  -0.37951  -0.289894  0  3.623972  0
N  N248  1  0.03558612  0.97770577  0.29937305  1  -1.263489  0  -0.382843  -0.295707  0  3.627931  0
N  N249  1  0.53559842  0.52230046  0.70063468  1  -1.263926  0  -0.38303  -0.295769  0  3.627869  0
N  N250  1  0.96440716  0.02230022  0.70062730  1  -1.263687  0  -0.382751  -0.295434  0  3.627811  0
N  N251  1  0.46441369  0.47770689  0.29937327  1  -1.263304  0  -0.382937  -0.295898  0  3.627861  0
N  N252  1  0.12529577  0.10040701  0.34342507  1  -1.26417  0  -0.37915  -0.301062  0  3.614082  0
N  N253  1  0.62531252  0.39959858  0.65658380  1  -1.26432  0  -0.379065  -0.301081  0  3.614081  0
N  N254  1  0.87468985  0.89959828  0.65657802  1  -1.264081  0  -0.379143  -0.301235  0  3.614317  0
N  N255  1  0.37469819  0.60040394  0.34342170  1  -1.264235  0  -0.379103  -0.30098  0  3.614234  0
N  N256  1  0.12693656  0.12614201  0.62035260  1  -1.245934  0  -0.378273  -0.292934  0  3.628272  0
N  N257  1  0.62694763  0.37385190  0.37964195  1  -1.246808  0  -0.378256  -0.292954  0  3.628265  0
N  N258  1  0.87306091  0.87385986  0.37964370  1  -1.246095  0  -0.378249  -0.292961  0  3.628393  0
N  N259  1  0.37306099  0.62614512  0.62035530  1  -1.245898  0  -0.378261  -0.292985  0  3.628217  0
N  N260  1  0.19597520  0.15817120  0.51435969  1  -1.244944  0  -0.384561  -0.297274  0  3.637103  0
N  N261  1  0.69597985  0.34182921  0.48563985  1  -1.245007  0  -0.384547  -0.297343  0  3.637067  0
N  N262  1  0.80402436  0.84183273  0.48563920  1  -1.244856  0  -0.384618  -0.29743  0  3.637166  0
N  N263  1  0.30402877  0.65816712  0.51435787  1  -1.244737  0  -0.384595  -0.29741  0  3.637177  0
N  N264  1  0.45189647  0.25964161  0.31679578  1  -1.261843  0  -0.378692  -0.293038  0  3.611647  0
N  N265  1  0.95189579  0.24035992  0.68320393  1  -1.261502  0  -0.378676  -0.292995  0  3.611642  0
N  N266  1  0.54810308  0.74035748  0.68320236  1  -1.26129  0  -0.378724  -0.293004  0  3.611662  0
N  N267  1  0.04809958  0.75964056  0.31679159  1  -1.261856  0  -0.378717  -0.293075  0  3.611503  0
N  N268  1  0.32878729  0.20145530  0.36963116  1  -1.266345  0  -0.383672  -0.294134  0  3.634842  0
N  N269  1  0.82878687  0.29854776  0.63036879  1  -1.266635  0  -0.383699  -0.294204  0  3.635111  0
N  N270  1  0.67121087  0.79854106  0.63035917  1  -1.266455  0  -0.383698  -0.294224  0  3.635052  0
N  N271  1  0.17120920  0.70144856  0.36963007  1  -1.266528  0  -0.383701  -0.29415  0  3.634977  0
