# generated using pymatgen
data_KH5C4(NO)4
_symmetry_space_group_name_H-M   'P 1'
_cell_length_a   5.05110777
_cell_length_b   11.62723327
_cell_length_c   13.37455466
_cell_angle_alpha   89.99997208
_cell_angle_beta   90.00014078
_cell_angle_gamma   99.90124455
_symmetry_Int_Tables_number   1
_chemical_formula_structural   KH5C4(NO)4
_chemical_formula_sum   'K4 H20 C16 N16 O16'
_cell_volume   773.79360132
_cell_formula_units_Z   4
loop_
 _symmetry_equiv_pos_site_id
 _symmetry_equiv_pos_as_xyz
  1  'x, y, z'
loop_
 _atom_site_type_symbol
 _atom_site_label
 _atom_site_symmetry_multiplicity
 _atom_site_fract_x
 _atom_site_fract_y
 _atom_site_fract_z
 _atom_site_occupancy
 _atom_site_hle17_bader_spin_density
 _atom_site_hle17_ddec_charge
 _atom_site_hle17_ddec_spin_density
 _atom_site_hle17_ddec_sum_bond_order
 _atom_site_hle17_magmom
 _atom_site_hse06_10hf_bader_spin_density
 _atom_site_hse06_10hf_ddec_charge
 _atom_site_hse06_10hf_ddec_spin_density
 _atom_site_hse06_10hf_ddec_sum_bond_order
 _atom_site_hse06_10hf_magmom
 _atom_site_hse06_bader_spin_density
 _atom_site_hse06_ddec_charge
 _atom_site_hse06_ddec_spin_density
 _atom_site_hse06_ddec_sum_bond_order
 _atom_site_hse06_magmom
 _atom_site_pbe_bader_spin_density
 _atom_site_pbe_cm5_charge
 _atom_site_pbe_ddec_charge
 _atom_site_pbe_ddec_spin_density
 _atom_site_pbe_ddec_sum_bond_order
 _atom_site_pbe_magmom
K  K0  1  0.92929011  0.36725148  0.13007347  1  0  0.899045  0  0.474306  0  0  0.830271  0  0.680337  0  0  0.846685  0  0.65724  0  0  0.819935  0.818273  0  0.696618  0
K  K1  1  0.57070670  0.13275788  0.63007131  1  0  0.89906  0  0.474267  0  0  0.830272  0  0.68032  0  0  0.846697  0  0.657199  0  0  0.819944  0.818275  0  0.6966  0
K  K2  1  0.07070499  0.63275281  0.86993167  1  0  0.899065  0  0.474262  0  0  0.830279  0  0.680315  0  0  0.846703  0  0.657194  0  0  0.81995  0.818279  0  0.696596  0
K  K3  1  0.42929313  0.86725340  0.36992635  1  0  0.899052  0  0.47429  0  0  0.830256  0  0.680348  0  0  0.846684  0  0.657228  0  0  0.819943  0.818255  0  0.696629  0
H  H4  1  0.16405937  0.31052449  0.73892181  1  0  0.28672  0  0.932058  0  0  0.275038  0  0.992371  0  0  0.281621  0  0.987596  0  0  0.307056  0.270299  0  0.995912  0
H  H5  1  0.33594183  0.18947545  0.23892172  1  0  0.286754  0  0.932023  0  0  0.275028  0  0.9924  0  0  0.281611  0  0.987625  0  0  0.307054  0.270291  0  0.995938  0
H  H6  1  0.83594227  0.68947631  0.26107884  1  0  0.286686  0  0.93209  0  0  0.275002  0  0.99241  0  0  0.281585  0  0.987636  0  0  0.307046  0.270262  0  0.995949  0
H  H7  1  0.66405877  0.81052273  0.76107819  1  0  0.286793  0  0.931989  0  0  0.275091  0  0.992337  0  0  0.281675  0  0.98756  0  0  0.307067  0.270351  0  0.995881  0
H  H8  1  0.20551559  0.49164629  0.64395938  1  0  0.059257  0  0.950719  0  0  0.070982  0  1.020888  0  0  0.071635  0  1.020406  0  0  0.101994  0.070402  0  1.021391  0
H  H9  1  0.29448232  0.00835192  0.14396082  1  0  0.059271  0  0.950752  0  0  0.070978  0  1.020918  0  0  0.07163  0  1.020436  0  0  0.101986  0.0704  0  1.021419  0
H  H10  1  0.79448337  0.50835276  0.35603978  1  0  0.059256  0  0.95074  0  0  0.070986  0  1.02091  0  0  0.071638  0  1.020428  0  0  0.102003  0.070407  0  1.02141  0
H  H11  1  0.70551630  0.99164626  0.85603909  1  0  0.059222  0  0.950742  0  0  0.070945  0  1.020909  0  0  0.071597  0  1.020428  0  0  0.101984  0.070366  0  1.021411  0
H  H12  1  0.32109583  0.39415713  0.55697562  1  0  0.072843  0  0.945774  0  0  0.086195  0  1.011979  0  0  0.086785  0  1.011874  0  0  0.106032  0.085662  0  1.012204  0
H  H13  1  0.17890316  0.10584020  0.05697616  1  0  0.072843  0  0.945823  0  0  0.086187  0  1.012021  0  0  0.086777  0  1.011916  0  0  0.106026  0.085655  0  1.012247  0
H  H14  1  0.67890710  0.60584192  0.44302428  1  0  0.072832  0  0.945805  0  0  0.086198  0  1.012004  0  0  0.086789  0  1.011898  0  0  0.106031  0.085664  0  1.012229  0
H  H15  1  0.82109546  0.89415797  0.94302374  1  0  0.072833  0  0.945791  0  0  0.086188  0  1.011986  0  0  0.086778  0  1.01188  0  0  0.10604  0.085655  0  1.012212  0
H  H16  1  0.78520207  0.47303159  0.59143977  1  0  0.066238  0  0.92708  0  0  0.083644  0  0.986104  0  0  0.083876  0  0.986401  0  0  0.104342  0.08335  0  0.986053  0
H  H17  1  0.71479595  0.02696642  0.09143814  1  0  0.066237  0  0.927122  0  0  0.08365  0  0.986147  0  0  0.083881  0  0.986448  0  0  0.104354  0.083355  0  0.986099  0
H  H18  1  0.21479922  0.52696834  0.40856088  1  0  0.066236  0  0.927144  0  0  0.083658  0  0.98616  0  0  0.083889  0  0.986457  0  0  0.104362  0.083364  0  0.986108  0
H  H19  1  0.28520267  0.97303176  0.90856027  1  0  0.06621  0  0.927085  0  0  0.083632  0  0.986124  0  0  0.083866  0  0.986421  0  0  0.104337  0.083339  0  0.986073  0
H  H20  1  0.65379556  0.59811932  0.63185822  1  0  0.066252  0  0.949833  0  0  0.073524  0  1.025855  0  0  0.075023  0  1.024399  0  0  0.099138  0.0723  0  1.027037  0
H  H21  1  0.84620232  0.90187885  0.13186029  1  0  0.066243  0  0.949795  0  0  0.073511  0  1.025836  0  0  0.075014  0  1.024375  0  0  0.099144  0.072285  0  1.027025  0
H  H22  1  0.34620375  0.40188060  0.36814093  1  0  0.06624  0  0.949783  0  0  0.073513  0  1.025816  0  0  0.075012  0  1.024357  0  0  0.09913  0.072289  0  1.026998  0
H  H23  1  0.15379828  0.09811933  0.86814036  1  0  0.066239  0  0.949791  0  0  0.073524  0  1.025829  0  0  0.075026  0  1.02437  0  0  0.099148  0.072298  0  1.027018  0
C  C24  1  0.35658095  0.43568644  0.63032087  1  0  0.031965  0  3.583021  0  0  -0.022495  0  3.842599  0  0  -0.018177  0  3.852833  0  0  -0.060028  -0.0253  0  3.835514  0
C  C25  1  0.14341687  0.06431177  0.13032215  1  0  0.031908  0  3.583135  0  0  -0.022497  0  3.84264  0  0  -0.018177  0  3.852872  0  0  -0.060007  -0.025296  0  3.835542  0
C  C26  1  0.64342034  0.56431349  0.36967903  1  0  0.03197  0  3.582997  0  0  -0.022524  0  3.842636  0  0  -0.018206  0  3.852867  0  0  -0.060045  -0.025331  0  3.835557  0
C  C27  1  0.85658175  0.93568641  0.86967775  1  0  0.03203  0  3.582955  0  0  -0.022394  0  3.842522  0  0  -0.018074  0  3.852755  0  0  -0.060002  -0.025196  0  3.835432  0
C  C28  1  0.64403627  0.50416705  0.64361415  1  0  0.013731  0  3.636743  0  0  -0.031921  0  3.904066  0  0  -0.028635  0  3.914174  0  0  -0.069573  -0.033954  0  3.897165  0
C  C29  1  0.85596237  0.99583286  0.14361469  1  0  0.013805  0  3.636721  0  0  -0.031895  0  3.904078  0  0  -0.02861  0  3.914186  0  0  -0.069586  -0.033929  0  3.897179  0
C  C30  1  0.35596339  0.49583374  0.35638501  1  0  0.013799  0  3.636676  0  0  -0.031888  0  3.904062  0  0  -0.028595  0  3.914159  0  0  -0.06958  -0.033922  0  3.89716  0
C  C31  1  0.14403659  0.00416619  0.85638447  1  0  0.013821  0  3.636661  0  0  -0.031929  0  3.904097  0  0  -0.028643  0  3.914206  0  0  -0.069587  -0.033962  0  3.897199  0
C  C32  1  0.56402699  0.33596566  0.87514783  1  0  -0.06476  0  3.515614  0  0  -0.1133  0  3.798643  0  0  -0.122862  0  3.810817  0  0  0.18328  -0.107673  0  3.791194  0
C  C33  1  0.93597459  0.16403670  0.37514934  1  0  -0.064693  0  3.515597  0  0  -0.113162  0  3.798559  0  0  -0.12272  0  3.810732  0  0  0.183352  -0.107534  0  3.791112  0
C  C34  1  0.43597499  0.66403601  0.12485207  1  0  -0.064654  0  3.515498  0  0  -0.113161  0  3.798496  0  0  -0.122721  0  3.81067  0  0  0.183325  -0.107533  0  3.791045  0
C  C35  1  0.06402240  0.83596236  0.62485131  1  0  -0.064717  0  3.515564  0  0  -0.11317  0  3.79848  0  0  -0.122719  0  3.810644  0  0  0.183301  -0.107543  0  3.791033  0
C  C36  1  0.54605385  0.39240926  0.77699277  1  0  0.361177  0  3.930165  0  0  0.33055  0  4.216678  0  0  0.352158  0  4.224792  0  0  0.226191  0.315882  0  4.211201  0
C  C37  1  0.95395398  0.10759049  0.27699432  1  0  0.361164  0  3.930252  0  0  0.330473  0  4.216827  0  0  0.35208  0  4.22494  0  0  0.226182  0.315801  0  4.211359  0
C  C38  1  0.45394942  0.60759067  0.22300788  1  0  0.361229  0  3.930132  0  0  0.330574  0  4.21667  0  0  0.35218  0  4.224785  0  0  0.226216  0.315902  0  4.211199  0
C  C39  1  0.04605024  0.89240682  0.72300633  1  0  0.361204  0  3.930153  0  0  0.330538  0  4.216677  0  0  0.352142  0  4.224791  0  0  0.226217  0.315866  0  4.211209  0
N  N40  1  0.73323266  0.25435180  0.88382411  1  0  0.493251  0  3.980262  0  0  0.521313  0  4.284716  0  0  0.54351  0  4.294626  0  0  0.014522  0.50654  0  4.277925  0
N  N41  1  0.76676794  0.24564794  0.38382318  1  0  0.493235  0  3.980252  0  0  0.521278  0  4.284711  0  0  0.543473  0  4.294625  0  0  0.014523  0.506506  0  4.277917  0
N  N42  1  0.26676898  0.74564900  0.11617729  1  0  0.493069  0  3.980397  0  0  0.521113  0  4.284867  0  0  0.543308  0  4.294783  0  0  0.014434  0.50634  0  4.278073  0
N  N43  1  0.23323068  0.75435024  0.61617673  1  0  0.493211  0  3.980292  0  0  0.521247  0  4.284732  0  0  0.543438  0  4.294645  0  0  0.014482  0.506474  0  4.27794  0
N  N44  1  0.40415781  0.36211126  0.95304493  1  0  0.476334  0  4.023423  0  0  0.52586  0  4.29611  0  0  0.548197  0  4.306032  0  0  -0.002229  0.510969  0  4.289431  0
N  N45  1  0.09583918  0.13788954  0.45304463  1  0  0.476366  0  4.023505  0  0  0.525879  0  4.29619  0  0  0.548214  0  4.306118  0  0  -0.002261  0.510986  0  4.289511  0
N  N46  1  0.59583952  0.63788866  0.04695572  1  0  0.47642  0  4.023527  0  0  0.52595  0  4.296185  0  0  0.548286  0  4.30611  0  0  -0.002209  0.511058  0  4.289504  0
N  N47  1  0.90416048  0.86211126  0.54695527  1  0  0.476343  0  4.023523  0  0  0.525874  0  4.296164  0  0  0.548204  0  4.306095  0  0  -0.002265  0.510982  0  4.289484  0
N  N48  1  0.34676022  0.34767923  0.71018672  1  0  -0.452879  0  3.214226  0  0  -0.401074  0  3.462453  0  0  -0.421383  0  3.470999  0  0  -0.469771  -0.386949  0  3.456283  0
N  N49  1  0.15324079  0.15232071  0.21018872  1  0  -0.452855  0  3.214216  0  0  -0.401017  0  3.462466  0  0  -0.421324  0  3.471011  0  0  -0.469745  -0.38689  0  3.456303  0
N  N50  1  0.65324141  0.65232157  0.28981318  1  0  -0.452852  0  3.214165  0  0  -0.401037  0  3.462406  0  0  -0.421346  0  3.470955  0  0  -0.469762  -0.38691  0  3.456236  0
N  N51  1  0.84676145  0.84767659  0.78981118  1  0  -0.452988  0  3.214168  0  0  -0.401179  0  3.462404  0  0  -0.42149  0  3.470949  0  0  -0.469805  -0.38705  0  3.456238  0
N  N52  1  0.72249066  0.47996770  0.74713016  1  0  -0.485659  0  2.890983  0  0  -0.456907  0  3.176665  0  0  -0.471574  0  3.18457  0  0  -0.442405  -0.446963  0  3.171377  0
N  N53  1  0.77751078  0.02003641  0.24713158  1  0  -0.485702  0  2.891029  0  0  -0.456894  0  3.176688  0  0  -0.471562  0  3.184593  0  0  -0.442414  -0.44695  0  3.171406  0
N  N54  1  0.27751038  0.52003659  0.25286900  1  0  -0.485736  0  2.891042  0  0  -0.45695  0  3.1767  0  0  -0.471616  0  3.184603  0  0  -0.442408  -0.447007  0  3.171417  0
N  N55  1  0.22249085  0.97996439  0.75286907  1  0  -0.485707  0  2.890919  0  0  -0.456913  0  3.176617  0  0  -0.471581  0  3.184525  0  0  -0.442394  -0.446969  0  3.171336  0
O  O56  1  0.41438482  0.32095329  0.03977192  1  0  -0.457459  0  1.832718  0  0  -0.448869  0  2.061681  0  0  -0.461658  0  2.056759  0  0  -0.248445  -0.439849  0  2.064899  0
O  O57  1  0.08561707  0.17904667  0.53977125  1  0  -0.457495  0  1.832745  0  0  -0.448892  0  2.061719  0  0  -0.461677  0  2.056781  0  0  -0.248454  -0.439871  0  2.064937  0
O  O58  1  0.58561647  0.67904664  0.96022948  1  0  -0.45757  0  1.832846  0  0  -0.448978  0  2.061803  0  0  -0.461763  0  2.056867  0  0  -0.2485  -0.439957  0  2.065022  0
O  O59  1  0.91438620  0.82095325  0.46022866  1  0  -0.457504  0  1.832767  0  0  -0.448909  0  2.061715  0  0  -0.461706  0  2.05681  0  0  -0.24843  -0.439886  0  2.064932  0
O  O60  1  0.83417368  0.22539253  0.80173918  1  0  -0.474851  0  1.771877  0  0  -0.449652  0  1.996274  0  0  -0.464845  0  1.991329  0  0  -0.227422  -0.438941  0  1.999562  0
O  O61  1  0.66582441  0.27460721  0.30173964  1  0  -0.474819  0  1.771931  0  0  -0.44963  0  1.996353  0  0  -0.464818  0  1.991404  0  0  -0.227406  -0.43892  0  1.99964  0
O  O62  1  0.16582597  0.77460827  0.19826072  1  0  -0.474755  0  1.771932  0  0  -0.44955  0  1.996334  0  0  -0.464737  0  1.99138  0  0  -0.227367  -0.438839  0  1.99962  0
O  O63  1  0.33417120  0.72538835  0.69825876  1  0  -0.474828  0  1.771872  0  0  -0.449628  0  1.996264  0  0  -0.464821  0  1.991323  0  0  -0.227367  -0.438917  0  1.999553  0
O  O64  1  0.23920476  0.43001903  0.93221723  1  0  -0.479366  0  1.773471  0  0  -0.476744  0  2.009085  0  0  -0.492232  0  2.005249  0  0  -0.252317  -0.46589  0  2.011622  0
O  O65  1  0.26079175  0.06998090  0.43221711  1  0  -0.479438  0  1.773619  0  0  -0.476828  0  2.009241  0  0  -0.492319  0  2.005411  0  0  -0.252371  -0.465973  0  2.011779  0
O  O66  1  0.76079257  0.56998089  0.06778342  1  0  -0.479433  0  1.773618  0  0  -0.476821  0  2.009231  0  0  -0.49231  0  2.005398  0  0  -0.252367  -0.465967  0  2.011767  0
O  O67  1  0.73920920  0.93001816  0.56778279  1  0  -0.479372  0  1.773573  0  0  -0.47676  0  2.009172  0  0  -0.49225  0  2.005345  0  0  -0.252318  -0.465908  0  2.011711  0
O  O68  1  0.78575325  0.20992671  0.96520106  1  0  -0.411845  0  1.77987  0  0  -0.396412  0  2.00583  0  0  -0.408131  0  2.001912  0  0  -0.190301  -0.388154  0  2.008461  0
O  O69  1  0.71424159  0.29007214  0.46520081  1  0  -0.411889  0  1.779723  0  0  -0.396451  0  2.0057  0  0  -0.408172  0  2.001782  0  0  -0.190341  -0.388193  0  2.008328  0
O  O70  1  0.21424373  0.79007234  0.03479959  1  0  -0.411788  0  1.779859  0  0  -0.39635  0  2.005826  0  0  -0.408073  0  2.00191  0  0  -0.190281  -0.388093  0  2.008455  0
O  O71  1  0.28575738  0.70992691  0.53479910  1  0  -0.411849  0  1.779855  0  0  -0.396422  0  2.00584  0  0  -0.408141  0  2.001924  0  0  -0.190305  -0.388162  0  2.008467  0
