# generated using pymatgen
data_SrH14C4N8O5
_symmetry_space_group_name_H-M   'P 1'
_cell_length_a   7.18611378
_cell_length_b   11.31983338
_cell_length_c   13.82901495
_cell_angle_alpha   90.00002578
_cell_angle_beta   90.00005830
_cell_angle_gamma   90.00003793
_symmetry_Int_Tables_number   1
_chemical_formula_structural   SrH14C4N8O5
_chemical_formula_sum   'Sr4 H56 C16 N32 O20'
_cell_volume   1124.92966631
_cell_formula_units_Z   4
loop_
 _symmetry_equiv_pos_site_id
 _symmetry_equiv_pos_as_xyz
  1  'x, y, z'
loop_
 _atom_site_type_symbol
 _atom_site_label
 _atom_site_symmetry_multiplicity
 _atom_site_fract_x
 _atom_site_fract_y
 _atom_site_fract_z
 _atom_site_occupancy
 _atom_site_hle17_bader_spin_density
 _atom_site_hle17_ddec_charge
 _atom_site_hle17_ddec_spin_density
 _atom_site_hle17_ddec_sum_bond_order
 _atom_site_hle17_magmom
 _atom_site_hse06_10hf_bader_spin_density
 _atom_site_hse06_10hf_ddec_charge
 _atom_site_hse06_10hf_ddec_spin_density
 _atom_site_hse06_10hf_ddec_sum_bond_order
 _atom_site_hse06_10hf_magmom
 _atom_site_hse06_bader_spin_density
 _atom_site_hse06_ddec_charge
 _atom_site_hse06_ddec_spin_density
 _atom_site_hse06_ddec_sum_bond_order
 _atom_site_hse06_magmom
 _atom_site_pbe_bader_spin_density
 _atom_site_pbe_cm5_charge
 _atom_site_pbe_ddec_charge
 _atom_site_pbe_ddec_spin_density
 _atom_site_pbe_ddec_sum_bond_order
 _atom_site_pbe_magmom
Sr  Sr0  1  0.49999997  0.58107509  0.63929957  1  0  1.566563  0  1.135202  0  0  1.407934  0  1.525575  0  0  1.442199  0  1.482553  0  0  0.898566  1.382788  0  1.556063  0
Sr  Sr1  1  0.49999961  0.41892598  0.36070052  1  0  1.566564  0  1.135188  0  0  1.407928  0  1.525578  0  0  1.442194  0  1.482556  0  0  0.898561  1.382784  0  1.556064  0
Sr  Sr2  1  0.00000061  0.91892522  0.13930004  1  0  1.566555  0  1.135204  0  0  1.407873  0  1.525658  0  0  1.442144  0  1.482633  0  0  0.898556  1.38273  0  1.556149  0
Sr  Sr3  1  0.00000088  0.08107475  0.86069979  1  0  1.566591  0  1.135161  0  0  1.407924  0  1.525596  0  0  1.442193  0  1.482573  0  0  0.898571  1.382779  0  1.556083  0
H  H4  1  0.62018613  0.47024229  0.90983801  1  0  0.102716  0  0.958141  0  0  0.118101  0  1.019556  0  0  0.119787  0  1.01838  0  0  0.10695  0.116835  0  1.020539  0
H  H5  1  0.62018119  0.52975442  0.09016648  1  0  0.102771  0  0.958049  0  0  0.118126  0  1.019507  0  0  0.119814  0  1.018329  0  0  0.106953  0.116858  0  1.020492  0
H  H6  1  0.87981393  0.02975604  0.40983492  1  0  0.102748  0  0.95809  0  0  0.1181  0  1.019525  0  0  0.11979  0  1.018342  0  0  0.106922  0.116833  0  1.020508  0
H  H7  1  0.87981320  0.97024431  0.59016464  1  0  0.102752  0  0.958086  0  0  0.118111  0  1.019508  0  0  0.1198  0  1.018328  0  0  0.106922  0.116844  0  1.020491  0
H  H8  1  0.37981762  0.52975349  0.09016786  1  0  0.102797  0  0.958043  0  0  0.118182  0  1.019455  0  0  0.11987  0  1.018279  0  0  0.106964  0.116914  0  1.02044  0
H  H9  1  0.37981282  0.47024223  0.90983795  1  0  0.102713  0  0.958137  0  0  0.118109  0  1.019529  0  0  0.119796  0  1.018352  0  0  0.106948  0.116844  0  1.020513  0
H  H10  1  0.12018704  0.97024415  0.59016444  1  0  0.10277  0  0.958079  0  0  0.118124  0  1.019509  0  0  0.119813  0  1.01833  0  0  0.10693  0.116857  0  1.020492  0
H  H11  1  0.12018638  0.02975588  0.40983472  1  0  0.102771  0  0.958125  0  0  0.118125  0  1.019547  0  0  0.119817  0  1.018363  0  0  0.10693  0.116859  0  1.020529  0
H  H12  1  0.62006497  0.92336370  0.56893167  1  0  0.097813  0  0.959879  0  0  0.11522  0  1.019715  0  0  0.116788  0  1.018619  0  0  0.105568  0.113975  0  1.020685  0
H  H13  1  0.62006579  0.07663742  0.43106848  1  0  0.097878  0  0.959839  0  0  0.115289  0  1.019652  0  0  0.116841  0  1.018575  0  0  0.105592  0.114043  0  1.020627  0
H  H14  1  0.87993494  0.57663678  0.06893005  1  0  0.097841  0  0.9599  0  0  0.115241  0  1.019736  0  0  0.116804  0  1.018654  0  0  0.105573  0.113996  0  1.020707  0
H  H15  1  0.87993431  0.42336091  0.93106735  1  0  0.097898  0  0.959805  0  0  0.115265  0  1.019658  0  0  0.116849  0  1.018547  0  0  0.105581  0.114021  0  1.02063  0
H  H16  1  0.37993461  0.07663737  0.43106842  1  0  0.097845  0  0.959869  0  0  0.115255  0  1.019687  0  0  0.116806  0  1.01861  0  0  0.105578  0.11401  0  1.020659  0
H  H17  1  0.37993518  0.92336365  0.56893089  1  0  0.097824  0  0.959874  0  0  0.115223  0  1.01972  0  0  0.116792  0  1.018624  0  0  0.105566  0.11398  0  1.020687  0
H  H18  1  0.12006463  0.42336075  0.93106715  1  0  0.097889  0  0.959796  0  0  0.115225  0  1.019687  0  0  0.11681  0  1.01857  0  0  0.105572  0.113984  0  1.020651  0
H  H19  1  0.12006665  0.57663662  0.06892985  1  0  0.097845  0  0.959877  0  0  0.11522  0  1.019744  0  0  0.116801  0  1.018636  0  0  0.105571  0.113976  0  1.020712  0
H  H20  1  0.84754120  0.53954544  0.77949981  1  0  0.387572  0  0.93012  0  0  0.350532  0  1.007957  0  0  0.360793  0  0.993054  0  0  0.289841  0.343317  0  1.018435  0
H  H21  1  0.84754061  0.46045578  0.22049975  1  0  0.387601  0  0.930082  0  0  0.350561  0  1.007918  0  0  0.360821  0  0.993015  0  0  0.28986  0.343346  0  1.018395  0
H  H22  1  0.65245913  0.96045516  0.27950037  1  0  0.387575  0  0.930121  0  0  0.350531  0  1.007962  0  0  0.360793  0  0.993057  0  0  0.289842  0.343317  0  1.018439  0
H  H23  1  0.65245908  0.03954509  0.72049908  1  0  0.387565  0  0.930132  0  0  0.350524  0  1.007969  0  0  0.360786  0  0.993064  0  0  0.289839  0.343309  0  1.018445  0
H  H24  1  0.15245977  0.46045563  0.22049956  1  0  0.387597  0  0.930085  0  0  0.350556  0  1.007925  0  0  0.360817  0  0.993021  0  0  0.289859  0.343342  0  1.018402  0
H  H25  1  0.15245897  0.53954529  0.77950035  1  0  0.387571  0  0.930123  0  0  0.350531  0  1.007959  0  0  0.360793  0  0.993055  0  0  0.28984  0.343316  0  1.018437  0
H  H26  1  0.34754045  0.03954502  0.72049972  1  0  0.387569  0  0.930127  0  0  0.350533  0  1.007955  0  0  0.360795  0  0.99305  0  0  0.289843  0.343319  0  1.018431  0
H  H27  1  0.34754189  0.96045510  0.27950102  1  0  0.387587  0  0.930093  0  0  0.350529  0  1.007964  0  0  0.36079  0  0.993059  0  0  0.289835  0.343314  0  1.018441  0
H  H28  1  0.83573915  0.41653124  0.72794658  1  0  0.39383  0  0.912271  0  0  0.355904  0  0.995371  0  0  0.365638  0  0.981066  0  0  0.296528  0.349004  0  1.005511  0
H  H29  1  0.83573880  0.58346909  0.27205369  1  0  0.393819  0  0.91229  0  0  0.355892  0  0.99539  0  0  0.365626  0  0.981084  0  0  0.296526  0.348993  0  1.005529  0
H  H30  1  0.66426055  0.08346875  0.22794629  1  0  0.393826  0  0.912288  0  0  0.3559  0  0.995382  0  0  0.365634  0  0.981075  0  0  0.296529  0.349001  0  1.005521  0
H  H31  1  0.66426012  0.91653063  0.77205317  1  0  0.393835  0  0.912272  0  0  0.355911  0  0.995365  0  0  0.365644  0  0.981059  0  0  0.296527  0.34901  0  1.005506  0
H  H32  1  0.16426181  0.58346895  0.27205351  1  0  0.393823  0  0.912285  0  0  0.355897  0  0.995381  0  0  0.365631  0  0.981075  0  0  0.296528  0.348998  0  1.00552  0
H  H33  1  0.16426078  0.41653110  0.72794640  1  0  0.393827  0  0.912271  0  0  0.355901  0  0.995374  0  0  0.365635  0  0.981067  0  0  0.29653  0.349001  0  1.005514  0
H  H34  1  0.33573902  0.91653144  0.77205380  1  0  0.393828  0  0.912275  0  0  0.355904  0  0.995371  0  0  0.365637  0  0.981065  0  0  0.296534  0.349004  0  1.005511  0
H  H35  1  0.33573945  0.08346956  0.22794693  1  0  0.393823  0  0.91228  0  0  0.355896  0  0.995385  0  0  0.36563  0  0.981078  0  0  0.29653  0.348997  0  1.005524  0
H  H36  1  0.15711231  0.75110842  0.58899079  1  0  0.38661  0  0.931857  0  0  0.349384  0  1.009333  0  0  0.35947  0  0.994705  0  0  0.29046  0.342287  0  1.01962  0
H  H37  1  0.15711048  0.24889250  0.41100839  1  0  0.386611  0  0.931859  0  0  0.349381  0  1.009339  0  0  0.359468  0  0.99471  0  0  0.290449  0.342285  0  1.019626  0
H  H38  1  0.34288817  0.74889275  0.08899138  1  0  0.386603  0  0.931873  0  0  0.349378  0  1.009335  0  0  0.359464  0  0.994707  0  0  0.290461  0.342282  0  1.019622  0
H  H39  1  0.34288732  0.25110914  0.91100863  1  0  0.386618  0  0.931856  0  0  0.349396  0  1.009318  0  0  0.359482  0  0.99469  0  0  0.290449  0.3423  0  1.019606  0
H  H40  1  0.84288866  0.24889265  0.41100857  1  0  0.38661  0  0.931871  0  0  0.349379  0  1.009339  0  0  0.359466  0  0.994709  0  0  0.290455  0.342284  0  1.019625  0
H  H41  1  0.84288770  0.75110857  0.58899098  1  0  0.386604  0  0.931869  0  0  0.34938  0  1.009341  0  0  0.359466  0  0.994713  0  0  0.29044  0.342284  0  1.019628  0
H  H42  1  0.65711141  0.25110921  0.91100871  1  0  0.386605  0  0.931859  0  0  0.349381  0  1.009335  0  0  0.359467  0  0.994708  0  0  0.29044  0.342284  0  1.019624  0
H  H43  1  0.65711225  0.74889193  0.08899147  1  0  0.386614  0  0.931828  0  0  0.349389  0  1.009321  0  0  0.359475  0  0.994693  0  0  0.290463  0.342292  0  1.019608  0
H  H44  1  0.15912046  0.75203868  0.70193087  1  0  0.389253  0  0.921832  0  0  0.351481  0  1.003476  0  0  0.361464  0  0.988897  0  0  0.294583  0.344443  0  1.013748  0
H  H45  1  0.15911980  0.24796225  0.29806832  1  0  0.389345  0  0.921721  0  0  0.351547  0  1.003363  0  0  0.36153  0  0.988785  0  0  0.294616  0.344509  0  1.013635  0
H  H46  1  0.34087885  0.74796255  0.20193146  1  0  0.389263  0  0.92187  0  0  0.351467  0  1.003506  0  0  0.36145  0  0.988928  0  0  0.294567  0.344429  0  1.01378  0
H  H47  1  0.34087917  0.25203845  0.79806927  1  0  0.389241  0  0.92191  0  0  0.351447  0  1.003534  0  0  0.36143  0  0.988955  0  0  0.294555  0.34441  0  1.013807  0
H  H48  1  0.84087912  0.24796239  0.29806850  1  0  0.389293  0  0.921752  0  0  0.351489  0  1.003435  0  0  0.361472  0  0.988857  0  0  0.2946  0.344452  0  1.013707  0
H  H49  1  0.84087977  0.75203883  0.70193105  1  0  0.389324  0  0.921788  0  0  0.351559  0  1.003377  0  0  0.361542  0  0.988798  0  0  0.294611  0.344521  0  1.01365  0
H  H50  1  0.65912073  0.25203852  0.79806863  1  0  0.389235  0  0.921906  0  0  0.35144  0  1.003542  0  0  0.361423  0  0.988963  0  0  0.29455  0.344402  0  1.013815  0
H  H51  1  0.65912040  0.74796173  0.20193082  1  0  0.38931  0  0.921787  0  0  0.351487  0  1.003451  0  0  0.361469  0  0.988874  0  0  0.294581  0.344449  0  1.013724  0
H  H52  1  0.17855206  0.55981494  0.47251247  1  0  0.394511  0  0.913459  0  0  0.35489  0  0.997279  0  0  0.365274  0  0.982156  0  0  0.303067  0.347549  0  1.007966  0
H  H53  1  0.17855205  0.44018599  0.52748745  1  0  0.394548  0  0.913398  0  0  0.354933  0  0.997214  0  0  0.365316  0  0.982092  0  0  0.303081  0.347592  0  1.007901  0
H  H54  1  0.32144778  0.94018644  0.97251277  1  0  0.394532  0  0.913424  0  0  0.354914  0  0.997246  0  0  0.365298  0  0.982124  0  0  0.303071  0.347574  0  1.007932  0
H  H55  1  0.32144779  0.05981368  0.02748795  1  0  0.394524  0  0.913445  0  0  0.354899  0  0.997267  0  0  0.365283  0  0.982145  0  0  0.303084  0.347558  0  1.007954  0
H  H56  1  0.82144891  0.44018613  0.52748762  1  0  0.394575  0  0.913373  0  0  0.354933  0  0.997214  0  0  0.365316  0  0.982093  0  0  0.303066  0.347592  0  1.007901  0
H  H57  1  0.82144753  0.55981420  0.47251192  1  0  0.39455  0  0.913401  0  0  0.354935  0  0.997209  0  0  0.365318  0  0.982087  0  0  0.303077  0.347594  0  1.007895  0
H  H58  1  0.67855180  0.05981375  0.02748805  1  0  0.39454  0  0.913414  0  0  0.354919  0  0.997235  0  0  0.365302  0  0.982113  0  0  0.303083  0.347578  0  1.007922  0
H  H59  1  0.67855178  0.94018563  0.97251214  1  0  0.394533  0  0.91343  0  0  0.354914  0  0.997244  0  0  0.365298  0  0.982122  0  0  0.303072  0.347573  0  1.007931  0
C  C60  1  0.49999888  0.63916436  0.91938027  1  0  0.344841  0  3.693477  0  0  0.321023  0  3.974271  0  0  0.331098  0  3.992227  0  0  0.229746  0.314319  0  3.961956  0
C  C61  1  0.50000070  0.36083318  0.08062344  1  0  0.344825  0  3.693486  0  0  0.321042  0  3.97424  0  0  0.331118  0  3.992194  0  0  0.229735  0.314332  0  3.961929  0
C  C62  1  0.00000086  0.86083346  0.41937927  1  0  0.344885  0  3.693509  0  0  0.321078  0  3.974257  0  0  0.331154  0  3.992212  0  0  0.229756  0.314371  0  3.961944  0
C  C63  1  0.00000064  0.13916652  0.58061983  1  0  0.344872  0  3.69356  0  0  0.321057  0  3.974317  0  0  0.331133  0  3.992273  0  0  0.229717  0.314349  0  3.962002  0
C  C64  1  0.50000023  0.51153263  0.94551298  1  0  -0.187325  0  3.6833  0  0  -0.228737  0  3.929952  0  0  -0.230884  0  3.940977  0  0  -0.149036  -0.227088  0  3.922276  0
C  C65  1  0.49999935  0.48846226  0.05449362  1  0  -0.187175  0  3.682902  0  0  -0.228596  0  3.929563  0  0  -0.23075  0  3.940597  0  0  -0.148887  -0.226932  0  3.921873  0
C  C66  1  0.00000095  0.98846520  0.44550697  1  0  -0.187332  0  3.68316  0  0  -0.228701  0  3.929685  0  0  -0.230852  0  3.940711  0  0  -0.148933  -0.227042  0  3.921995  0
C  C67  1  0.00000055  0.01153389  0.55449069  1  0  -0.187311  0  3.683091  0  0  -0.228686  0  3.929628  0  0  -0.230835  0  3.940651  0  0  -0.14893  -0.227027  0  3.921938  0
C  C68  1  0.49999991  0.84216368  0.44702056  1  0  0.341119  0  3.70754  0  0  0.316054  0  3.990322  0  0  0.32647  0  4.007902  0  0  0.223537  0.309092  0  3.978271  0
C  C69  1  0.50000105  0.15783650  0.55297953  1  0  0.341095  0  3.707663  0  0  0.316055  0  3.990398  0  0  0.32647  0  4.007973  0  0  0.223558  0.309093  0  3.978345  0
C  C70  1  0.99999935  0.65783613  0.94701867  1  0  0.341134  0  3.707635  0  0  0.316018  0  3.99047  0  0  0.326433  0  4.008058  0  0  0.22351  0.309061  0  3.978411  0
C  C71  1  0.00000023  0.34216229  0.05297853  1  0  0.341106  0  3.707715  0  0  0.316027  0  3.990475  0  0  0.326439  0  4.008067  0  0  0.223519  0.309065  0  3.978426  0
C  C72  1  0.50000004  0.93765628  0.52114516  1  0  -0.181798  0  3.684973  0  0  -0.225671  0  3.934141  0  0  -0.22756  0  3.944773  0  0  -0.149834  -0.224059  0  3.926548  0
C  C73  1  0.50000093  0.06234303  0.47885421  1  0  -0.181937  0  3.685047  0  0  -0.225767  0  3.934109  0  0  -0.227639  0  3.944771  0  0  -0.1499  -0.224152  0  3.926512  0
C  C74  1  0.00000031  0.56234486  0.02114405  1  0  -0.18183  0  3.684984  0  0  -0.225649  0  3.934067  0  0  -0.227534  0  3.944682  0  0  -0.149812  -0.224038  0  3.926473  0
C  C75  1  0.99999926  0.43765533  0.97885459  1  0  -0.181998  0  3.684935  0  0  -0.225734  0  3.933994  0  0  -0.227645  0  3.944621  0  0  -0.149884  -0.224122  0  3.926401  0
N  N76  1  0.49999987  0.72544996  0.46750428  1  0  -0.342056  0  2.958507  0  0  -0.303089  0  3.236773  0  0  -0.31685  0  3.253853  0  0  -0.237404  -0.293713  0  3.225089  0
N  N77  1  0.50000109  0.27455023  0.53249581  1  0  -0.342001  0  2.958454  0  0  -0.303049  0  3.236717  0  0  -0.31681  0  3.253799  0  0  -0.23739  -0.293674  0  3.225034  0
N  N78  1  0.99999943  0.77454986  0.96750316  1  0  -0.341982  0  2.958399  0  0  -0.302994  0  3.236676  0  0  -0.316757  0  3.253757  0  0  -0.237363  -0.293621  0  3.224991  0
N  N79  1  0.99999962  0.22544965  0.03249575  1  0  -0.34205  0  2.958594  0  0  -0.303086  0  3.236875  0  0  -0.316847  0  3.253955  0  0  -0.237401  -0.293709  0  3.225193  0
N  N80  1  0.49999976  0.67031131  0.38145548  1  0  -0.111875  0  3.050871  0  0  -0.085618  0  3.333352  0  0  -0.087404  0  3.349212  0  0  -0.114109  -0.08392  0  3.322392  0
N  N81  1  0.49999982  0.32968976  0.61854533  1  0  -0.111863  0  3.050842  0  0  -0.085608  0  3.33332  0  0  -0.087395  0  3.349184  0  0  -0.114119  -0.083909  0  3.322359  0
N  N82  1  0.99999937  0.82969023  0.88145438  1  0  -0.111912  0  3.050838  0  0  -0.085658  0  3.333318  0  0  -0.087448  0  3.349186  0  0  -0.114139  -0.08396  0  3.322357  0
N  N83  1  0.00000020  0.17031084  0.11854427  1  0  -0.111804  0  3.050809  0  0  -0.085528  0  3.333266  0  0  -0.087317  0  3.349129  0  0  -0.114071  -0.083834  0  3.322314  0
N  N84  1  0.49999973  0.74940963  0.31149896  1  0  -0.131173  0  3.107157  0  0  -0.090617  0  3.368285  0  0  -0.095072  0  3.381687  0  0  -0.093194  -0.08745  0  3.359279  0
N  N85  1  0.49999984  0.25059144  0.68850113  1  0  -0.131189  0  3.107262  0  0  -0.090624  0  3.368404  0  0  -0.095079  0  3.381806  0  0  -0.09317  -0.087457  0  3.359396  0
N  N86  1  0.99999926  0.75059187  0.81149855  1  0  -0.131151  0  3.107282  0  0  -0.090585  0  3.368422  0  0  -0.095039  0  3.381825  0  0  -0.093155  -0.087417  0  3.359414  0
N  N87  1  0.00000031  0.24940920  0.18850082  1  0  -0.131204  0  3.107221  0  0  -0.090666  0  3.368348  0  0  -0.09512  0  3.381749  0  0  -0.093175  -0.087497  0  3.359342  0
N  N88  1  0.49999983  0.85887062  0.35070351  1  0  -0.360219  0  3.074479  0  0  -0.304429  0  3.32154  0  0  -0.318804  0  3.336103  0  0  -0.220378  -0.294704  0  3.311816  0
N  N89  1  0.49999975  0.14113045  0.64929586  1  0  -0.360197  0  3.074588  0  0  -0.304444  0  3.321658  0  0  -0.318817  0  3.336222  0  0  -0.220402  -0.294719  0  3.311932  0
N  N90  1  0.00000116  0.64112981  0.85070279  1  0  -0.360258  0  3.074691  0  0  -0.304482  0  3.321781  0  0  -0.318857  0  3.336347  0  0  -0.220406  -0.294759  0  3.312055  0
N  N91  1  0.00000033  0.35887016  0.14929559  1  0  -0.360216  0  3.074541  0  0  -0.304446  0  3.321634  0  0  -0.318822  0  3.336198  0  0  -0.2204  -0.294722  0  3.31191  0
N  N92  1  0.49999899  0.72891923  0.98327131  1  0  -0.347486  0  3.076934  0  0  -0.292675  0  3.324057  0  0  -0.306683  0  3.338717  0  0  -0.2154  -0.283189  0  3.314223  0
N  N93  1  0.50000059  0.27108007  0.01672950  1  0  -0.347721  0  3.076766  0  0  -0.292955  0  3.32392  0  0  -0.306967  0  3.338584  0  0  -0.215561  -0.283464  0  3.314083  0
N  N94  1  0.00000087  0.77107862  0.48327317  1  0  -0.347493  0  3.076848  0  0  -0.292688  0  3.323959  0  0  -0.306698  0  3.338622  0  0  -0.215369  -0.283202  0  3.314124  0
N  N95  1  0.00000062  0.22892136  0.51672593  1  0  -0.347473  0  3.076744  0  0  -0.292674  0  3.323856  0  0  -0.306681  0  3.338509  0  0  -0.215318  -0.283188  0  3.314022  0
N  N96  1  0.50000038  0.82847015  0.92981127  1  0  -0.144252  0  3.1133  0  0  -0.104561  0  3.37125  0  0  -0.109194  0  3.383468  0  0  -0.09615  -0.101229  0  3.363077  0
N  N97  1  0.50000059  0.17152738  0.07018955  1  0  -0.143911  0  3.11289  0  0  -0.104163  0  3.37078  0  0  -0.108794  0  3.382997  0  0  -0.09602  -0.100832  0  3.362607  0
N  N98  1  0.99999885  0.67152877  0.42981119  1  0  -0.144218  0  3.113274  0  0  -0.104523  0  3.371208  0  0  -0.109157  0  3.383426  0  0  -0.096187  -0.101191  0  3.363035  0
N  N99  1  0.00000073  0.32847231  0.57018818  1  0  -0.144232  0  3.113165  0  0  -0.104522  0  3.37108  0  0  -0.109155  0  3.383297  0  0  -0.096224  -0.10119  0  3.362907  0
N  N100  1  0.50000027  0.79972412  0.83712136  1  0  -0.100863  0  3.079932  0  0  -0.066831  0  3.349532  0  0  -0.068361  0  3.362234  0  0  -0.079767  -0.065413  0  3.340881  0
N  N101  1  0.50000070  0.20027253  0.16288017  1  0  -0.100873  0  3.079837  0  0  -0.066856  0  3.349437  0  0  -0.068385  0  3.362136  0  0  -0.079704  -0.065437  0  3.34079  0
N  N102  1  0.00000069  0.70027630  0.33712103  1  0  -0.100845  0  3.079956  0  0  -0.066806  0  3.349542  0  0  -0.068336  0  3.362243  0  0  -0.079742  -0.065387  0  3.340893  0
N  N103  1  0.00000080  0.29972456  0.66287879  1  0  -0.100854  0  3.079958  0  0  -0.066817  0  3.349541  0  0  -0.068348  0  3.362242  0  0  -0.079706  -0.065398  0  3.34089  0
N  N104  1  0.49999881  0.68171797  0.82800645  1  0  -0.320951  0  2.932206  0  0  -0.286841  0  3.210063  0  0  -0.30024  0  3.226399  0  0  -0.235229  -0.277694  0  3.198892  0
N  N105  1  0.50000077  0.31827781  0.17199436  1  0  -0.32107  0  2.932345  0  0  -0.287008  0  3.210274  0  0  -0.300407  0  3.226607  0  0  -0.235294  -0.277863  0  3.199107  0
N  N106  1  0.00000074  0.81828069  0.32800761  1  0  -0.321009  0  2.93248  0  0  -0.286924  0  3.210357  0  0  -0.300322  0  3.226691  0  0  -0.235254  -0.277779  0  3.199189  0
N  N107  1  0.00000075  0.18172017  0.67199150  1  0  -0.32099  0  2.932529  0  0  -0.28691  0  3.21042  0  0  -0.300308  0  3.226755  0  0  -0.235255  -0.277765  0  3.199249  0
O  O108  1  0.76134155  0.48659675  0.74437435  1  0  -0.863661  0  1.906186  0  0  -0.810097  0  2.110839  0  0  -0.827824  0  2.07977  0  0  -0.628411  -0.797458  0  2.132589  0
O  O109  1  0.76134109  0.51340443  0.25562588  1  0  -0.863677  0  1.906161  0  0  -0.810113  0  2.110815  0  0  -0.82784  0  2.079745  0  0  -0.628423  -0.797475  0  2.132564  0
O  O110  1  0.73865818  0.01340413  0.24437480  1  0  -0.863653  0  1.90615  0  0  -0.810087  0  2.110812  0  0  -0.827814  0  2.079738  0  0  -0.628409  -0.797448  0  2.132561  0
O  O111  1  0.73865919  0.98659616  0.75562470  1  0  -0.863662  0  1.906157  0  0  -0.810086  0  2.11081  0  0  -0.827812  0  2.079739  0  0  -0.628405  -0.797447  0  2.13256  0
O  O112  1  0.23865941  0.51340432  0.25562574  1  0  -0.863696  0  1.906189  0  0  -0.810127  0  2.110842  0  0  -0.827854  0  2.079773  0  0  -0.628426  -0.797488  0  2.132591  0
O  O113  1  0.23865849  0.48659664  0.74437421  1  0  -0.86367  0  1.906183  0  0  -0.810105  0  2.110834  0  0  -0.827832  0  2.079764  0  0  -0.628417  -0.797466  0  2.132583  0
O  O114  1  0.26134139  0.98659694  0.75562602  1  0  -0.863674  0  1.906206  0  0  -0.810098  0  2.110847  0  0  -0.827826  0  2.079775  0  0  -0.628421  -0.79746  0  2.132595  0
O  O115  1  0.26134178  0.01340403  0.24437467  1  0  -0.863671  0  1.906088  0  0  -0.810086  0  2.110797  0  0  -0.827812  0  2.079724  0  0  -0.628406  -0.797447  0  2.132546  0
O  O116  1  0.24008627  0.73950228  0.64518137  1  0  -0.859887  0  1.900732  0  0  -0.804133  0  2.104389  0  0  -0.821918  0  2.073244  0  0  -0.631905  -0.791429  0  2.126126  0
O  O117  1  0.24008435  0.26049868  0.35481786  1  0  -0.86  0  1.90065  0  0  -0.804184  0  2.104402  0  0  -0.821968  0  2.073252  0  0  -0.631927  -0.791479  0  2.12614  0
O  O118  1  0.25991292  0.76049892  0.14518119  1  0  -0.859898  0  1.900783  0  0  -0.804115  0  2.104475  0  0  -0.8219  0  2.073332  0  0  -0.631887  -0.79141  0  2.126211  0
O  O119  1  0.25991474  0.23950117  0.85481805  1  0  -0.859892  0  1.900822  0  0  -0.804106  0  2.104461  0  0  -0.82189  0  2.073317  0  0  -0.631863  -0.791402  0  2.126198  0
O  O120  1  0.75991469  0.26049879  0.35481800  1  0  -0.859944  0  1.900653  0  0  -0.804117  0  2.104436  0  0  -0.821901  0  2.073289  0  0  -0.631913  -0.791413  0  2.126171  0
O  O121  1  0.75991383  0.73950239  0.64518150  1  0  -0.859964  0  1.900744  0  0  -0.804217  0  2.104353  0  0  -0.822  0  2.073208  0  0  -0.631915  -0.791512  0  2.126091  0
O  O122  1  0.74008526  0.23950127  0.85481818  1  0  -0.859874  0  1.9008  0  0  -0.804085  0  2.104458  0  0  -0.82187  0  2.073317  0  0  -0.631852  -0.791379  0  2.126197  0
O  O123  1  0.74008762  0.76049814  0.14518132  1  0  -0.859963  0  1.900642  0  0  -0.804118  0  2.104435  0  0  -0.821903  0  2.07329  0  0  -0.631899  -0.791411  0  2.126173  0
O  O124  1  0.26405028  0.50000049  0.49999962  1  0  -0.882174  0  1.944543  0  0  -0.818644  0  2.15629  0  0  -0.837801  0  2.124767  0  0  -0.614792  -0.804934  0  2.178278  0
O  O125  1  0.23594951  0.00000005  0.00000006  1  0  -0.882186  0  1.944553  0  0  -0.818646  0  2.156305  0  0  -0.837804  0  2.124782  0  0  -0.614799  -0.804937  0  2.178291  0
O  O126  1  0.73595069  0.50000059  0.49999975  1  0  -0.882262  0  1.944465  0  0  -0.818705  0  2.156268  0  0  -0.837861  0  2.124748  0  0  -0.614788  -0.804996  0  2.178256  0
O  O127  1  0.76404955  0.00000044  0.99999912  1  0  -0.882212  0  1.944544  0  0  -0.818671  0  2.156306  0  0  -0.837829  0  2.124785  0  0  -0.614797  -0.804962  0  2.178295  0
