# generated using pymatgen
data_CdH12C17N2O5
_symmetry_space_group_name_H-M   'P 1'
_cell_length_a   8.91084461
_cell_length_b   12.23845878
_cell_length_c   16.11740768
_cell_angle_alpha   85.58236331
_cell_angle_beta   73.96178139
_cell_angle_gamma   73.85322340
_symmetry_Int_Tables_number   1
_chemical_formula_structural   CdH12C17N2O5
_chemical_formula_sum   'Cd4 H48 C68 N8 O20'
_cell_volume   1622.63306917
_cell_formula_units_Z   4
loop_
 _symmetry_equiv_pos_site_id
 _symmetry_equiv_pos_as_xyz
  1  'x, y, z'
loop_
 _atom_site_type_symbol
 _atom_site_label
 _atom_site_symmetry_multiplicity
 _atom_site_fract_x
 _atom_site_fract_y
 _atom_site_fract_z
 _atom_site_occupancy
 _atom_site_hle17_bader_spin_density
 _atom_site_hle17_ddec_charge
 _atom_site_hle17_ddec_spin_density
 _atom_site_hle17_ddec_sum_bond_order
 _atom_site_hle17_magmom
 _atom_site_hse06_10hf_bader_spin_density
 _atom_site_hse06_10hf_ddec_charge
 _atom_site_hse06_10hf_ddec_spin_density
 _atom_site_hse06_10hf_ddec_sum_bond_order
 _atom_site_hse06_10hf_magmom
 _atom_site_hse06_bader_spin_density
 _atom_site_hse06_ddec_charge
 _atom_site_hse06_ddec_spin_density
 _atom_site_hse06_ddec_sum_bond_order
 _atom_site_hse06_magmom
 _atom_site_pbe_bader_spin_density
 _atom_site_pbe_cm5_charge
 _atom_site_pbe_ddec_charge
 _atom_site_pbe_ddec_spin_density
 _atom_site_pbe_ddec_sum_bond_order
 _atom_site_pbe_magmom
Cd  Cd0  1  0.01489104  0.74409506  0.39093990  1  0  1.194014  0  1.607369  0  0  1.007769  0  2.054129  0  0  1.065744  0  1.998355  0  0  0.780633  0.966389  0  2.092339  0
Cd  Cd1  1  0.59406243  0.75541581  0.39073887  1  0  1.193844  0  1.607813  0  0  1.007427  0  2.054596  0  0  1.065406  0  1.99885  0  0  0.780644  0.966042  0  2.092797  0
Cd  Cd2  1  0.98510392  0.25590771  0.60906097  1  0  1.193978  0  1.607383  0  0  1.007744  0  2.054131  0  0  1.065719  0  1.998354  0  0  0.780599  0.966363  0  2.092341  0
Cd  Cd3  1  0.40593475  0.24458530  0.60925570  1  0  1.193827  0  1.607848  0  0  1.007408  0  2.054628  0  0  1.06539  0  1.998881  0  0  0.780621  0.966021  0  2.092832  0
H  H4  1  0.19931825  0.50829420  0.42788996  1  0  0.434844  0  0.807886  0  0  0.420965  0  0.855138  0  0  0.428781  0  0.846647  0  0  0.325526  0.415321  0  0.861403  0
H  H5  1  0.37399369  0.99144987  0.42778207  1  0  0.434335  0  0.808314  0  0  0.420405  0  0.855637  0  0  0.428225  0  0.847171  0  0  0.325732  0.414764  0  0.861866  0
H  H6  1  0.80068212  0.49170514  0.57210436  1  0  0.434839  0  0.807919  0  0  0.420973  0  0.85513  0  0  0.428783  0  0.846654  0  0  0.325601  0.415336  0  0.861379  0
H  H7  1  0.62598717  0.00854309  0.57222443  1  0  0.434323  0  0.808346  0  0  0.420397  0  0.855671  0  0  0.428218  0  0.847206  0  0  0.325735  0.414755  0  0.861904  0
H  H8  1  0.29562816  0.59701624  0.43882360  1  0  0.438372  0  0.864553  0  0  0.40285  0  0.935788  0  0  0.414869  0  0.918404  0  0  0.288976  0.394348  0  0.948056  0
H  H9  1  0.26593541  0.90321496  0.43875393  1  0  0.437675  0  0.865782  0  0  0.402628  0  0.936283  0  0  0.414587  0  0.918976  0  0  0.288416  0.394147  0  0.948539  0
H  H10  1  0.70438121  0.40298197  0.56117376  1  0  0.438358  0  0.864594  0  0  0.402829  0  0.935833  0  0  0.414849  0  0.918449  0  0  0.288969  0.394325  0  0.948105  0
H  H11  1  0.73404938  0.09677961  0.56125046  1  0  0.437818  0  0.865583  0  0  0.402765  0  0.936085  0  0  0.414723  0  0.918781  0  0  0.288447  0.39427  0  0.94835  0
H  H12  1  0.69313172  0.81939027  0.20190075  1  0  0.291622  0  0.962974  0  0  0.269039  0  1.032938  0  0  0.278231  0  1.025085  0  0  0.309765  0.262615  0  1.038413  0
H  H13  1  0.10509557  0.68045307  0.20202009  1  0  0.293471  0  0.96241  0  0  0.270241  0  1.03295  0  0  0.279537  0  1.024934  0  0  0.310198  0.263731  0  1.038543  0
H  H14  1  0.30686504  0.18059310  0.79809781  1  0  0.291662  0  0.962812  0  0  0.269041  0  1.03285  0  0  0.278235  0  1.024997  0  0  0.309685  0.262611  0  1.03833  0
H  H15  1  0.89490081  0.31955475  0.79797769  1  0  0.293434  0  0.962413  0  0  0.270226  0  1.032931  0  0  0.279521  0  1.024917  0  0  0.310177  0.263718  0  1.038527  0
H  H16  1  0.17477324  0.97839065  0.56423162  1  0  0.092016  0  0.978604  0  0  0.09855  0  1.050404  0  0  0.102692  0  1.046096  0  0  0.103421  0.095567  0  1.053502  0
H  H17  1  0.26090238  0.52211420  0.56445789  1  0  0.092985  0  0.977325  0  0  0.09956  0  1.048966  0  0  0.103611  0  1.04475  0  0  0.103602  0.096644  0  1.052003  0
H  H18  1  0.82521008  0.02161237  0.43577375  1  0  0.091949  0  0.978497  0  0  0.098463  0  1.050307  0  0  0.102603  0  1.046006  0  0  0.103457  0.095482  0  1.053405  0
H  H19  1  0.73909517  0.47789277  0.43553784  1  0  0.092998  0  0.97741  0  0  0.099536  0  1.049076  0  0  0.103586  0  1.04486  0  0  0.103589  0.096621  0  1.052113  0
H  H20  1  0.08012450  0.95648376  0.83826993  1  0  0.095604  0  0.966887  0  0  0.103351  0  1.034865  0  0  0.106768  0  1.03207  0  0  0.103868  0.100827  0  1.036999  0
H  H21  1  0.08192488  0.54374249  0.83847518  1  0  0.095822  0  0.96695  0  0  0.103683  0  1.034673  0  0  0.107052  0  1.031894  0  0  0.10401  0.101222  0  1.036759  0
H  H22  1  0.91985956  0.04351674  0.16173321  1  0  0.095561  0  0.966882  0  0  0.103304  0  1.034904  0  0  0.106714  0  1.032116  0  0  0.103863  0.100778  0  1.037043  0
H  H23  1  0.91808857  0.45626232  0.16152407  1  0  0.095799  0  0.966934  0  0  0.103649  0  1.034668  0  0  0.107023  0  1.031883  0  0  0.103995  0.101184  0  1.036752  0
H  H24  1  0.86365986  0.77588356  0.70313398  1  0  0.106208  0  0.938618  0  0  0.116773  0  0.99888  0  0  0.120627  0  0.995489  0  0  0.107251  0.113967  0  1.001392  0
H  H25  1  0.43305249  0.72463084  0.70333493  1  0  0.108492  0  0.940737  0  0  0.11837  0  1.001398  0  0  0.122307  0  0.997917  0  0  0.107994  0.115534  0  1.003922  0
H  H26  1  0.13633625  0.22410905  0.29686795  1  0  0.10613  0  0.938675  0  0  0.116758  0  0.998866  0  0  0.12061  0  0.995475  0  0  0.10729  0.113939  0  1.001389  0
H  H27  1  0.56694752  0.27538372  0.29665585  1  0  0.108348  0  0.940902  0  0  0.118246  0  1.001545  0  0  0.122183  0  0.998063  0  0  0.107974  0.115411  0  1.004065  0
H  H28  1  0.90686931  0.95023093  0.94127381  1  0  0.085735  0  0.967748  0  0  0.098271  0  1.027648  0  0  0.100637  0  1.027058  0  0  0.09924  0.096583  0  1.02813  0
H  H29  1  0.15162373  0.55017247  0.94151518  1  0  0.085621  0  0.967163  0  0  0.098118  0  1.027074  0  0  0.10058  0  1.026347  0  0  0.099249  0.096369  0  1.027652  0
H  H30  1  0.09314714  0.04975431  0.05873360  1  0  0.085622  0  0.967818  0  0  0.098149  0  1.027746  0  0  0.100518  0  1.027159  0  0  0.099197  0.096464  0  1.028227  0
H  H31  1  0.84841380  0.44982331  0.05848059  1  0  0.085529  0  0.967414  0  0  0.098054  0  1.027255  0  0  0.100513  0  1.02653  0  0  0.099237  0.096305  0  1.027834  0
H  H32  1  0.78130834  0.88469156  0.08198759  1  0  0.101978  0  0.962385  0  0  0.113093  0  1.023075  0  0  0.116531  0  1.020653  0  0  0.10385  0.110541  0  1.024956  0
H  H33  1  0.13646582  0.61564320  0.08220154  1  0  0.102052  0  0.96338  0  0  0.113141  0  1.024023  0  0  0.116633  0  1.02151  0  0  0.103771  0.110599  0  1.025918  0
H  H34  1  0.21871513  0.11528091  0.91801592  1  0  0.101947  0  0.962358  0  0  0.112982  0  1.023168  0  0  0.116477  0  1.020668  0  0  0.103766  0.11043  0  1.025056  0
H  H35  1  0.86355584  0.38435636  0.91779595  1  0  0.102113  0  0.963224  0  0  0.113139  0  1.023965  0  0  0.116663  0  1.021411  0  0  0.103699  0.110602  0  1.025848  0
H  H36  1  0.68309006  0.61825664  0.96108247  1  0  0.093847  0  0.944797  0  0  0.107898  0  1.000104  0  0  0.110677  0  0.999274  0  0  0.102884  0.105899  0  1.000786  0
H  H37  1  0.35631733  0.88179599  0.96138276  1  0  0.094164  0  0.943131  0  0  0.107758  0  0.999057  0  0  0.110533  0  0.998198  0  0  0.102978  0.105758  0  0.99976  0
H  H38  1  0.31692064  0.38173060  0.03891373  1  0  0.093877  0  0.944858  0  0  0.107945  0  1.000134  0  0  0.110725  0  0.999304  0  0  0.102898  0.105946  0  1.000814  0
H  H39  1  0.64366171  0.11822995  0.03861809  1  0  0.094128  0  0.943306  0  0  0.10767  0  0.999282  0  0  0.110446  0  0.998423  0  0  0.102946  0.105674  0  0.999976  0
H  H40  1  0.81389402  0.68269889  0.81941741  1  0  0.098551  0  0.952234  0  0  0.110473  0  1.009533  0  0  0.11355  0  1.007829  0  0  0.103961  0.108259  0  1.010865  0
H  H41  1  0.36708569  0.81747934  0.81970012  1  0  0.098333  0  0.952127  0  0  0.10976  0  1.009853  0  0  0.112887  0  1.008076  0  0  0.103717  0.107498  0  1.011256  0
H  H42  1  0.18610956  0.31729440  0.18058153  1  0  0.098527  0  0.952315  0  0  0.110451  0  1.009622  0  0  0.113526  0  1.007919  0  0  0.103959  0.108238  0  1.010954  0
H  H43  1  0.63289415  0.18254236  0.18030135  1  0  0.0983  0  0.952266  0  0  0.109812  0  1.009899  0  0  0.112942  0  1.008119  0  0  0.103734  0.107549  0  1.011302  0
H  H44  1  0.53005941  0.57229809  0.10378031  1  0  0.12774  0  0.950718  0  0  0.140444  0  1.003979  0  0  0.143338  0  1.003906  0  0  0.110352  0.1384  0  1.004161  0
H  H45  1  0.36613969  0.92774803  0.10435578  1  0  0.127138  0  0.951346  0  0  0.13982  0  1.004623  0  0  0.142661  0  1.004603  0  0  0.109799  0.137811  0  1.004752  0
H  H46  1  0.46994060  0.42768768  0.89622119  1  0  0.127651  0  0.950811  0  0  0.140333  0  1.004096  0  0  0.143226  0  1.004027  0  0  0.11035  0.138289  0  1.004278  0
H  H47  1  0.63387974  0.07225318  0.89564801  1  0  0.127149  0  0.951371  0  0  0.139855  0  1.004599  0  0  0.142693  0  1.004579  0  0  0.10983  0.137847  0  1.004729  0
H  H48  1  0.44566945  0.57812914  0.28108163  1  0  0.108591  0  0.947109  0  0  0.119824  0  1.006536  0  0  0.122018  0  1.004448  0  0  0.120027  0.118131  0  1.008152  0
H  H49  1  0.27309686  0.92157310  0.28163390  1  0  0.108848  0  0.947364  0  0  0.119281  0  1.007429  0  0  0.121475  0  1.005348  0  0  0.120527  0.11764  0  1.008931  0
H  H50  1  0.55432475  0.42186777  0.71891728  1  0  0.108656  0  0.946953  0  0  0.119838  0  1.006447  0  0  0.122042  0  1.004347  0  0  0.120043  0.118143  0  1.008064  0
H  H51  1  0.72690425  0.07842773  0.71837313  1  0  0.108811  0  0.947445  0  0  0.119236  0  1.00754  0  0  0.121437  0  1.005443  0  0  0.120527  0.117595  0  1.009045  0
C  C52  1  0.01183645  0.83130091  0.54245053  1  0  0.640273  0  3.907226  0  0  0.589195  0  4.195741  0  0  0.623729  0  4.191191  0  0  0.19768  0.565805  0  4.197967  0
C  C53  1  0.44604043  0.66881962  0.54264155  1  0  0.643004  0  3.904351  0  0  0.591939  0  4.192699  0  0  0.626495  0  4.188091  0  0  0.199008  0.56852  0  4.194964  0
C  C54  1  0.98815454  0.16869522  0.45755068  1  0  0.640189  0  3.907216  0  0  0.589133  0  4.19571  0  0  0.623664  0  4.191161  0  0  0.197648  0.565748  0  4.197932  0
C  C55  1  0.55397005  0.33117605  0.45735439  1  0  0.64303  0  3.904179  0  0  0.591927  0  4.192587  0  0  0.62648  0  4.187981  0  0  0.198982  0.568508  0  4.194849  0
C  C56  1  0.02249942  0.86930605  0.62588460  1  0  -0.061874  0  3.766558  0  0  -0.036155  0  4.00609  0  0  -0.046037  0  4.029982  0  0  -0.017388  -0.029987  0  3.990198  0
C  C57  1  0.35165721  0.63109496  0.62610335  1  0  -0.065645  0  3.768959  0  0  -0.040186  0  4.008834  0  0  -0.050091  0  4.032684  0  0  -0.019478  -0.033937  0  3.992891  0
C  C58  1  0.97749320  0.13069593  0.37411653  1  0  -0.061666  0  3.7667  0  0  -0.035981  0  4.006238  0  0  -0.045845  0  4.030103  0  0  -0.017286  -0.029832  0  3.990364  0
C  C59  1  0.64834233  0.36891196  0.37389275  1  0  -0.065643  0  3.768833  0  0  -0.040178  0  4.008686  0  0  -0.050082  0  4.032537  0  0  -0.019418  -0.03393  0  3.992741  0
C  C60  1  0.11650607  0.94387970  0.62472513  1  0  -0.058549  0  3.713368  0  0  -0.10052  0  3.968383  0  0  -0.096771  0  3.98639  0  0  -0.079757  -0.102617  0  3.956103  0
C  C61  1  0.25875505  0.55657439  0.62495132  1  0  -0.058919  0  3.714042  0  0  -0.100448  0  3.969569  0  0  -0.096613  0  3.987627  0  0  -0.079208  -0.102617  0  3.957214  0
C  C62  1  0.88348161  0.05612071  0.37527794  1  0  -0.058465  0  3.713081  0  0  -0.100387  0  3.968143  0  0  -0.09664  0  3.986141  0  0  -0.079775  -0.102482  0  3.955869  0
C  C63  1  0.74124951  0.44343151  0.37504710  1  0  -0.059074  0  3.714122  0  0  -0.100549  0  3.969613  0  0  -0.096712  0  3.987668  0  0  -0.079233  -0.102726  0  3.957272  0
C  C64  1  0.13439043  0.97553170  0.70189465  1  0  -0.08461  0  3.802828  0  0  -0.057032  0  4.039221  0  0  -0.067613  0  4.063709  0  0  -0.024985  -0.050233  0  4.022708  0
C  C65  1  0.16376493  0.52484114  0.70209195  1  0  -0.084116  0  3.803021  0  0  -0.058196  0  4.04151  0  0  -0.068779  0  4.065931  0  0  -0.025273  -0.051392  0  4.025045  0
C  C66  1  0.86559361  0.02446966  0.29810707  1  0  -0.0847  0  3.802996  0  0  -0.05716  0  4.039424  0  0  -0.067747  0  4.06391  0  0  -0.025033  -0.050359  0  4.022904  0
C  C67  1  0.83623983  0.47516309  0.29790568  1  0  -0.083885  0  3.8029  0  0  -0.057981  0  4.041406  0  0  -0.068563  0  4.065829  0  0  -0.02525  -0.051181  0  4.024941  0
C  C68  1  0.05967613  0.93168628  0.77986860  1  0  -0.082099  0  3.695043  0  0  -0.119463  0  3.947706  0  0  -0.117602  0  3.967232  0  0  -0.07255  -0.120274  0  3.934345  0
C  C69  1  0.16071397  0.56857811  0.78005932  1  0  -0.083806  0  3.69492  0  0  -0.120406  0  3.947771  0  0  -0.118507  0  3.967331  0  0  -0.073602  -0.121273  0  3.934372  0
C  C70  1  0.94031497  0.06830982  0.22013483  1  0  -0.081992  0  3.695154  0  0  -0.119422  0  3.947842  0  0  -0.117554  0  3.967378  0  0  -0.072538  -0.120239  0  3.934498  0
C  C71  1  0.83929479  0.43142942  0.21993557  1  0  -0.083942  0  3.694958  0  0  -0.12053  0  3.947804  0  0  -0.118639  0  3.96737  0  0  -0.073597  -0.12139  0  3.934402  0
C  C72  1  0.95822460  0.86072605  0.78339288  1  0  0.036443  0  3.777896  0  0  0.056227  0  4.011507  0  0  0.053226  0  4.036023  0  0  -0.005957  0.057977  0  3.994847  0
C  C73  1  0.25842538  0.63968869  0.78360260  1  0  0.037382  0  3.775971  0  0  0.057059  0  4.009906  0  0  0.054068  0  4.034397  0  0  -0.004309  0.058799  0  3.993293  0
C  C74  1  0.04176877  0.13926914  0.21661091  1  0  0.036438  0  3.77791  0  0  0.056353  0  4.011421  0  0  0.053348  0  4.035941  0  0  -0.005973  0.0581  0  3.994754  0
C  C75  1  0.74158970  0.36031950  0.21639275  1  0  0.037612  0  3.776099  0  0  0.057255  0  4.010032  0  0  0.05427  0  4.03452  0  0  -0.004208  0.058993  0  3.993417  0
C  C76  1  0.94088184  0.83033737  0.70486120  1  0  -0.078517  0  3.645556  0  0  -0.114367  0  3.894696  0  0  -0.112284  0  3.912912  0  0  -0.068264  -0.115351  0  3.882244  0
C  C77  1  0.35413440  0.67016977  0.70506740  1  0  -0.079058  0  3.647544  0  0  -0.114021  0  3.896319  0  0  -0.112005  0  3.914531  0  0  -0.068117  -0.114972  0  3.883829  0
C  C78  1  0.05911217  0.16965781  0.29514198  1  0  -0.078553  0  3.645828  0  0  -0.11448  0  3.894925  0  0  -0.1124  0  3.913138  0  0  -0.068363  -0.115446  0  3.882484  0
C  C79  1  0.64587222  0.32984461  0.29492384  1  0  -0.078927  0  3.647681  0  0  -0.113912  0  3.896439  0  0  -0.111893  0  3.914643  0  0  -0.068171  -0.114862  0  3.883947  0
C  C80  1  0.22607354  0.06081612  0.70206017  1  0  0.664835  0  3.887395  0  0  0.610085  0  4.184196  0  0  0.645467  0  4.176254  0  0  0.209135  0.586008  0  4.188868  0
C  C81  1  0.07185607  0.43957007  0.70223396  1  0  0.668271  0  3.886397  0  0  0.613876  0  4.183305  0  0  0.649276  0  4.175283  0  0  0.209203  0.589783  0  4.188034  0
C  C82  1  0.77391520  0.93918748  0.29795356  1  0  0.664827  0  3.887425  0  0  0.610149  0  4.184141  0  0  0.645536  0  4.176197  0  0  0.20912  0.586069  0  4.188815  0
C  C83  1  0.92814974  0.56043241  0.29776668  1  0  0.668242  0  3.886375  0  0  0.613773  0  4.183384  0  0  0.649174  0  4.175364  0  0  0.20912  0.589682  0  4.18811  0
C  C84  1  0.87373464  0.82153939  0.86792709  1  0  0.049175  0  3.766776  0  0  0.063506  0  3.994939  0  0  0.064315  0  4.019656  0  0  -0.007191  0.063073  0  3.978165  0
C  C85  1  0.25837065  0.67879931  0.86816463  1  0  0.050395  0  3.767794  0  0  0.063571  0  3.997546  0  0  0.06433  0  4.022377  0  0  -0.00841  0.063169  0  3.980696  0
C  C86  1  0.12625859  0.17845328  0.13207653  1  0  0.049257  0  3.766409  0  0  0.063508  0  3.994627  0  0  0.064317  0  4.019344  0  0  -0.007108  0.063081  0  3.977843  0
C  C87  1  0.74164213  0.32121065  0.13182894  1  0  0.050251  0  3.767954  0  0  0.063517  0  3.997581  0  0  0.064276  0  4.022411  0  0  -0.008411  0.063118  0  3.980727  0
C  C88  1  0.86051961  0.87614934  0.94444092  1  0  -0.103766  0  3.763946  0  0  -0.123275  0  4.015306  0  0  -0.126291  0  4.037382  0  0  -0.089244  -0.121241  0  4.00026  0
C  C89  1  0.19493847  0.62418818  0.94468011  1  0  -0.103646  0  3.764819  0  0  -0.122734  0  4.016396  0  0  -0.12579  0  4.038516  0  0  -0.088709  -0.120681  0  4.00135  0
C  C90  1  0.13949446  0.12384026  0.05556045  1  0  -0.10358  0  3.764026  0  0  -0.123039  0  4.015328  0  0  -0.126062  0  4.037427  0  0  -0.089197  -0.121006  0  4.000279  0
C  C91  1  0.80508206  0.37582067  0.05531775  1  0  -0.103499  0  3.76486  0  0  -0.122615  0  4.016355  0  0  -0.125667  0  4.038472  0  0  -0.088705  -0.120561  0  4.001305  0
C  C92  1  0.78778890  0.83908086  0.02500773  1  0  -0.108861  0  3.743656  0  0  -0.132561  0  3.995192  0  0  -0.13386  0  4.014729  0  0  -0.094717  -0.131405  0  3.98185  0
C  C93  1  0.18708449  0.66123235  0.02524478  1  0  -0.111341  0  3.744263  0  0  -0.134921  0  3.996069  0  0  -0.136273  0  4.015589  0  0  -0.095798  -0.133768  0  3.982752  0
C  C94  1  0.21222495  0.16089864  0.97499371  1  0  -0.108909  0  3.743751  0  0  -0.132573  0  3.995293  0  0  -0.133911  0  4.014799  0  0  -0.094723  -0.131421  0  3.981964  0
C  C95  1  0.81293054  0.33877663  0.97475502  1  0  -0.11143  0  3.743936  0  0  -0.134985  0  3.995773  0  0  -0.136357  0  4.015276  0  0  -0.09576  -0.133832  0  3.982459  0
C  C96  1  0.72340006  0.74473863  0.03318753  1  0  0.021243  0  3.826866  0  0  0.038194  0  4.065611  0  0  0.036758  0  4.088548  0  0  -0.010629  0.039001  0  4.049962  0
C  C97  1  0.24346554  0.75547138  0.03345056  1  0  0.023631  0  3.824564  0  0  0.040107  0  4.063459  0  0  0.038783  0  4.086271  0  0  -0.009553  0.040841  0  4.047913  0
C  C98  1  0.27660597  0.25524952  0.96681301  1  0  0.021238  0  3.826891  0  0  0.038184  0  4.065601  0  0  0.03675  0  4.088547  0  0  -0.010484  0.03899  0  4.049954  0
C  C99  1  0.75653946  0.24454209  0.96654841  1  0  0.023956  0  3.824079  0  0  0.040391  0  4.062967  0  0  0.03906  0  4.085783  0  0  -0.009289  0.041123  0  4.047423  0
C  C100  1  0.73279610  0.69105143  0.95713662  1  0  -0.094178  0  3.73625  0  0  -0.115473  0  3.98517  0  0  -0.117096  0  4.005924  0  0  -0.087471  -0.114177  0  3.970983  0
C  C101  1  0.31036552  0.80910864  0.95742788  1  0  -0.095639  0  3.733454  0  0  -0.116559  0  3.98254  0  0  -0.118204  0  4.003269  0  0  -0.08761  -0.115239  0  3.968352  0
C  C102  1  0.26720693  0.30893681  0.04286338  1  0  -0.094153  0  3.736581  0  0  -0.115464  0  3.985505  0  0  -0.11709  0  4.006258  0  0  -0.087531  -0.114165  0  3.971313  0
C  C103  1  0.68961700  0.19091221  0.04256889  1  0  -0.095833  0  3.733711  0  0  -0.116733  0  3.982892  0  0  -0.11838  0  4.003624  0  0  -0.087775  -0.115414  0  3.968705  0
C  C104  1  0.80603161  0.72877446  0.87638039  1  0  -0.104752  0  3.734311  0  0  -0.123051  0  3.98229  0  0  -0.126117  0  4.003196  0  0  -0.086233  -0.120994  0  3.96806  0
C  C105  1  0.31789270  0.77142022  0.87665285  1  0  -0.104852  0  3.73388  0  0  -0.122183  0  3.981971  0  0  -0.125273  0  4.002859  0  0  -0.086237  -0.1201  0  3.96774  0
C  C106  1  0.19397399  0.27121791  0.12362033  1  0  -0.104788  0  3.734266  0  0  -0.123097  0  3.982331  0  0  -0.12616  0  4.003238  0  0  -0.08626  -0.12104  0  3.968098  0
C  C107  1  0.68210153  0.22859779  0.12334369  1  0  -0.10475  0  3.734212  0  0  -0.122164  0  3.982218  0  0  -0.125257  0  4.003109  0  0  -0.086223  -0.120082  0  3.967987  0
C  C108  1  0.64972552  0.70479998  0.11814241  1  0  0.169461  0  3.781005  0  0  0.150206  0  4.039925  0  0  0.159332  0  4.059031  0  0  0.100904  0.144457  0  4.026795  0
C  C109  1  0.23225961  0.79520320  0.11845758  1  0  0.169062  0  3.778274  0  0  0.15055  0  4.036006  0  0  0.15953  0  4.055233  0  0  0.101174  0.144863  0  4.022831  0
C  C110  1  0.35026782  0.29518771  0.88185578  1  0  0.169231  0  3.781304  0  0  0.150048  0  4.040135  0  0  0.159167  0  4.059247  0  0  0.100774  0.144293  0  4.027009  0
C  C111  1  0.76773729  0.20480370  0.88154464  1  0  0.168885  0  3.778346  0  0  0.150479  0  4.035971  0  0  0.159474  0  4.055176  0  0  0.101114  0.144792  0  4.022798  0
C  C112  1  0.56045895  0.62430582  0.14469429  1  0  -0.244388  0  3.726586  0  0  -0.263883  0  3.99149  0  0  -0.273963  0  4.011489  0  0  -0.111341  -0.257351  0  3.977909  0
C  C113  1  0.29492355  0.87560785  0.14517366  1  0  -0.240883  0  3.723313  0  0  -0.260527  0  3.987681  0  0  -0.270487  0  4.007676  0  0  -0.110014  -0.254061  0  3.97412  0
C  C114  1  0.43953437  0.37568178  0.85530977  1  0  -0.244057  0  3.726204  0  0  -0.263554  0  3.991074  0  0  -0.273633  0  4.011076  0  0  -0.111282  -0.257022  0  3.977495  0
C  C115  1  0.70507790  0.12439723  0.85482928  1  0  -0.240932  0  3.723339  0  0  -0.260606  0  3.987711  0  0  -0.270568  0  4.007698  0  0  -0.110077  -0.25414  0  3.974151  0
C  C116  1  0.51632817  0.62648593  0.23506251  1  0  0.082712  0  3.714612  0  0  0.03932  0  3.989873  0  0  0.049058  0  4.005688  0  0  0.021212  0.033216  0  3.978743  0
C  C117  1  0.24858027  0.87327152  0.23553690  1  0  0.081772  0  3.712997  0  0  0.03915  0  3.988457  0  0  0.048898  0  4.004215  0  0  0.020668  0.033013  0  3.977417  0
C  C118  1  0.48366004  0.37350775  0.76493878  1  0  0.082612  0  3.714506  0  0  0.039266  0  3.989766  0  0  0.048996  0  4.005576  0  0  0.021157  0.033161  0  3.978641  0
C  C119  1  0.75142152  0.12672852  0.76446506  1  0  0.081903  0  3.712942  0  0  0.039249  0  3.988439  0  0  0.048998  0  4.004196  0  0  0.020711  0.03311  0  3.977402  0
N  N120  1  0.65581835  0.74857467  0.19164391  1  0  -0.208353  0  3.470152  0  0  -0.152207  0  3.702844  0  0  -0.165425  0  3.723053  0  0  -0.283831  -0.143485  0  3.689147  0
N  N121  1  0.15262707  0.75128844  0.19188387  1  0  -0.212053  0  3.47213  0  0  -0.155032  0  3.704303  0  0  -0.168277  0  3.724403  0  0  -0.285482  -0.146243  0  3.690647  0
N  N122  1  0.34418465  0.25141691  0.80835849  1  0  -0.208332  0  3.470301  0  0  -0.152168  0  3.702889  0  0  -0.165388  0  3.723102  0  0  -0.283705  -0.14343  0  3.689178  0
N  N123  1  0.84736712  0.24871771  0.80811781  1  0  -0.211905  0  3.472065  0  0  -0.154935  0  3.704186  0  0  -0.168188  0  3.724285  0  0  -0.285422  -0.146149  0  3.690532  0
N  N124  1  0.57459646  0.70299419  0.26283872  1  0  -0.280141  0  3.193311  0  0  -0.218243  0  3.480611  0  0  -0.237727  0  3.501764  0  0  -0.261146  -0.20484  0  3.46589  0
N  N125  1  0.16253708  0.79673191  0.26316497  1  0  -0.279889  0  3.193927  0  0  -0.218604  0  3.480922  0  0  -0.238096  0  3.502049  0  0  -0.260898  -0.20521  0  3.466222  0
N  N126  1  0.42539829  0.29699848  0.73716223  1  0  -0.280216  0  3.193495  0  0  -0.218322  0  3.480765  0  0  -0.237806  0  3.501919  0  0  -0.26114  -0.204923  0  3.466042  0
N  N127  1  0.83745249  0.20327437  0.73683660  1  0  -0.280029  0  3.193863  0  0  -0.218714  0  3.480852  0  0  -0.238212  0  3.501987  0  0  -0.260978  -0.20532  0  3.466155  0
O  O128  1  0.22366519  0.57948771  0.40606359  1  0  -0.837185  0  1.825358  0  0  -0.780932  0  2.018275  0  0  -0.801843  0  1.987406  0  0  -0.578086  -0.766111  0  2.03975  0
O  O129  1  0.37079791  0.92048113  0.40593744  1  0  -0.835918  0  1.827333  0  0  -0.779739  0  2.019777  0  0  -0.800635  0  1.989068  0  0  -0.57738  -0.76492  0  2.041107  0
O  O130  1  0.77633646  0.42051322  0.59393473  1  0  -0.837154  0  1.825462  0  0  -0.780896  0  2.01843  0  0  -0.801805  0  1.987556  0  0  -0.578148  -0.766076  0  2.039908  0
O  O131  1  0.62918873  0.07951086  0.59406713  1  0  -0.835993  0  1.827242  0  0  -0.779807  0  2.019686  0  0  -0.800722  0  1.989  0  0  -0.577399  -0.764971  0  2.041062  0
O  O132  1  0.91414996  0.77315109  0.54174347  1  0  -0.622567  0  1.901899  0  0  -0.562265  0  2.126128  0  0  -0.589879  0  2.115151  0  0  -0.331961  -0.542943  0  2.133009  0
O  O133  1  0.54461049  0.72683062  0.54182683  1  0  -0.622569  0  1.899771  0  0  -0.56241  0  2.123692  0  0  -0.589971  0  2.112756  0  0  -0.332084  -0.543134  0  2.130561  0
O  O134  1  0.08584935  0.22684565  0.45825857  1  0  -0.622579  0  1.901732  0  0  -0.562295  0  2.125949  0  0  -0.589916  0  2.114984  0  0  -0.331979  -0.542972  0  2.132827  0
O  O135  1  0.45539945  0.27316683  0.45816325  1  0  -0.622561  0  1.899717  0  0  -0.562397  0  2.123648  0  0  -0.58996  0  2.112718  0  0  -0.332076  -0.543121  0  2.130516  0
O  O136  1  0.10506458  0.85705261  0.47149083  1  0  -0.665294  0  2.026442  0  0  -0.591232  0  2.26542  0  0  -0.62296  0  2.257008  0  0  -0.324216  -0.568948  0  2.270432  0
O  O137  1  0.42387549  0.64284672  0.47169433  1  0  -0.667952  0  2.026791  0  0  -0.593077  0  2.265328  0  0  -0.624879  0  2.256864  0  0  -0.325241  -0.570771  0  2.27039  0
O  O138  1  0.89492501  0.14295032  0.52850834  1  0  -0.665308  0  2.026508  0  0  -0.591223  0  2.265457  0  0  -0.622935  0  2.257017  0  0  -0.324199  -0.568937  0  2.270457  0
O  O139  1  0.57613772  0.35714638  0.52829976  1  0  -0.667974  0  2.02678  0  0  -0.593042  0  2.265251  0  0  -0.624841  0  2.256787  0  0  -0.325217  -0.570737  0  2.27031  0
O  O140  1  0.24192974  0.12639225  0.63443935  1  0  -0.70697  0  2.066806  0  0  -0.621035  0  2.334417  0  0  -0.653977  0  2.319251  0  0  -0.341195  -0.597792  0  2.34398  0
O  O141  1  0.12367941  0.37404551  0.63460081  1  0  -0.709595  0  2.0676  0  0  -0.623564  0  2.335047  0  0  -0.656545  0  2.319893  0  0  -0.341806  -0.600287  0  2.34459  0
O  O142  1  0.75806368  0.87361386  0.36556659  1  0  -0.706879  0  2.067138  0  0  -0.620981  0  2.334747  0  0  -0.65392  0  2.319577  0  0  -0.341123  -0.597742  0  2.344314  0
O  O143  1  0.87632692  0.62595699  0.36539699  1  0  -0.709582  0  2.067728  0  0  -0.623467  0  2.33514  0  0  -0.656445  0  2.319983  0  0  -0.34176  -0.600192  0  2.344681  0
O  O144  1  0.27862174  0.06612686  0.76596941  1  0  -0.590144  0  1.952877  0  0  -0.543544  0  2.172756  0  0  -0.56612  0  2.162355  0  0  -0.312265  -0.527848  0  2.179412  0
O  O145  1  0.95540595  0.43419158  0.76610257  1  0  -0.591401  0  1.952027  0  0  -0.544629  0  2.171861  0  0  -0.567238  0  2.161399  0  0  -0.311682  -0.528921  0  2.178585  0
O  O146  1  0.72135355  0.93387223  0.23403131  1  0  -0.590303  0  1.952266  0  0  -0.543736  0  2.172103  0  0  -0.566315  0  2.161694  0  0  -0.312393  -0.528034  0  2.178755  0
O  O147  1  0.04460582  0.56581157  0.23389774  1  0  -0.591443  0  1.951869  0  0  -0.544652  0  2.171749  0  0  -0.56726  0  2.161276  0  0  -0.311664  -0.528939  0  2.178465  0
