# generated using pymatgen
data_Zr6H25C52Cl5O36
_symmetry_space_group_name_H-M   'P 1'
_cell_length_a   14.76940205
_cell_length_b   14.78263920
_cell_length_c   14.78680217
_cell_angle_alpha   60.32367957
_cell_angle_beta   59.91492487
_cell_angle_gamma   60.10881666
_symmetry_Int_Tables_number   1
_chemical_formula_structural   Zr6H25C52Cl5O36
_chemical_formula_sum   'Zr6 H25 C52 Cl5 O36'
_cell_volume   2288.76445839
_cell_formula_units_Z   1
loop_
 _symmetry_equiv_pos_site_id
 _symmetry_equiv_pos_as_xyz
  1  'x, y, z'
loop_
 _atom_site_type_symbol
 _atom_site_label
 _atom_site_symmetry_multiplicity
 _atom_site_fract_x
 _atom_site_fract_y
 _atom_site_fract_z
 _atom_site_occupancy
 _atom_site_pbe_bader_charge
 _atom_site_pbe_bader_spin_density
 _atom_site_pbe_cm5_charge
 _atom_site_pbe_ddec_charge
 _atom_site_pbe_ddec_spin_density
 _atom_site_pbe_ddec_sum_bond_order
 _atom_site_pbe_magmom
Zr  Zr0  1  0.87806309  0.88406250  0.61526245  1  2.634787  0  1.626113  2.370688  0  2.759965  0
Zr  Zr1  1  0.12108056  0.11937029  0.37970513  1  2.640544  0  1.631319  2.385111  0  2.73929  0
Zr  Zr2  1  0.11675807  0.88219955  0.61814864  1  2.637084  0  1.629504  2.378994  0  2.740866  0
Zr  Zr3  1  0.88075245  0.12191149  0.37724640  1  2.637296  0  1.626943  2.371128  0  2.75896  0
Zr  Zr4  1  0.11898661  0.88310600  0.37658297  1  2.63456  0  1.626618  2.376665  0  2.750719  0
Zr  Zr5  1  0.87865899  0.12245963  0.61680829  1  2.633714  0  1.627117  2.377928  0  2.748579  0
H  H6  1  0.09198524  0.72054211  0.58997066  1  0.619629  0  0.329779  0.42091  0  0.861653  0
H  H7  1  0.09713048  0.09424959  0.21499149  1  0.613595  0  0.332601  0.425739  0  0.854882  0
H  H8  1  0.09287939  0.09332274  0.59472187  1  0.609134  0  0.332224  0.425104  0  0.853945  0
H  H9  1  0.71571067  0.09836260  0.59005543  1  0.602605  0  0.332447  0.425039  0  0.855795  0
H  H10  1  0.82059578  0.63132749  0.57977320  1  0.113014  0  0.111634  0.119404  0  0.988728  0
H  H11  1  0.17440149  0.54514412  0.41557632  1  0.129785  0  0.106481  0.123442  0  1.01605  0
H  H12  1  0.82916439  0.45768359  0.57850765  1  0.103615  0  0.112541  0.119831  0  0.987511  0
H  H13  1  0.55886444  0.88117460  0.89576136  1  0.083201  0  0.109503  0.116366  0  0.993336  0
H  H14  1  0.63249435  0.09464788  0.94900325  1  0.128895  0  0.105674  0.122622  0  1.023657  0
H  H15  1  0.39242621  0.88436808  0.06933741  1  0.110879  0  0.11052  0.117351  0  0.995992  0
H  H16  1  0.13165523  0.84666841  0.08767159  1  0.104534  0  0.113612  0.122815  0  0.98216  0
H  H17  1  0.84557449  0.14088078  0.09557067  1  0.101638  0  0.108714  0.126047  0  1.007007  0
H  H18  1  0.12289933  0.85286163  0.92001069  1  0.16854  0  0.111893  0.128987  0  1.021056  0
H  H19  1  0.59388383  0.43829988  0.62701209  1  0.131736  0  0.113581  0.122612  0  0.984625  0
H  H20  1  0.59405156  0.41564926  0.34828646  1  0.118286  0  0.109861  0.125591  0  1.009557  0
H  H21  1  0.42331581  0.60673723  0.62066272  1  0.130266  0  0.107747  0.117273  0  1.019837  0
H  H22  1  0.73832909  0.63406205  0.96414232  1  0.085294  0  0.103151  0.116532  0  0.977757  0
H  H23  1  0.82434540  0.54845621  0.87894250  1  0.064009  0  0.103098  0.115619  0  0.975776  0
H  H24  1  0.82516966  0.37864316  0.04934938  1  0.0692  0  0.101924  0.115184  0  0.979832  0
H  H25  1  0.73951673  0.46416142  0.13465967  1  0.073488  0  0.100408  0.113738  0  0.986364  0
H  H26  1  0.58314366  0.14164900  0.34673754  1  0.093655  0  0.112142  0.121756  0  0.984348  0
H  H27  1  0.59987318  0.84931675  0.63207349  1  0.09486  0  0.110177  0.127012  0  1.004137  0
H  H28  1  0.41294261  0.13151391  0.35764107  1  0.119041  0  0.102539  0.115495  0  1.020477  0
H  H29  1  0.09499800  0.47742256  0.19542470  1  0.622921  0  0.343576  0.380756  0  0.852133  0
H  H30  1  0.26061663  0.51909415  0.82054288  1  0.620956  0  0.342335  0.378385  0  0.858007  0
C  C31  1  0.99477611  0.70237159  0.49344790  1  1.555612  0  0.237593  0.640547  0  4.098088  0
C  C32  1  0.31171643  0.99526452  0.20190718  1  1.569164  0  0.237392  0.652422  0  4.087066  0
C  C33  1  0.00127308  0.30513187  0.49724898  1  1.592313  0  0.233007  0.64592  0  4.108106  0
C  C34  1  0.69865105  0.99644338  0.80446468  1  1.543283  0  0.23962  0.644541  0  4.089863  0
C  C35  1  0.99230601  0.70390239  0.80508151  1  1.571075  0  0.235504  0.64027  0  4.117997  0
C  C36  1  0.69960161  0.00059692  0.48994312  1  1.557214  0  0.238191  0.64081  0  4.096293  0
C  C37  1  0.99714619  0.30787606  0.19834138  1  1.561149  0  0.234991  0.638439  0  4.122162  0
C  C38  1  0.30694727  0.99146761  0.49931176  1  1.584035  0  0.23623  0.650305  0  4.091816  0
C  C39  1  0.30657554  0.70273650  0.49006046  1  1.565646  0  0.232563  0.643911  0  4.104414  0
C  C40  1  0.98805167  0.00033478  0.80712620  1  1.56784  0  0.236  0.649859  0  4.086573  0
C  C41  1  0.70205473  0.31285600  0.49179082  1  1.540938  0  0.237719  0.638862  0  4.098339  0
C  C42  1  0.99503443  0.99673106  0.19807934  1  1.563776  0  0.238468  0.641658  0  4.092255  0
C  C43  1  0.00512777  0.40400246  0.49812689  1  -0.046305  0  -0.01739  -0.099356  0  3.928486  0
C  C44  1  0.99675400  0.59944750  0.49525931  1  0.03145  0  -0.009593  -0.008314  0  3.964941  0
C  C45  1  0.10348695  0.42770267  0.45476457  1  0.067177  0  0.022225  0.136474  0  4.016348  0
C  C46  1  0.89902544  0.57456763  0.54357909  1  -0.055349  0  -0.083101  -0.103664  0  3.976344  0
C  C47  1  0.09852612  0.52618831  0.45106829  1  -0.033446  0  -0.087886  -0.165746  0  3.949312  0
C  C48  1  0.90394884  0.47841428  0.54329526  1  0.015357  0  -0.077539  -0.077224  0  3.975842  0
C  C49  1  0.41801857  0.99114823  0.10601834  1  0.018756  0  -0.013212  -0.094029  0  3.902991  0
C  C50  1  0.60350292  0.99041921  0.91087026  1  -0.000388  0  -0.011048  -0.011866  0  3.968016  0
C  C51  1  0.48865281  0.04822637  0.07317665  1  0.055354  0  0.030245  0.149945  0  3.991945  0
C  C52  1  0.53810870  0.92810955  0.94560334  1  -0.026245  0  -0.085894  -0.108614  0  3.987268  0
C  C53  1  0.57950327  0.04879277  0.97527861  1  0.009828  0  -0.083464  -0.157117  0  3.934251  0
C  C54  1  0.44636347  0.92979431  0.04159406  1  -0.023917  0  -0.078638  -0.078373  0  3.978322  0
C  C55  1  0.98213006  0.00122593  0.91080436  1  0.02653  0  -0.014194  -0.09814  0  3.900912  0
C  C56  1  0.99008024  0.99479762  0.10054317  1  -0.055322  0  -0.011271  -0.016328  0  3.972622  0
C  C57  1  0.90212762  0.08214959  0.96264768  1  0.041787  0  0.024563  0.143388  0  3.998179  0
C  C58  1  0.06810858  0.91253341  0.05190635  1  -0.057297  0  -0.078988  -0.09322  0  3.955521  0
C  C59  1  0.90692612  0.07815991  0.05641703  1  0.058015  0  -0.089767  -0.171025  0  3.966746  0
C  C60  1  0.06347975  0.91649729  0.95847817  1  -0.022072  0  -0.072826  -0.066274  0  3.935006  0
C  C61  1  0.41140665  0.60520319  0.48298912  1  -0.028769  0  -0.015539  -0.096444  0  3.90388  0
C  C62  1  0.60363445  0.41653019  0.48812976  1  0.040686  0  -0.010709  -0.013707  0  3.968032  0
C  C63  1  0.46160298  0.55108742  0.40446322  1  0.039275  0  0.02543  0.145086  0  3.997326  0
C  C64  1  0.55644778  0.47055983  0.56500624  1  -0.030871  0  -0.081692  -0.097021  0  3.964821  0
C  C65  1  0.55665351  0.45788011  0.40787429  1  -0.02835  0  -0.087949  -0.167987  0  3.963648  0
C  C66  1  0.46190276  0.56345339  0.56156313  1  -0.018328  0  -0.078636  -0.079981  0  3.962026  0
C  C67  1  0.99266930  0.60560277  0.90721447  1  0.077846  0  -0.007252  -0.095564  0  3.945504  0
C  C68  1  0.99560638  0.41024553  0.10029054  1  -0.020542  0  -0.007994  -0.096709  0  3.951423  0
C  C69  1  0.91307186  0.55495664  0.95870432  1  -0.062924  0  0.00264  0.074246  0  3.879123  0
C  C70  1  0.07786840  0.46023928  0.04919712  1  -0.024465  0  -0.008252  -0.101292  0  3.962567  0
C  C71  1  0.91403869  0.46085197  0.05254464  1  -0.001579  0  0.001797  0.075229  0  3.875978  0
C  C72  1  0.07566047  0.55655345  0.95562018  1  -0.033362  0  -0.006536  -0.098093  0  3.952354  0
C  C73  1  0.81083166  0.55988030  0.95327514  1  -0.02274  0  -0.146266  -0.197351  0  3.860828  0
C  C74  1  0.81161960  0.45348108  0.05987043  1  -0.042817  0  -0.145923  -0.196593  0  3.859903  0
C  C75  1  0.41054548  0.98636955  0.49949662  1  0.011057  0  -0.014067  -0.093935  0  3.901251  0
C  C76  1  0.60096897  0.99602809  0.48967725  1  0.034  0  -0.010473  -0.011257  0  3.96695  0
C  C77  1  0.46472892  0.90505112  0.57722405  1  0.040033  0  0.025588  0.143259  0  4.00012  0
C  C78  1  0.54944094  0.07605023  0.41092642  1  -0.028529  0  -0.082335  -0.098182  0  3.968942  0
C  C79  1  0.55885533  0.91100420  0.57156184  1  0.017588  0  -0.08848  -0.168609  0  3.962206  0
C  C80  1  0.45558282  0.07035215  0.41694448  1  -0.026107  0  -0.080932  -0.079861  0  3.984303  0
C  C81  1  0.17852095  0.40675555  0.08431252  1  1.570401  0  0.227389  0.585294  0  4.142  0
C  C82  1  0.16100443  0.60899513  0.91457248  1  1.55056  0  0.232004  0.588378  0  4.133829  0
Cl  Cl83  1  0.23404771  0.33608810  0.41102175  1  -0.180229  0  0.002071  -0.06071  0  1.550959  0
Cl  Cl84  1  0.47234834  0.11679203  0.14927579  1  -0.174038  0  0.01488  -0.046362  0  1.574756  0
Cl  Cl85  1  0.79455203  0.19090015  0.91788274  1  -0.188283  0  -0.001493  -0.070855  0  1.51843  0
Cl  Cl86  1  0.41278084  0.59055384  0.30112712  1  -0.181067  0  0.002559  -0.064941  0  1.511253  0
Cl  Cl87  1  0.42229639  0.79528605  0.68310978  1  -0.176714  0  0.005374  -0.055665  0  1.511779  0
O  O88  1  0.91622060  0.74261135  0.56955691  1  -1.180014  0  -0.354827  -0.619389  0  2.27278  0
O  O89  1  0.26789639  0.07358885  0.24062244  1  -1.170726  0  -0.357427  -0.613918  0  2.34402  0
O  O90  1  0.07581529  0.26599704  0.41939884  1  -1.188522  0  -0.357744  -0.623404  0  2.351403  0
O  O91  1  0.73474119  0.92292475  0.76140804  1  -1.174967  0  -0.359996  -0.624882  0  2.281649  0
O  O92  1  0.07055964  0.74230762  0.76350524  1  -1.183167  0  -0.348827  -0.611677  0  2.342288  0
O  O93  1  0.73609216  0.07972460  0.41544035  1  -1.180332  0  -0.350745  -0.613698  0  2.265949  0
O  O94  1  0.92127136  0.26817701  0.23446060  1  -1.170748  0  -0.348321  -0.602908  0  2.273602  0
O  O95  1  0.26274504  0.91827283  0.57569385  1  -1.179514  0  -0.362847  -0.620955  0  2.371635  0
O  O96  1  0.26364952  0.74342158  0.41607632  1  -1.177465  0  -0.362212  -0.621582  0  2.389601  0
O  O97  1  0.91487437  0.07717389  0.76324811  1  -1.177969  0  -0.365222  -0.625334  0  2.381489  0
O  O98  1  0.73865820  0.27271374  0.57064195  1  -1.174545  0  -0.351598  -0.615122  0  2.266338  0
O  O99  1  0.07408295  0.92170991  0.23453961  1  -1.177068  0  -0.351774  -0.615976  0  2.265948  0
O  O100  1  0.06726867  0.92406925  0.76773363  1  -1.171091  0  -0.344708  -0.603299  0  2.267142  0
O  O101  1  0.74054372  0.27120274  0.41667532  1  -1.18011  0  -0.353218  -0.615185  0  2.28827  0
O  O102  1  0.92046451  0.07517340  0.23662864  1  -1.183188  0  -0.357  -0.618801  0  2.295128  0
O  O103  1  0.26626354  0.73723854  0.57087194  1  -1.172666  0  -0.345732  -0.608987  0  2.277409  0
O  O104  1  0.91638994  0.74020153  0.76594631  1  -1.165388  0  -0.339166  -0.597764  0  2.252747  0
O  O105  1  0.26829863  0.07036818  0.42337541  1  -1.184633  0  -0.349144  -0.617833  0  2.31356  0
O  O106  1  0.07394097  0.26779567  0.23761848  1  -1.17148  0  -0.339206  -0.599815  0  2.318069  0
O  O107  1  0.73877226  0.92518383  0.56685396  1  -1.181779  0  -0.356862  -0.615431  0  2.305678  0
O  O108  1  0.73562161  0.07524253  0.76367966  1  -1.173476  0  -0.349746  -0.608843  0  2.278495  0
O  O109  1  0.07289742  0.74031177  0.41773133  1  -1.170542  0  -0.350449  -0.609171  0  2.275043  0
O  O110  1  0.26948284  0.92194412  0.23590204  1  -1.176107  0  -0.352728  -0.619317  0  2.276269  0
O  O111  1  0.92215630  0.26882484  0.57335098  1  -1.178607  0  -0.348378  -0.611576  0  2.267807  0
O  O112  1  0.79614917  0.07163865  0.56318946  1  -1.231258  0  -0.69431  -1.070726  0  2.359501  0
O  O113  1  0.06584186  0.06837452  0.56632636  1  -1.232054  0  -0.694268  -1.065799  0  2.363677  0
O  O114  1  0.06832751  0.06880263  0.29515952  1  -1.241502  0  -0.693949  -1.071406  0  2.357759  0
O  O115  1  0.06446476  0.80053980  0.56454123  1  -1.249661  0  -0.693818  -1.070902  0  2.36482  0
O  O116  1  0.14757019  0.95145574  0.44893492  1  -1.197405  0  -0.79091  -1.147243  0  2.130812  0
O  O117  1  0.94935086  0.95328342  0.44658025  1  -1.200272  0  -0.791762  -1.149779  0  2.128758  0
O  O118  1  0.95076507  0.15043401  0.44784927  1  -1.202829  0  -0.790896  -1.152686  0  2.126365  0
O  O119  1  0.94744379  0.95318804  0.64590464  1  -1.198941  0  -0.790812  -1.149342  0  2.127514  0
O  O120  1  0.17116539  0.43307749  0.16392504  1  -1.099983  0  -0.325576  -0.459578  0  2.253511  0
O  O121  1  0.26609615  0.34984332  0.03569907  1  -1.111218  0  -0.281615  -0.454563  0  2.069198  0
O  O122  1  0.25972985  0.57553978  0.83761933  1  -1.108559  0  -0.326517  -0.462789  0  2.245349  0
O  O123  1  0.14585390  0.67201579  0.95474163  1  -1.100662  0  -0.268175  -0.442875  0  2.100609  0
