# generated using pymatgen
data_YbH9(CO)6
_symmetry_space_group_name_H-M   'P 1'
_cell_length_a   8.12869631
_cell_length_b   8.12868695
_cell_length_c   8.26086037
_cell_angle_alpha   90.00002971
_cell_angle_beta   89.99992587
_cell_angle_gamma   119.08564732
_symmetry_Int_Tables_number   1
_chemical_formula_structural   YbH9(CO)6
_chemical_formula_sum   'Yb2 H18 C12 O12'
_cell_volume   477.00765366
_cell_formula_units_Z   2
loop_
 _symmetry_equiv_pos_site_id
 _symmetry_equiv_pos_as_xyz
  1  'x, y, z'
loop_
 _atom_site_type_symbol
 _atom_site_label
 _atom_site_symmetry_multiplicity
 _atom_site_fract_x
 _atom_site_fract_y
 _atom_site_fract_z
 _atom_site_occupancy
 _atom_site_hle17_bader_spin_density
 _atom_site_hle17_ddec_charge
 _atom_site_hle17_ddec_spin_density
 _atom_site_hle17_ddec_sum_bond_order
 _atom_site_hle17_magmom
 _atom_site_hse06_10hf_bader_spin_density
 _atom_site_hse06_10hf_ddec_charge
 _atom_site_hse06_10hf_ddec_spin_density
 _atom_site_hse06_10hf_ddec_sum_bond_order
 _atom_site_hse06_10hf_magmom
 _atom_site_hse06_bader_spin_density
 _atom_site_hse06_ddec_charge
 _atom_site_hse06_ddec_spin_density
 _atom_site_hse06_ddec_sum_bond_order
 _atom_site_hse06_magmom
 _atom_site_pbe_bader_spin_density
 _atom_site_pbe_cm5_charge
 _atom_site_pbe_ddec_charge
 _atom_site_pbe_ddec_spin_density
 _atom_site_pbe_ddec_sum_bond_order
 _atom_site_pbe_magmom
C  C0  1  0.27404035  0.27404028  0.97324598  1  0  0.779307  0  3.830288  0  0  0.740301  0  4.125689  0  0  0.773544  0  4.126956  0  0  0.212434  0.717133  0  4.131895  0
C  C1  1  0.72596612  0.72596179  0.47325672  1  0  0.779304  0  3.83075  0  0  0.740422  0  4.125937  0  0  0.773665  0  4.127195  0  0  0.212492  0.717253  0  4.132145  0
C  C2  1  0.39706016  0.39706129  0.84065683  1  0  -0.44961  0  3.63865  0  0  -0.526893  0  3.87516  0  0  -0.532475  0  3.873772  0  0  -0.235681  -0.522128  0  3.874715  0
C  C3  1  0.60293841  0.60293934  0.34066041  1  0  -0.44964  0  3.638634  0  0  -0.526912  0  3.875059  0  0  -0.532494  0  3.873672  0  0  -0.23572  -0.522143  0  3.874615  0
C  C4  1  0.98042750  0.67626217  0.01915614  1  0  0.834581  0  3.784504  0  0  0.800489  0  4.070701  0  0  0.836632  0  4.061849  0  0  0.241403  0.776554  0  4.078556  0
C  C5  1  0.01956657  0.32373846  0.51916512  1  0  0.834326  0  3.784746  0  0  0.800262  0  4.070879  0  0  0.836421  0  4.062004  0  0  0.241369  0.776328  0  4.07873  0
C  C6  1  0.67626379  0.98042971  0.01915641  1  0  0.834601  0  3.784443  0  0  0.80049  0  4.070666  0  0  0.836628  0  4.061826  0  0  0.241411  0.776556  0  4.078519  0
C  C7  1  0.32373813  0.01956677  0.51916485  1  0  0.83441  0  3.784743  0  0  0.80034  0  4.070882  0  0  0.83651  0  4.061984  0  0  0.241389  0.776405  0  4.078734  0
C  C8  1  0.98902559  0.49571578  0.03249853  1  0  -0.462562  0  3.615577  0  0  -0.538066  0  3.842341  0  0  -0.544393  0  3.84157  0  0  -0.238657  -0.532998  0  3.841162  0
C  C9  1  0.01096285  0.50428340  0.53249550  1  0  -0.462474  0  3.615415  0  0  -0.537885  0  3.84217  0  0  -0.544225  0  3.841401  0  0  -0.238585  -0.532829  0  3.840982  0
C  C10  1  0.49571801  0.98902800  0.03249776  1  0  -0.462618  0  3.615543  0  0  -0.538101  0  3.842315  0  0  -0.544427  0  3.841545  0  0  -0.238668  -0.533029  0  3.84114  0
C  C11  1  0.50428310  0.01096427  0.53249748  1  0  -0.462552  0  3.615435  0  0  -0.537984  0  3.842179  0  0  -0.544327  0  3.841406  0  0  -0.23861  -0.532927  0  3.840991  0
H  H12  1  0.34240333  0.34240337  0.72041272  1  0  0.145444  0  0.950315  0  0  0.161709  0  1.009845  0  0  0.164333  0  1.008934  0  0  0.104855  0.159524  0  1.010936  0
H  H13  1  0.65758765  0.65758880  0.22041504  1  0  0.145422  0  0.950293  0  0  0.161674  0  1.009833  0  0  0.164299  0  1.008921  0  0  0.104843  0.159487  0  1.010924  0
H  H14  1  0.53903520  0.41444856  0.85352103  1  0  0.156276  0  0.917019  0  0  0.177513  0  0.970729  0  0  0.180317  0  0.968869  0  0  0.112139  0.175672  0  0.971503  0
H  H15  1  0.46096323  0.58554926  0.35352719  1  0  0.156308  0  0.917039  0  0  0.177531  0  0.970741  0  0  0.180334  0  0.968885  0  0  0.112152  0.175689  0  0.971516  0
H  H16  1  0.41444795  0.53903519  0.85352235  1  0  0.156296  0  0.917041  0  0  0.177536  0  0.970743  0  0  0.180339  0  0.968885  0  0  0.112154  0.175693  0  0.97152  0
H  H17  1  0.58554870  0.46096402  0.35352708  1  0  0.156329  0  0.917025  0  0  0.177544  0  0.970736  0  0  0.180347  0  0.968879  0  0  0.112165  0.175702  0  0.971512  0
H  H18  1  0.02115908  0.46986383  0.15538586  1  0  0.148453  0  0.957172  0  0  0.162694  0  1.021563  0  0  0.166126  0  1.019711  0  0  0.101501  0.160103  0  1.023193  0
H  H19  1  0.97882637  0.53012690  0.65538524  1  0  0.148395  0  0.957193  0  0  0.162608  0  1.021614  0  0  0.16604  0  1.01976  0  0  0.101452  0.160018  0  1.023241  0
H  H20  1  0.46986699  0.02115999  0.15538667  1  0  0.148454  0  0.957167  0  0  0.162703  0  1.021543  0  0  0.166135  0  1.01969  0  0  0.101501  0.160112  0  1.023172  0
H  H21  1  0.53012755  0.97882661  0.65538685  1  0  0.148394  0  0.957207  0  0  0.162633  0  1.021592  0  0  0.166065  0  1.019737  0  0  0.101465  0.160043  0  1.023219  0
H  H22  1  0.09574495  0.50115449  0.94775244  1  0  0.141419  0  0.937382  0  0  0.162116  0  0.995085  0  0  0.164267  0  0.99408  0  0  0.105623  0.16074  0  0.995257  0
H  H23  1  0.90424044  0.49884462  0.44775073  1  0  0.141403  0  0.937245  0  0  0.162089  0  0.994941  0  0  0.164245  0  0.993936  0  0  0.105616  0.160724  0  0.995105  0
H  H24  1  0.50115570  0.09574854  0.94775207  1  0  0.141428  0  0.937354  0  0  0.162128  0  0.99505  0  0  0.16428  0  0.994043  0  0  0.105624  0.160748  0  0.995227  0
H  H25  1  0.49884540  0.90424228  0.44775109  1  0  0.14143  0  0.937228  0  0  0.16211  0  0.994936  0  0  0.164266  0  0.993934  0  0  0.105623  0.160745  0  0.9951  0
H  H26  1  0.85451088  0.37807965  0.99216376  1  0  0.145206  0  0.930699  0  0  0.167388  0  0.984119  0  0  0.169611  0  0.983053  0  0  0.106515  0.165947  0  0.984376  0
H  H27  1  0.14547592  0.62192507  0.49216551  1  0  0.145256  0  0.930621  0  0  0.16737  0  0.984114  0  0  0.169594  0  0.983046  0  0  0.106519  0.165928  0  0.984372  0
H  H28  1  0.37808186  0.85451229  0.99216418  1  0  0.145245  0  0.930695  0  0  0.167386  0  0.984152  0  0  0.169608  0  0.983087  0  0  0.106517  0.165946  0  0.984407  0
H  H29  1  0.62192592  0.14547717  0.49216629  1  0  0.145294  0  0.930621  0  0  0.167407  0  0.984109  0  0  0.169632  0  0.983042  0  0  0.106528  0.165966  0  0.984368  0
O  O30  1  0.11936627  0.11936532  0.94292837  1  0  -0.880225  0  2.141232  0  0  -0.821001  0  2.409593  0  0  -0.871162  0  2.397215  0  0  -0.467216  -0.802445  0  2.417117  0
O  O31  1  0.88064036  0.88063957  0.44291963  1  0  -0.880375  0  2.141244  0  0  -0.821189  0  2.409537  0  0  -0.87135  0  2.39715  0  0  -0.467306  -0.802634  0  2.417063  0
O  O32  1  0.01477956  0.77971332  0.14420066  1  0  -0.78019  0  2.003776  0  0  -0.72936  0  2.259152  0  0  -0.769603  0  2.242232  0  0  -0.425153  -0.711047  0  2.266449  0
O  O33  1  0.98522692  0.22029300  0.64418777  1  0  -0.780103  0  2.004347  0  0  -0.729302  0  2.259718  0  0  -0.769539  0  2.242801  0  0  -0.425156  -0.710998  0  2.267023  0
O  O34  1  0.77971780  0.01478538  0.14419877  1  0  -0.780225  0  2.003819  0  0  -0.729384  0  2.259197  0  0  -0.769626  0  2.242283  0  0  -0.425169  -0.711072  0  2.26649  0
O  O35  1  0.22029385  0.98522660  0.64418846  1  0  -0.78013  0  2.004351  0  0  -0.729325  0  2.25972  0  0  -0.769564  0  2.242795  0  0  -0.425159  -0.711019  0  2.267022  0
O  O36  1  0.93856214  0.71572368  0.88126493  1  0  -0.782142  0  2.027229  0  0  -0.733615  0  2.288691  0  0  -0.773872  0  2.270568  0  0  -0.429719  -0.715466  0  2.297146  0
O  O37  1  0.06143919  0.28428538  0.38125209  1  0  -0.78204  0  2.026849  0  0  -0.733508  0  2.288275  0  0  -0.773783  0  2.270143  0  0  -0.429734  -0.715354  0  2.296717  0
O  O38  1  0.71572069  0.93855928  0.88126392  1  0  -0.782125  0  2.02717  0  0  -0.733589  0  2.288636  0  0  -0.773845  0  2.270518  0  0  -0.429707  -0.715441  0  2.29709  0
O  O39  1  0.28428838  0.06144283  0.38125310  1  0  -0.782084  0  2.026857  0  0  -0.733545  0  2.288278  0  0  -0.773826  0  2.27014  0  0  -0.42975  -0.715392  0  2.296722  0
O  O40  1  0.31776364  0.31776386  0.12021012  1  0  -0.689201  0  1.943225  0  0  -0.640802  0  2.179443  0  0  -0.675834  0  2.170103  0  0  -0.382115  -0.62365  0  2.184542  0
O  O41  1  0.68224737  0.68224671  0.62020148  1  0  -0.689097  0  1.943689  0  0  -0.640771  0  2.179911  0  0  -0.675799  0  2.170571  0  0  -0.382078  -0.623614  0  2.185008  0
Yb  Yb42  1  0.05788557  0.05788384  0.23037550  1  0  2.292141  0  1.676413  0  0  2.148297  0  2.154765  0  0  2.283389  0  1.955445  0  0  1.620406  2.112484  0  2.184932  0
Yb  Yb43  1  0.94212394  0.94212390  0.73037755  1  0  2.292272  0  1.676187  0  0  2.148492  0  2.154408  0  0  2.283521  0  1.955211  0  0  1.620491  2.112685  0  2.184558  0
