# generated using pymatgen
data_ZnH12C12(NO)4
_symmetry_space_group_name_H-M   'P 1'
_cell_length_a   6.84897750
_cell_length_b   7.14494725
_cell_length_c   14.06893367
_cell_angle_alpha   99.65006844
_cell_angle_beta   92.58635094
_cell_angle_gamma   93.13758461
_symmetry_Int_Tables_number   1
_chemical_formula_structural   ZnH12C12(NO)4
_chemical_formula_sum   'Zn2 H24 C24 N8 O8'
_cell_volume   676.68024420
_cell_formula_units_Z   2
loop_
 _symmetry_equiv_pos_site_id
 _symmetry_equiv_pos_as_xyz
  1  'x, y, z'
loop_
 _atom_site_type_symbol
 _atom_site_label
 _atom_site_symmetry_multiplicity
 _atom_site_fract_x
 _atom_site_fract_y
 _atom_site_fract_z
 _atom_site_occupancy
 _atom_site_hle17_bader_spin_density
 _atom_site_hle17_ddec_charge
 _atom_site_hle17_ddec_spin_density
 _atom_site_hle17_ddec_sum_bond_order
 _atom_site_hle17_magmom
 _atom_site_hse06_10hf_bader_spin_density
 _atom_site_hse06_10hf_ddec_charge
 _atom_site_hse06_10hf_ddec_spin_density
 _atom_site_hse06_10hf_ddec_sum_bond_order
 _atom_site_hse06_10hf_magmom
 _atom_site_hse06_bader_spin_density
 _atom_site_hse06_ddec_charge
 _atom_site_hse06_ddec_spin_density
 _atom_site_hse06_ddec_sum_bond_order
 _atom_site_hse06_magmom
 _atom_site_pbe_bader_spin_density
 _atom_site_pbe_cm5_charge
 _atom_site_pbe_ddec_charge
 _atom_site_pbe_ddec_spin_density
 _atom_site_pbe_ddec_sum_bond_order
 _atom_site_pbe_magmom
Zn  Zn0  1  0.28031120  0.68551951  0.74792231  1  0  0.882678  0  1.868564  0  0  0.671406  0  2.33339  0  0  0.728611  0  2.278908  0  0  0.650246  0.631658  0  2.370627  0
Zn  Zn1  1  0.71968800  0.31447991  0.25207748  1  0  0.882668  0  1.868564  0  0  0.671402  0  2.333387  0  0  0.728609  0  2.278904  0  0  0.650238  0.631657  0  2.370614  0
H  H2  1  0.90848291  0.89048201  0.74434576  1  0  0.075553  0  0.954516  0  0  0.082558  0  1.021156  0  0  0.084082  0  1.02129  0  0  0.112303  0.08136  0  1.021199  0
H  H3  1  0.09151493  0.10951885  0.25565413  1  0  0.075555  0  0.954509  0  0  0.082559  0  1.021149  0  0  0.084084  0  1.021282  0  0  0.112307  0.081361  0  1.02119  0
H  H4  1  0.76680811  0.17419121  0.83963188  1  0  0.107645  0  0.966343  0  0  0.10973  0  1.041675  0  0  0.113037  0  1.040215  0  0  0.105598  0.107243  0  1.043019  0
H  H5  1  0.23319119  0.82580964  0.16036803  1  0  0.107631  0  0.966352  0  0  0.109708  0  1.041696  0  0  0.113014  0  1.040237  0  0  0.105607  0.107224  0  1.043044  0
H  H6  1  0.29836886  0.25486403  0.02311196  1  0  0.120925  0  0.973764  0  0  0.125918  0  1.041174  0  0  0.130471  0  1.038492  0  0  0.105611  0.122584  0  1.043347  0
H  H7  1  0.70163211  0.74513966  0.97688825  1  0  0.120909  0  0.973769  0  0  0.125904  0  1.041177  0  0  0.130459  0  1.038493  0  0  0.105617  0.122568  0  1.04335  0
H  H8  1  0.41911000  0.97266886  0.91943641  1  0  0.078688  0  0.938911  0  0  0.091878  0  0.996489  0  0  0.094025  0  0.994795  0  0  0.117984  0.090222  0  0.9979  0
H  H9  1  0.58088940  0.02733343  0.08056293  1  0  0.078711  0  0.93892  0  0  0.091899  0  0.996497  0  0  0.094045  0  0.994804  0  0  0.118001  0.090243  0  0.997909  0
H  H10  1  0.93494104  0.38297849  0.07573175  1  0  0.091922  0  0.95631  0  0  0.106303  0  1.021986  0  0  0.107664  0  1.021548  0  0  0.09515  0.105258  0  1.02243  0
H  H11  1  0.06505964  0.61702090  0.92426948  1  0  0.091933  0  0.956303  0  0  0.106317  0  1.021983  0  0  0.107678  0  1.021547  0  0  0.095161  0.105276  0  1.022425  0
H  H12  1  0.78640616  0.42017904  0.97489243  1  0  0.089045  0  0.939755  0  0  0.099707  0  1.009601  0  0  0.101664  0  1.008168  0  0  0.095293  0.09823  0  1.010699  0
H  H13  1  0.21359307  0.57982034  0.02510949  1  0  0.089061  0  0.939762  0  0  0.099727  0  1.009622  0  0  0.101687  0  1.008185  0  0  0.095311  0.09825  0  1.010728  0
H  H14  1  0.54366764  0.52192706  0.59795192  1  0  0.076904  0  0.957817  0  0  0.083569  0  1.028394  0  0  0.085832  0  1.026536  0  0  0.115081  0.08184  0  1.029925  0
H  H15  1  0.45633877  0.47807087  0.40204857  1  0  0.07692  0  0.957789  0  0  0.083578  0  1.028375  0  0  0.08584  0  1.026515  0  0  0.115099  0.081851  0  1.029903  0
H  H16  1  0.78017583  0.63389311  0.48665583  1  0  0.124428  0  0.961195  0  0  0.129691  0  1.028001  0  0  0.134154  0  1.025415  0  0  0.107534  0.126383  0  1.030186  0
H  H17  1  0.21983070  0.36610622  0.51334622  1  0  0.124453  0  0.961203  0  0  0.129649  0  1.028085  0  0  0.134127  0  1.025482  0  0  0.107513  0.126342  0  1.030269  0
H  H18  1  0.68067367  0.20966748  0.61883842  1  0  0.110821  0  0.97084  0  0  0.110173  0  1.050523  0  0  0.113901  0  1.048778  0  0  0.105511  0.107406  0  1.052017  0
H  H19  1  0.31932103  0.79033059  0.38115974  1  0  0.110832  0  0.970822  0  0  0.110188  0  1.050499  0  0  0.113914  0  1.048759  0  0  0.1055  0.10742  0  1.051994  0
H  H20  1  0.44289854  0.07622280  0.72051448  1  0  0.078614  0  0.981621  0  0  0.080205  0  1.056349  0  0  0.083461  0  1.053409  0  0  0.111186  0.077727  0  1.058623  0
H  H21  1  0.55709761  0.92377526  0.27948299  1  0  0.078599  0  0.981624  0  0  0.080187  0  1.056364  0  0  0.083426  0  1.053442  0  0  0.11118  0.077711  0  1.058637  0
H  H22  1  0.87084082  0.15451313  0.47293330  1  0  0.094958  0  0.930295  0  0  0.109598  0  0.993044  0  0  0.111548  0  0.992082  0  0  0.097511  0.108169  0  0.993765  0
H  H23  1  0.12916130  0.84548627  0.52706653  1  0  0.094956  0  0.930248  0  0  0.109623  0  0.992967  0  0  0.111574  0  0.992003  0  0  0.097526  0.108194  0  0.993689  0
H  H24  1  0.87842538  0.92063140  0.40609364  1  0  0.090785  0  0.917586  0  0  0.108421  0  0.97539  0  0  0.109548  0  0.975442  0  0  0.098503  0.107526  0  0.97547  0
H  H25  1  0.12157695  0.07937086  0.59390575  1  0  0.090794  0  0.917562  0  0  0.10843  0  0.975369  0  0  0.109557  0  0.97542  0  0  0.098501  0.107534  0  0.975451  0
C  C26  1  0.98963718  0.97592746  0.80658357  1  0  0.13322  0  3.701651  0  0  0.101621  0  3.950291  0  0  0.109735  0  3.968658  0  0  0.043476  0.096409  0  3.937844  0
C  C27  1  0.01036222  0.02407482  0.19341577  1  0  0.133185  0  3.701714  0  0  0.101593  0  3.950371  0  0  0.109705  0  3.96874  0  0  0.043472  0.096385  0  3.937919  0
C  C28  1  0.91104201  0.13214150  0.86040277  1  0  -0.160545  0  3.697149  0  0  -0.178479  0  3.94546  0  0  -0.186695  0  3.966539  0  0  -0.081091  -0.173248  0  3.931512  0
C  C29  1  0.08895749  0.86786220  0.13959670  1  0  -0.160471  0  3.697181  0  0  -0.17841  0  3.94545  0  0  -0.186626  0  3.966532  0  0  -0.081098  -0.173186  0  3.931509  0
C  C30  1  0.01899228  0.23783156  0.94045517  1  0  0.182848  0  3.667559  0  0  0.199095  0  3.898919  0  0  0.205223  0  3.920562  0  0  0.024676  0.195135  0  3.884135  0
C  C31  1  0.98100712  0.76217071  0.05954488  1  0  0.182768  0  3.667563  0  0  0.199093  0  3.898845  0  0  0.205222  0  3.920489  0  0  0.024664  0.195133  0  3.884064  0
C  C32  1  0.20555481  0.17901050  0.96212292  1  0  -0.169091  0  3.683686  0  0  -0.187457  0  3.933849  0  0  -0.196454  0  3.955132  0  0  -0.084379  -0.181686  0  3.919753  0
C  C33  1  0.79444439  0.82098892  0.03787687  1  0  -0.169022  0  3.683519  0  0  -0.187411  0  3.933663  0  0  -0.196407  0  3.954943  0  0  -0.084366  -0.181634  0  3.919561  0
C  C34  1  0.27494211  0.02223429  0.90456652  1  0  0.127949  0  3.709227  0  0  0.09402  0  3.962412  0  0  0.101505  0  3.981251  0  0  0.044559  0.089186  0  3.949682  0
C  C35  1  0.72505458  0.97777085  0.09543374  1  0  0.127879  0  3.709098  0  0  0.093959  0  3.962304  0  0  0.101446  0  3.981141  0  0  0.044514  0.089124  0  3.949575  0
C  C36  1  0.93786382  0.40669835  0.00062344  1  0  -0.154381  0  3.648757  0  0  -0.193914  0  3.888093  0  0  -0.195965  0  3.899561  0  0  -0.157739  -0.192288  0  3.880078  0
C  C37  1  0.06213696  0.59330246  0.99937792  1  0  -0.154387  0  3.648637  0  0  -0.193988  0  3.888021  0  0  -0.196041  0  3.899491  0  0  -0.157775  -0.192365  0  3.880015  0
C  C38  1  0.57621761  0.67301855  0.59878601  1  0  0.12744  0  3.711019  0  0  0.092483  0  3.965796  0  0  0.100139  0  3.983817  0  0  0.041341  0.087486  0  3.953678  0
C  C39  1  0.42378578  0.32697799  0.40121431  1  0  0.127426  0  3.711036  0  0  0.092495  0  3.965779  0  0  0.100154  0  3.983799  0  0  0.04136  0.087494  0  3.953664  0
C  C40  1  0.70744848  0.73682648  0.53715962  1  0  -0.166803  0  3.683071  0  0  -0.185121  0  3.933946  0  0  -0.193269  0  3.953876  0  0  -0.084327  -0.179907  0  3.920834  0
C  C41  1  0.29255679  0.26317572  0.46284195  1  0  -0.166811  0  3.682975  0  0  -0.185068  0  3.933832  0  0  -0.19322  0  3.953775  0  0  -0.08433  -0.179853  0  3.92072  0
C  C42  1  0.74795516  0.93273312  0.54211264  1  0  0.159864  0  3.71341  0  0  0.177163  0  3.946555  0  0  0.182714  0  3.968908  0  0  0.016163  0.173574  0  3.931304  0
C  C43  1  0.25204677  0.06726341  0.45788836  1  0  0.159837  0  3.713287  0  0  0.177129  0  3.946457  0  0  0.182641  0  3.968865  0  0  0.016101  0.17354  0  3.931205  0
C  C44  1  0.65261473  0.05595129  0.61034461  1  0  -0.168013  0  3.694522  0  0  -0.184925  0  3.942506  0  0  -0.193572  0  3.964389  0  0  -0.083953  -0.179312  0  3.927888  0
C  C45  1  0.34738592  0.94404814  0.38965449  1  0  -0.168041  0  3.694527  0  0  -0.184944  0  3.942489  0  0  -0.193581  0  3.964377  0  0  -0.083929  -0.179345  0  3.927905  0
C  C46  1  0.52119974  0.98148195  0.66878158  1  0  0.125022  0  3.707496  0  0  0.095424  0  3.956114  0  0  0.10277  0  3.974143  0  0  0.040081  0.090791  0  3.943829  0
C  C47  1  0.47879789  0.01851607  0.33121734  1  0  0.125085  0  3.707659  0  0  0.095481  0  3.956285  0  0  0.102844  0  3.974315  0  0  0.040122  0.090846  0  3.943999  0
C  C48  1  0.89457036  0.00610554  0.47906835  1  0  -0.154328  0  3.66465  0  0  -0.196568  0  3.91363  0  0  -0.198533  0  3.924832  0  0  -0.153882  -0.194948  0  3.905675  0
C  C49  1  0.10543187  0.99389528  0.52093162  1  0  -0.15433  0  3.664634  0  0  -0.196585  0  3.913631  0  0  -0.19854  0  3.924844  0  0  -0.15384  -0.194965  0  3.905678  0
N  N50  1  0.49557579  0.44765468  0.82984644  1  0  0.235691  0  3.13916  0  0  0.223345  0  3.454397  0  0  0.247454  0  3.454012  0  0  -0.050317  0.207753  0  3.453862  0
N  N51  1  0.50442216  0.55234760  0.17015358  1  0  0.235653  0  3.139048  0  0  0.223302  0  3.454288  0  0  0.247411  0  3.453904  0  0  -0.050327  0.207706  0  3.453758  0
N  N52  1  0.94644196  0.47665064  0.67111767  1  0  0.216105  0  3.17683  0  0  0.211729  0  3.494229  0  0  0.234286  0  3.494064  0  0  -0.055285  0.197152  0  3.493459  0
N  N53  1  0.05356007  0.52334732  0.32888275  1  0  0.216008  0  3.176881  0  0  0.211675  0  3.494243  0  0  0.234234  0  3.494078  0  0  -0.055256  0.197097  0  3.493477  0
N  N54  1  0.48319798  0.79285440  0.66359361  1  0  -0.33228  0  3.318534  0  0  -0.244043  0  3.587837  0  0  -0.265037  0  3.60427  0  0  -0.339155  -0.229908  0  3.576496  0
N  N55  1  0.51680123  0.20714501  0.33640689  1  0  -0.332312  0  3.3186  0  0  -0.24409  0  3.587909  0  0  -0.265082  0  3.604334  0  0  -0.339189  -0.229952  0  3.576566  0
N  N56  1  0.16955385  0.92100107  0.82773469  1  0  -0.339592  0  3.33743  0  0  -0.251237  0  3.610551  0  0  -0.272507  0  3.626267  0  0  -0.339326  -0.236931  0  3.599705  0
N  N57  1  0.83044545  0.07899979  0.17226451  1  0  -0.339537  0  3.337499  0  0  -0.251206  0  3.61064  0  0  -0.272476  0  3.626355  0  0  -0.339304  -0.236899  0  3.599789  0
O  O58  1  0.41284876  0.39279590  0.74709541  1  0  -0.407165  0  1.958647  0  0  -0.356049  0  2.218441  0  0  -0.379005  0  2.212487  0  0  -0.163627  -0.340267  0  2.222055  0
O  O59  1  0.58714753  0.60720353  0.25290503  1  0  -0.407123  0  1.958664  0  0  -0.356012  0  2.218465  0  0  -0.378963  0  2.212506  0  0  -0.163619  -0.340233  0  2.222082  0
O  O60  1  0.46349447  0.61941911  0.86548808  1  0  -0.436343  0  1.989722  0  0  -0.379359  0  2.263231  0  0  -0.406053  0  2.255693  0  0  -0.179623  -0.36091  0  2.267518  0
O  O61  1  0.53650473  0.38058033  0.13451100  1  0  -0.436338  0  1.9896  0  0  -0.379329  0  2.263086  0  0  -0.406027  0  2.25555  0  0  -0.179606  -0.36088  0  2.267374  0
O  O62  1  0.96089332  0.49483866  0.76089256  1  0  -0.384441  0  1.954096  0  0  -0.347475  0  2.210966  0  0  -0.366982  0  2.206932  0  0  -0.153716  -0.333845  0  2.213154  0
O  O63  1  0.03910743  0.50516220  0.23910596  1  0  -0.384431  0  1.954069  0  0  -0.34751  0  2.210968  0  0  -0.367013  0  2.206927  0  0  -0.153757  -0.333879  0  2.213158  0
O  O64  1  0.08565076  0.56730176  0.63442007  1  0  -0.458135  0  2.008539  0  0  -0.399413  0  2.292799  0  0  -0.427763  0  2.284436  0  0  -0.201401  -0.379845  0  2.297707  0
O  O65  1  0.91435125  0.43269622  0.36557964  1  0  -0.45805  0  2.008583  0  0  -0.399333  0  2.292826  0  0  -0.427684  0  2.284465  0  0  -0.201385  -0.37976  0  2.297716  0
