# generated using pymatgen
data_Zn2H22C19(NO4)2
_symmetry_space_group_name_H-M   'P 1'
_cell_length_a   9.82940324
_cell_length_b   10.93882626
_cell_length_c   11.31256516
_cell_angle_alpha   89.85949161
_cell_angle_beta   85.62601856
_cell_angle_gamma   75.47082675
_symmetry_Int_Tables_number   1
_chemical_formula_structural   Zn2H22C19(NO4)2
_chemical_formula_sum   'Zn2 H22 C19 N2 O8'
_cell_volume   1173.84759287
_cell_formula_units_Z   1
loop_
 _symmetry_equiv_pos_site_id
 _symmetry_equiv_pos_as_xyz
  1  'x, y, z'
loop_
 _atom_site_type_symbol
 _atom_site_label
 _atom_site_symmetry_multiplicity
 _atom_site_fract_x
 _atom_site_fract_y
 _atom_site_fract_z
 _atom_site_occupancy
 _atom_site_pbe_bader_charge
 _atom_site_pbe_bader_spin_density
 _atom_site_pbe_cm5_charge
 _atom_site_pbe_ddec_charge
 _atom_site_pbe_ddec_spin_density
 _atom_site_pbe_ddec_sum_bond_order
 _atom_site_pbe_magmom
Zn  Zn0  1  0.35845142  0.53925271  0.48409959  1  1.272549  0  0.657176  0.840425  0  2.425678  0
Zn  Zn1  1  0.64260768  0.47008504  0.51285016  1  1.295364  0  0.659483  0.840569  0  2.456079  0
H  H2  1  0.34453677  0.93690751  0.37572166  1  0.022164  0  0.091504  0.059864  0  0.967888  0
H  H3  1  0.68353961  0.07093837  0.60116409  1  0.037643  0  0.086341  0.084528  0  0.985338  0
H  H4  1  0.43313565  0.91085230  0.68340644  1  0.027182  0  0.089763  0.087064  0  0.975899  0
H  H5  1  0.42574375  0.12545390  0.68555135  1  0.014368  0  0.089087  0.08463  0  0.978391  0
H  H6  1  0.62232503  0.48800671  0.89754259  1  0.089802  0  0.1051  0.105208  0  0.986244  0
H  H7  1  0.37951000  0.53081002  0.10145203  1  0.063061  0  0.105955  0.106037  0  0.983697  0
H  H8  1  0.29950802  0.54407315  0.89195049  1  0.060865  0  0.103429  0.12045  0  0.991837  0
H  H9  1  0.70288179  0.47273544  0.10366268  1  0.084502  0  0.104032  0.120629  0  0.991098  0
H  H10  1  0.12884999  0.42385996  0.56449879  1  0.160511  0  0.140338  0.107549  0  0.9638  0
H  H11  1  0.87251528  0.58299613  0.42927134  1  0.148608  0  0.140966  0.108303  0  0.95995  0
H  H12  1  0.09287134  0.63824705  0.40439539  1  0.438625  0  0.324486  0.29211  0  0.896722  0
H  H13  1  0.90792363  0.37185333  0.59324799  1  0.439774  0  0.324554  0.29186  0  0.896847  0
H  H14  1  0.53028464  0.10395579  0.30852344  1  0.017999  0  0.090196  0.09048  0  0.981937  0
H  H15  1  0.35162200  0.14674303  0.36447955  1  0.021961  0  0.088197  0.087693  0  0.994245  0
H  H16  1  0.29588761  0.93912600  0.58691865  1  0.03137  0  0.08919  0.087884  0  0.995329  0
H  H17  1  0.29082343  0.15467082  0.58677589  1  0.02498  0  0.082902  0.075767  0  1.003568  0
H  H18  1  0.68536282  0.85658023  0.59963921  1  0.018544  0  0.086251  0.084068  0  0.988422  0
H  H19  1  0.72823485  0.84963909  0.44590965  1  -0.006351  0  0.080367  0.069832  0  1.016085  0
H  H20  1  0.72273400  0.06433392  0.44686309  1  0.018827  0  0.086033  0.084775  0  0.990819  0
H  H21  1  0.49560681  0.91992865  0.18720276  1  0.021542  0  0.085726  0.116318  0  1.001718  0
H  H22  1  0.64948865  0.87750492  0.26532021  1  0.012111  0  0.080538  0.106547  0  1.021015  0
H  H23  1  0.53405597  0.77535372  0.26445519  1  0.019569  0  0.083578  0.120907  0  1.021969  0
C  C24  1  0.56468873  0.49440574  0.26801803  1  1.588044  0  0.200503  0.625062  0  4.201188  0
C  C25  1  0.50050137  0.12397272  0.49982080  1  0.020673  0  -0.016653  0.028282  0  3.803257  0
C  C26  1  0.39702490  0.09633996  0.59977183  1  -0.018689  0  -0.160401  -0.168566  0  3.871911  0
C  C27  1  0.64944109  0.04287870  0.51733758  1  -0.021408  0  -0.166696  -0.177089  0  3.893013  0
C  C28  1  0.59237922  0.49234850  0.13731888  1  -0.110925  0  -0.093497  -0.228534  0  3.890207  0
C  C29  1  0.48829181  0.51190396  0.06268004  1  -0.015521  0  -0.076344  -0.03118  0  4.022236  0
C  C30  1  0.41059125  0.52391776  0.85992004  1  -0.020139  0  -0.094075  -0.229698  0  3.889153  0
C  C31  1  0.51326137  0.50725574  0.93572540  1  -0.036158  0  -0.078016  -0.03308  0  4.028625  0
C  C32  1  0.92623021  0.50962619  0.48827736  1  0.701408  0  0.120338  0.168172  0  3.874717  0
C  C33  1  0.07496766  0.49847208  0.50679548  1  0.680357  0  0.119691  0.167666  0  3.87823  0
C  C34  1  0.50172818  0.74486961  0.49700838  1  1.550852  0  0.220473  0.595209  0  4.105017  0
C  C35  1  0.44202959  0.51648664  0.72946996  1  1.551655  0  0.201619  0.629536  0  4.190112  0
C  C36  1  0.49608310  0.26477856  0.49919797  1  1.57496  0  0.22348  0.597091  0  4.091513  0
C  C37  1  0.45397310  0.94416317  0.37808362  1  0.022614  0  -0.083446  0.049877  0  3.791701  0
C  C38  1  0.45574570  0.08586170  0.38017636  1  -0.019993  0  -0.158661  -0.209817  0  3.832899  0
C  C39  1  0.40050807  0.95397590  0.59871467  1  -0.037546  0  -0.159079  -0.171318  0  3.866859  0
C  C40  1  0.65186103  0.90105839  0.51592789  1  -0.009837  0  -0.169093  -0.173524  0  3.904689  0
C  C41  1  0.50464736  0.88389844  0.49689736  1  0.046897  0  -0.016317  -0.010781  0  3.775733  0
C  C42  1  0.53816812  0.87475531  0.26809994  1  -0.057246  0  -0.245524  -0.391077  0  3.956291  0
N  N43  1  0.85415710  0.43847895  0.53803506  1  -1.170317  0  -0.422399  -0.359129  0  3.216586  0
N  N44  1  0.14690786  0.57051069  0.45848471  1  -1.179763  0  -0.422595  -0.359693  0  3.217242  0
O  O45  1  0.43626773  0.51814507  0.31028662  1  -1.17144  0  -0.326695  -0.563899  0  2.308652  0
O  O46  1  0.67262014  0.47198395  0.32840964  1  -1.18229  0  -0.329151  -0.562619  0  2.260015  0
O  O47  1  0.38295086  0.72036383  0.48700261  1  -1.172058  0  -0.323733  -0.557616  0  2.310109  0
O  O48  1  0.61753163  0.66280652  0.50729801  1  -1.183242  0  -0.317791  -0.562072  0  2.363463  0
O  O49  1  0.33558091  0.53922872  0.66698248  1  -1.129277  0  -0.329531  -0.561142  0  2.265164  0
O  O50  1  0.57111059  0.48827963  0.68942819  1  -1.179159  0  -0.327887  -0.562175  0  2.296804  0
O  O51  1  0.37703828  0.34300493  0.49129626  1  -1.189022  0  -0.32278  -0.572675  0  2.323488  0
O  O52  1  0.61273546  0.29435928  0.50573321  1  -1.168997  0  -0.320934  -0.548706  0  2.347244  0
