# generated using pymatgen
data_BaH20C18S2N8O9
_symmetry_space_group_name_H-M   'P 1'
_cell_length_a   9.47549118
_cell_length_b   10.00167460
_cell_length_c   14.41791641
_cell_angle_alpha   110.27269525
_cell_angle_beta   94.10974211
_cell_angle_gamma   90.01147170
_symmetry_Int_Tables_number   1
_chemical_formula_structural   BaH20C18S2N8O9
_chemical_formula_sum   'Ba2 H40 C36 S4 N16 O18'
_cell_volume   1278.00104777
_cell_formula_units_Z   2
loop_
 _symmetry_equiv_pos_site_id
 _symmetry_equiv_pos_as_xyz
  1  'x, y, z'
loop_
 _atom_site_type_symbol
 _atom_site_label
 _atom_site_symmetry_multiplicity
 _atom_site_fract_x
 _atom_site_fract_y
 _atom_site_fract_z
 _atom_site_occupancy
 _atom_site_hle17_bader_spin_density
 _atom_site_hle17_ddec_charge
 _atom_site_hle17_ddec_spin_density
 _atom_site_hle17_ddec_sum_bond_order
 _atom_site_hle17_magmom
 _atom_site_hse06_10hf_bader_spin_density
 _atom_site_hse06_10hf_ddec_charge
 _atom_site_hse06_10hf_ddec_spin_density
 _atom_site_hse06_10hf_ddec_sum_bond_order
 _atom_site_hse06_10hf_magmom
 _atom_site_hse06_bader_spin_density
 _atom_site_hse06_ddec_charge
 _atom_site_hse06_ddec_spin_density
 _atom_site_hse06_ddec_sum_bond_order
 _atom_site_hse06_magmom
 _atom_site_pbe_bader_spin_density
 _atom_site_pbe_cm5_charge
 _atom_site_pbe_ddec_charge
 _atom_site_pbe_ddec_spin_density
 _atom_site_pbe_ddec_sum_bond_order
 _atom_site_pbe_magmom
Ba  Ba0  1  0.74995283  0.95877997  0.99999101  1  0  1.667746  0  1.103196  0  0  1.523926  0  1.493162  0  0  1.563685  0  1.448512  0  0  0.960428  1.494515  0  1.525161  0
Ba  Ba1  1  0.25004290  0.04122859  0.00000693  1  0  1.667789  0  1.10322  0  0  1.523957  0  1.493214  0  0  1.563696  0  1.448596  0  0  0.960435  1.494551  0  1.525214  0
H  H2  1  0.35870999  0.96695187  0.23191909  1  0  0.403858  0  0.889172  0  0  0.372344  0  0.970663  0  0  0.383593  0  0.957606  0  0  0.307478  0.36428  0  0.979497  0
H  H3  1  0.14138122  0.73459034  0.76820309  1  0  0.403086  0  0.890671  0  0  0.37165  0  0.971946  0  0  0.382921  0  0.958667  0  0  0.307345  0.363605  0  0.980668  0
H  H4  1  0.64128482  0.03306418  0.76808544  1  0  0.403813  0  0.889286  0  0  0.372355  0  0.970682  0  0  0.383594  0  0.957603  0  0  0.307512  0.364309  0  0.979497  0
H  H5  1  0.85860695  0.26539380  0.23180246  1  0  0.403115  0  0.890515  0  0  0.371546  0  0.972023  0  0  0.382863  0  0.958763  0  0  0.307267  0.363464  0  0.980804  0
H  H6  1  0.92018098  0.68283768  0.85279954  1  0  0.425902  0  0.866292  0  0  0.395277  0  0.92871  0  0  0.405992  0  0.912766  0  0  0.302187  0.387701  0  0.939946  0
H  H7  1  0.57963934  0.82997754  0.14712530  1  0  0.42567  0  0.866431  0  0  0.395284  0  0.928446  0  0  0.405931  0  0.912612  0  0  0.302225  0.387717  0  0.93968  0
H  H8  1  0.07978599  0.31715722  0.14718306  1  0  0.425909  0  0.866303  0  0  0.39531  0  0.928665  0  0  0.406027  0  0.912717  0  0  0.302186  0.387733  0  0.939903  0
H  H9  1  0.42033298  0.17001838  0.85285715  1  0  0.425785  0  0.866234  0  0  0.395325  0  0.928401  0  0  0.405985  0  0.912542  0  0  0.302201  0.387756  0  0.939636  0
H  H10  1  0.79493120  0.58904162  0.86405270  1  0  0.402651  0  0.896598  0  0  0.367142  0  0.967535  0  0  0.376623  0  0.953336  0  0  0.294372  0.360498  0  0.977471  0
H  H11  1  0.70498459  0.72511161  0.13604784  1  0  0.403366  0  0.895788  0  0  0.367858  0  0.966808  0  0  0.377344  0  0.952596  0  0  0.294716  0.361178  0  0.976792  0
H  H12  1  0.20504078  0.41094899  0.13593402  1  0  0.402562  0  0.896666  0  0  0.367054  0  0.967598  0  0  0.376531  0  0.953404  0  0  0.294312  0.360408  0  0.977536  0
H  H13  1  0.29499225  0.27489066  0.86393363  1  0  0.403464  0  0.895711  0  0  0.367987  0  0.966697  0  0  0.377475  0  0.952482  0  0  0.294673  0.361299  0  0.976693  0
H  H14  1  0.72128864  0.33685222  0.05201129  1  0  0.425547  0  0.836878  0  0  0.402206  0  0.896867  0  0  0.410647  0  0.88426  0  0  0.316938  0.396172  0  0.905907  0
H  H15  1  0.77894352  0.28433345  0.94702326  1  0  0.425847  0  0.836118  0  0  0.401782  0  0.897942  0  0  0.410262  0  0.885259  0  0  0.316259  0.395688  0  0.907096  0
H  H16  1  0.27875524  0.66317851  0.94804331  1  0  0.425739  0  0.836513  0  0  0.402362  0  0.896626  0  0  0.410804  0  0.884015  0  0  0.31706  0.396331  0  0.905663  0
H  H17  1  0.22109431  0.71572929  0.05302960  1  0  0.425954  0  0.836187  0  0  0.40187  0  0.897873  0  0  0.410351  0  0.885187  0  0  0.316273  0.395773  0  0.907031  0
H  H18  1  0.33546919  0.14213062  0.38649742  1  0  0.100784  0  1.004468  0  0  0.104022  0  1.079991  0  0  0.107317  0  1.079218  0  0  0.093811  0.101625  0  1.080686  0
H  H19  1  0.16463719  0.75584639  0.61373313  1  0  0.100509  0  1.005287  0  0  0.103948  0  1.080755  0  0  0.107191  0  1.080109  0  0  0.094004  0.101573  0  1.081398  0
H  H20  1  0.66453844  0.85788531  0.61350297  1  0  0.10073  0  1.004401  0  0  0.104048  0  1.079873  0  0  0.107339  0  1.079107  0  0  0.09385  0.101647  0  1.080572  0
H  H21  1  0.83536078  0.24414192  0.38626913  1  0  0.100528  0  1.005339  0  0  0.103988  0  1.080732  0  0  0.107237  0  1.080064  0  0  0.094007  0.101606  0  1.081393  0
H  H22  1  0.45077822  0.27248174  0.55426621  1  0  0.096543  0  0.983125  0  0  0.098279  0  1.059954  0  0  0.10098  0  1.058316  0  0  0.100078  0.096192  0  1.061475  0
H  H23  1  0.04939503  0.71872698  0.44596463  1  0  0.096454  0  0.984169  0  0  0.098669  0  1.060194  0  0  0.101334  0  1.058519  0  0  0.10043  0.096644  0  1.061511  0
H  H24  1  0.54923482  0.72753627  0.44573292  1  0  0.096634  0  0.983053  0  0  0.09836  0  1.059876  0  0  0.101063  0  1.058234  0  0  0.100124  0.096267  0  1.061403  0
H  H25  1  0.95061166  0.28126873  0.55403990  1  0  0.0964  0  0.984159  0  0  0.098598  0  1.06023  0  0  0.101262  0  1.058556  0  0  0.100427  0.096569  0  1.061552  0
H  H26  1  0.82849312  0.03271460  0.47263207  1  0  0.087491  0  1.012571  0  0  0.094478  0  1.08513  0  0  0.09713  0  1.083491  0  0  0.09221  0.092387  0  1.0868  0
H  H27  1  0.67182006  0.55970765  0.52726552  1  0  0.086747  0  1.012736  0  0  0.094003  0  1.085222  0  0  0.096624  0  1.083647  0  0  0.091854  0.091893  0  1.087001  0
H  H28  1  0.17149746  0.96727270  0.52736743  1  0  0.087516  0  1.012505  0  0  0.094525  0  1.085073  0  0  0.097145  0  1.083474  0  0  0.092225  0.092441  0  1.086724  0
H  H29  1  0.32817812  0.44027742  0.47272349  1  0  0.086829  0  1.012677  0  0  0.094066  0  1.085168  0  0  0.096687  0  1.083595  0  0  0.091926  0.091954  0  1.08695  0
H  H30  1  0.71245731  0.90103692  0.30899813  1  0  0.107606  0  0.978129  0  0  0.113548  0  1.04769  0  0  0.116209  0  1.046867  0  0  0.106134  0.111412  0  1.048833  0
H  H31  1  0.78781306  0.59113602  0.69082302  1  0  0.107634  0  0.977437  0  0  0.113628  0  1.046873  0  0  0.116261  0  1.046134  0  0  0.106211  0.111502  0  1.047969  0
H  H32  1  0.28752997  0.09895150  0.69100769  1  0  0.107509  0  0.978159  0  0  0.113496  0  1.047666  0  0  0.11616  0  1.04684  0  0  0.10608  0.111334  0  1.048833  0
H  H33  1  0.21217962  0.40884484  0.30916744  1  0  0.107773  0  0.977341  0  0  0.113719  0  1.046817  0  0  0.116365  0  1.046062  0  0  0.106264  0.111568  0  1.047934  0
H  H34  1  0.09018717  0.98396124  0.73459249  1  0  0.141204  0  0.934082  0  0  0.155299  0  0.993173  0  0  0.157927  0  0.992153  0  0  0.118625  0.153204  0  0.99445  0
H  H35  1  0.40995148  0.24948058  0.26546204  1  0  0.140629  0  0.933779  0  0  0.155194  0  0.992274  0  0  0.157847  0  0.991274  0  0  0.118618  0.153087  0  0.99352  0
H  H36  1  0.90981554  0.01603875  0.26540866  1  0  0.141254  0  0.934093  0  0  0.155308  0  0.99321  0  0  0.157941  0  0.99219  0  0  0.118637  0.153211  0  0.994489  0
H  H37  1  0.59004168  0.75051949  0.73453997  1  0  0.140606  0  0.933756  0  0  0.155136  0  0.992302  0  0  0.157786  0  0.991301  0  0  0.118574  0.153025  0  0.993546  0
H  H38  1  0.04045877  0.16327093  0.79057683  1  0  0.146487  0  0.928678  0  0  0.155396  0  0.993294  0  0  0.158154  0  0.991104  0  0  0.123301  0.153384  0  0.99495  0
H  H39  1  0.45950956  0.37297544  0.20954195  1  0  0.146967  0  0.928434  0  0  0.15589  0  0.992727  0  0  0.158673  0  0.990584  0  0  0.123398  0.153851  0  0.994368  0
H  H40  1  0.95953552  0.83672805  0.20942082  1  0  0.14651  0  0.928698  0  0  0.155402  0  0.993311  0  0  0.158167  0  0.991115  0  0  0.123312  0.153387  0  0.994966  0
H  H41  1  0.54047922  0.62702041  0.79045880  1  0  0.14694  0  0.928266  0  0  0.155862  0  0.992567  0  0  0.158639  0  0.990423  0  0  0.123397  0.153821  0  0.994207  0
C  C42  1  0.51623788  0.01201335  0.33650361  1  0  0.347502  0  3.803761  0  0  0.334746  0  4.065814  0  0  0.346868  0  4.081531  0  0  0.083254  0.326041  0  4.055006  0
C  C43  1  0.98397526  0.67510880  0.66353351  1  0  0.347663  0  3.802965  0  0  0.335409  0  4.064408  0  0  0.347568  0  4.080111  0  0  0.08383  0.326672  0  4.053544  0
C  C44  1  0.48376816  0.98799088  0.66349875  1  0  0.347485  0  3.803545  0  0  0.334693  0  4.065685  0  0  0.346822  0  4.081397  0  0  0.083272  0.325992  0  4.054889  0
C  C45  1  0.01602038  0.32487098  0.33646311  1  0  0.347635  0  3.803166  0  0  0.335332  0  4.064662  0  0  0.347487  0  4.080376  0  0  0.083857  0.326602  0  4.053778  0
C  C46  1  0.44386176  0.11943443  0.40563176  1  0  -0.211498  0  3.765497  0  0  -0.227431  0  4.017428  0  0  -0.234333  0  4.03835  0  0  -0.114524  -0.222288  0  4.003001  0
C  C47  1  0.05626755  0.71385919  0.59451202  1  0  -0.2121  0  3.765447  0  0  -0.228013  0  4.016434  0  0  -0.234952  0  4.037407  0  0  -0.114777  -0.222878  0  4.001919  0
C  C48  1  0.55614253  0.88057619  0.59436648  1  0  -0.211507  0  3.765656  0  0  -0.227509  0  4.017604  0  0  -0.234405  0  4.038513  0  0  -0.114551  -0.22237  0  4.003184  0
C  C49  1  0.94372946  0.28613233  0.40549095  1  0  -0.212282  0  3.765766  0  0  -0.228131  0  4.016713  0  0  -0.235063  0  4.037682  0  0  -0.114875  -0.222997  0  4.002189  0
C  C50  1  0.50779120  0.19227424  0.49959722  1  0  -0.105539  0  3.763352  0  0  -0.126327  0  4.020342  0  0  -0.126593  0  4.04071  0  0  -0.091645  -0.12608  0  4.006515  0
C  C51  1  0.99236016  0.69288506  0.50054236  1  0  -0.105027  0  3.761859  0  0  -0.126366  0  4.019949  0  0  -0.126544  0  4.040313  0  0  -0.092284  -0.126518  0  4.007591  0
C  C52  1  0.49221752  0.80773954  0.50039856  1  0  -0.105467  0  3.763254  0  0  -0.126282  0  4.020362  0  0  -0.126548  0  4.040732  0  0  -0.091615  -0.126033  0  4.006523  0
C  C53  1  0.00764029  0.30711069  0.49945765  1  0  -0.10486  0  3.761944  0  0  -0.126184  0  4.020028  0  0  -0.12636  0  4.040388  0  0  -0.09226  -0.126341  0  4.007673  0
C  C54  1  0.64570285  0.16123922  0.52554631  1  0  0.136972  0  3.779626  0  0  0.126043  0  4.028787  0  0  0.128419  0  4.051589  0  0  0.079442  0.124466  0  4.013121  0
C  C55  1  0.85452702  0.63566120  0.47450216  1  0  0.136608  0  3.78129  0  0  0.12516  0  4.030529  0  0  0.127521  0  4.053317  0  0  0.07948  0.118499  0  4.012902  0
C  C56  1  0.35430120  0.83876287  0.47444780  1  0  0.136753  0  3.779675  0  0  0.125795  0  4.028877  0  0  0.128171  0  4.051673  0  0  0.079307  0.124227  0  4.0132  0
C  C57  1  0.14547454  0.36433238  0.52549255  1  0  0.136467  0  3.781529  0  0  0.124976  0  4.030824  0  0  0.127336  0  4.053615  0  0  0.079424  0.11829  0  4.013167  0
C  C58  1  0.71988811  0.05747287  0.45579461  1  0  -0.126969  0  3.772068  0  0  -0.14382  0  4.021169  0  0  -0.144569  0  4.041142  0  0  -0.096258  -0.143046  0  4.007783  0
C  C59  1  0.78040443  0.60132274  0.54416566  1  0  -0.125997  0  3.773293  0  0  -0.143281  0  4.022665  0  0  -0.144044  0  4.042633  0  0  -0.096089  -0.14283  0  4.010611  0
C  C60  1  0.28011228  0.94252074  0.54420420  1  0  -0.127027  0  3.771921  0  0  -0.143892  0  4.021009  0  0  -0.144618  0  4.041003  0  0  -0.096284  -0.143116  0  4.007624  0
C  C61  1  0.21959785  0.39866017  0.45582516  1  0  -0.126005  0  3.77334  0  0  -0.143271  0  4.022711  0  0  -0.144026  0  4.042664  0  0  -0.096098  -0.142837  0  4.010688  0
C  C62  1  0.65534380  0.98319519  0.36237079  1  0  -0.168319  0  3.709888  0  0  -0.188749  0  3.963294  0  0  -0.194217  0  3.98317  0  0  -0.105405  -0.184958  0  3.950382  0
C  C63  1  0.84497611  0.62020530  0.63755194  1  0  -0.16845  0  3.709455  0  0  -0.189068  0  3.962973  0  0  -0.194534  0  3.982813  0  0  -0.105861  -0.185271  0  3.950006  0
C  C64  1  0.34465644  0.01679736  0.63763192  1  0  -0.168272  0  3.709605  0  0  -0.188698  0  3.962951  0  0  -0.194162  0  3.982813  0  0  -0.105357  -0.184889  0  3.950055  0
C  C65  1  0.15502180  0.37977552  0.36244090  1  0  -0.168584  0  3.709528  0  0  -0.189123  0  3.96304  0  0  -0.194599  0  3.982873  0  0  -0.10592  -0.185304  0  3.950078  0
C  C66  1  0.99925991  0.05360260  0.75363968  1  0  -0.315291  0  3.620514  0  0  -0.349778  0  3.874032  0  0  -0.353412  0  3.877653  0  0  -0.141459  -0.347388  0  3.8719  0
C  C67  1  0.50086622  0.30016884  0.24640092  1  0  -0.315299  0  3.619837  0  0  -0.348985  0  3.872566  0  0  -0.352829  0  3.876438  0  0  -0.14133  -0.346499  0  3.870314  0
C  C68  1  0.00073975  0.94639633  0.24635481  1  0  -0.315295  0  3.620521  0  0  -0.349775  0  3.874171  0  0  -0.353431  0  3.877816  0  0  -0.141475  -0.347379  0  3.872033  0
C  C69  1  0.49912712  0.69983443  0.75359909  1  0  -0.315196  0  3.619711  0  0  -0.348862  0  3.872374  0  0  -0.352684  0  3.876214  0  0  -0.141265  -0.346359  0  3.87009  0
C  C70  1  0.91435772  0.00945246  0.82488886  1  0  0.729459  0  3.879225  0  0  0.683841  0  4.174471  0  0  0.716756  0  4.167669  0  0  0.215773  0.661435  0  4.178123  0
C  C71  1  0.58567091  0.18498699  0.17504825  1  0  0.730914  0  3.877669  0  0  0.683618  0  4.175242  0  0  0.716619  0  4.1684  0  0  0.216126  0.661162  0  4.178904  0
C  C72  1  0.08563869  0.99054437  0.17510563  1  0  0.729591  0  3.879073  0  0  0.683912  0  4.174364  0  0  0.716835  0  4.167555  0  0  0.215763  0.661496  0  4.17803  0
C  C73  1  0.41432230  0.81501308  0.82495167  1  0  0.730843  0  3.87813  0  0  0.683714  0  4.175442  0  0  0.71671  0  4.168599  0  0  0.2163  0.661252  0  4.179112  0
C  C74  1  0.80864883  0.19206513  0.67952703  1  0  0.204933  0  3.774785  0  0  0.174063  0  4.080334  0  0  0.189242  0  4.091133  0  0  0.226213  0.16386  0  4.072942  0
C  C75  1  0.69141024  0.51279295  0.32061008  1  0  0.205277  0  3.77247  0  0  0.173022  0  4.079718  0  0  0.188129  0  4.090528  0  0  0.225628  0.157908  0  4.070313  0
C  C76  1  0.19135624  0.80793696  0.32046853  1  0  0.204863  0  3.774778  0  0  0.174051  0  4.080259  0  0  0.18923  0  4.091056  0  0  0.226308  0.16385  0  4.072865  0
C  C77  1  0.30859124  0.48720065  0.67938740  1  0  0.205249  0  3.772453  0  0  0.172957  0  4.079729  0  0  0.188061  0  4.090544  0  0  0.225597  0.157805  0  4.070314  0
S  S78  1  0.90561866  0.03955503  0.63777112  1  0  0.06914  0  2.551202  0  0  0.059459  0  2.918044  0  0  0.056223  0  2.917254  0  0  0.067497  0.061762  0  2.919377  0
S  S79  1  0.59448068  0.40183309  0.36229160  1  0  0.068692  0  2.549515  0  0  0.058842  0  2.917048  0  0  0.055687  0  2.916378  0  0  0.067387  0.06074  0  2.919925  0
S  S80  1  0.09438627  0.96044493  0.36222600  1  0  0.069094  0  2.551275  0  0  0.059392  0  2.918086  0  0  0.056165  0  2.917305  0  0  0.067463  0.06169  0  2.919416  0
S  S81  1  0.40551680  0.59816479  0.63770389  1  0  0.0687  0  2.549424  0  0  0.058869  0  2.916957  0  0  0.055711  0  2.916278  0  0  0.06739  0.060772  0  2.91983  0
N  N82  1  0.70598511  0.23260171  0.62377632  1  0  -0.037646  0  3.525291  0  0  0.04484  0  3.743949  0  0  0.032516  0  3.766427  0  0  -0.109416  0.052807  0  3.728832  0
N  N83  1  0.79418469  0.60899626  0.37630493  1  0  -0.03747  0  3.525904  0  0  0.046707  0  3.744297  0  0  0.03446  0  3.766794  0  0  -0.108605  0.072168  0  3.704788  0
N  N84  1  0.29402428  0.76740140  0.37621764  1  0  -0.037493  0  3.525224  0  0  0.044964  0  3.743887  0  0  0.032642  0  3.766364  0  0  -0.109457  0.052924  0  3.728768  0
N  N85  1  0.20581891  0.39099517  0.62368939  1  0  -0.037467  0  3.525963  0  0  0.046744  0  3.744381  0  0  0.034497  0  3.766878  0  0  -0.108598  0.072322  0  3.70474  0
N  N86  1  0.65500859  0.35927853  0.68251677  1  0  -0.092422  0  2.85697  0  0  -0.09976  0  3.149874  0  0  -0.097747  0  3.15934  0  0  -0.073949  -0.101279  0  3.144009  0
N  N87  1  0.84506860  0.67703059  0.31754960  1  0  -0.092779  0  2.856935  0  0  -0.101254  0  3.150452  0  0  -0.099299  0  3.159967  0  0  -0.074615  -0.107745  0  3.140616  0
N  N88  1  0.34499765  0.64072781  0.31748126  1  0  -0.09242  0  2.857013  0  0  -0.099737  0  3.149924  0  0  -0.097725  0  3.159391  0  0  -0.073895  -0.101255  0  3.144049  0
N  N89  1  0.15493387  0.32295872  0.68244414  1  0  -0.092611  0  2.85696  0  0  -0.101088  0  3.150476  0  0  -0.099134  0  3.159994  0  0  -0.074552  -0.107607  0  3.140609  0
N  N90  1  0.72423676  0.39075262  0.76874753  1  0  -0.068997  0  3.028605  0  0  -0.049669  0  3.333175  0  0  -0.046812  0  3.337817  0  0  -0.071094  -0.051243  0  3.3301  0
N  N91  1  0.77567479  0.62240718  0.23136644  1  0  -0.068732  0  3.027961  0  0  -0.048779  0  3.332668  0  0  -0.045935  0  3.337348  0  0  -0.07021  -0.050953  0  3.331618  0
N  N92  1  0.27577049  0.60925265  0.23125030  1  0  -0.068963  0  3.028535  0  0  -0.049636  0  3.333083  0  0  -0.04678  0  3.337726  0  0  -0.071081  -0.051209  0  3.329998  0
N  N93  1  0.22432870  0.37758106  0.76862711  1  0  -0.06888  0  3.028174  0  0  -0.048921  0  3.332898  0  0  -0.046077  0  3.337585  0  0  -0.070201  -0.051091  0  3.33185  0
N  N94  1  0.81981474  0.29090393  0.77072671  1  0  -0.297473  0  2.928828  0  0  -0.283968  0  3.219428  0  0  -0.293676  0  3.226826  0  0  -0.219763  -0.277455  0  3.214616  0
N  N95  1  0.68010265  0.52058807  0.22944224  1  0  -0.297472  0  2.927259  0  0  -0.284259  0  3.218669  0  0  -0.293905  0  3.22606  0  0  -0.220447  -0.278336  0  3.215891  0
N  N96  1  0.18019261  0.70910240  0.22926930  1  0  -0.297509  0  2.928801  0  0  -0.284007  0  3.219378  0  0  -0.293719  0  3.226779  0  0  -0.219851  -0.277491  0  3.214559  0
N  N97  1  0.31989978  0.47940125  0.77055289  1  0  -0.297407  0  2.927359  0  0  -0.284174  0  3.218762  0  0  -0.293821  0  3.226157  0  0  -0.220433  -0.278247  0  3.215992  0
O  O98  1  0.78295292  0.97662291  0.80622695  1  0  -0.695958  0  2.00535  0  0  -0.636987  0  2.240486  0  0  -0.663675  0  2.233221  0  0  -0.345039  -0.618106  0  2.245169  0
O  O99  1  0.71708722  0.17076100  0.19361300  1  0  -0.696141  0  2.004045  0  0  -0.636479  0  2.239516  0  0  -0.663185  0  2.232188  0  0  -0.345515  -0.61759  0  2.244219  0
O  O100  1  0.21704396  0.02338992  0.19377416  1  0  -0.696073  0  2.005216  0  0  -0.637021  0  2.240328  0  0  -0.66372  0  2.233065  0  0  -0.345045  -0.618123  0  2.245021  0
O  O101  1  0.28289297  0.82921365  0.80639883  1  0  -0.696144  0  2.00414  0  0  -0.636639  0  2.239589  0  0  -0.66332  0  2.232253  0  0  -0.345715  -0.61777  0  2.244294  0
O  O102  1  0.98502709  0.00820110  0.90229836  1  0  -0.712931  0  1.976307  0  0  -0.650723  0  2.214516  0  0  -0.678848  0  2.207462  0  0  -0.386887  -0.630628  0  2.218764  0
O  O103  1  0.51497407  0.10652162  0.09760460  1  0  -0.713786  0  1.975911  0  0  -0.651005  0  2.214625  0  0  -0.679139  0  2.207522  0  0  -0.38666  -0.630897  0  2.218933  0
O  O104  1  0.01497523  0.99178288  0.09769272  1  0  -0.712943  0  1.976197  0  0  -0.650729  0  2.214455  0  0  -0.678855  0  2.207398  0  0  -0.386848  -0.630634  0  2.21871  0
O  O105  1  0.48502437  0.89349542  0.90238442  1  0  -0.71371  0  1.976302  0  0  -0.650967  0  2.214913  0  0  -0.679105  0  2.207816  0  0  -0.386653  -0.630856  0  2.219221  0
O  O106  1  0.45622387  0.93298677  0.24572624  1  0  -0.539812  0  2.138032  0  0  -0.477964  0  2.346417  0  0  -0.499024  0  2.336745  0  0  -0.335435  -0.462765  0  2.352479  0
O  O107  1  0.04394527  0.68661574  0.75429280  1  0  -0.539374  0  2.138671  0  0  -0.477544  0  2.346746  0  0  -0.498693  0  2.33694  0  0  -0.335575  -0.462386  0  2.35289  0
O  O108  1  0.54377273  0.06702074  0.75427705  1  0  -0.539695  0  2.138027  0  0  -0.477868  0  2.346477  0  0  -0.498944  0  2.336794  0  0  -0.335475  -0.462646  0  2.352429  0
O  O109  1  0.95604311  0.31337051  0.24570771  1  0  -0.539264  0  2.138462  0  0  -0.4774  0  2.346655  0  0  -0.498587  0  2.336841  0  0  -0.335474  -0.462216  0  2.352854  0
O  O110  1  0.83914257  0.68491997  0.89225473  1  0  -0.868425  0  1.777016  0  0  -0.812761  0  1.935351  0  0  -0.830568  0  1.905057  0  0  -0.62258  -0.799917  0  1.956495  0
O  O111  1  0.66066689  0.79258991  0.10769029  1  0  -0.868983  0  1.776361  0  0  -0.813555  0  1.934416  0  0  -0.831338  0  1.904181  0  0  -0.623044  -0.800734  0  1.9556  0
O  O112  1  0.16083049  0.31507385  0.10773629  1  0  -0.868332  0  1.777158  0  0  -0.812656  0  1.935486  0  0  -0.830457  0  1.905205  0  0  -0.622488  -0.799813  0  1.956637  0
O  O113  1  0.33930446  0.20740815  0.89229193  1  0  -0.869213  0  1.776146  0  0  -0.813797  0  1.934128  0  0  -0.831582  0  1.903888  0  0  -0.622985  -0.800962  0  1.955313  0
O  O114  1  0.75007948  0.25203217  0.99954098  1  0  -0.837047  0  1.7634  0  0  -0.789027  0  1.914609  0  0  -0.804774  0  1.88848  0  0  -0.586808  -0.777839  0  1.933124  0
O  O115  1  0.25002549  0.74802152  0.00052336  1  0  -0.837377  0  1.763153  0  0  -0.789326  0  1.914256  0  0  -0.805071  0  1.888128  0  0  -0.586949  -0.778129  0  1.932758  0
