# generated using pymatgen
data_GdH6(C3O4)2
_symmetry_space_group_name_H-M   'P 1'
_cell_length_a   6.14718508
_cell_length_b   10.03711892
_cell_length_c   15.35772904
_cell_angle_alpha   103.91780396
_cell_angle_beta   89.98245796
_cell_angle_gamma   107.85236160
_symmetry_Int_Tables_number   1
_chemical_formula_structural   GdH6(C3O4)2
_chemical_formula_sum   'Gd4 H24 C24 O32'
_cell_volume   872.69724471
_cell_formula_units_Z   4
loop_
 _symmetry_equiv_pos_site_id
 _symmetry_equiv_pos_as_xyz
  1  'x, y, z'
loop_
 _atom_site_type_symbol
 _atom_site_label
 _atom_site_symmetry_multiplicity
 _atom_site_fract_x
 _atom_site_fract_y
 _atom_site_fract_z
 _atom_site_occupancy
 _atom_site_pbe_cm5_charge
 _atom_site_pbe_ddec_charge
 _atom_site_pbe_ddec_spin_density
 _atom_site_pbe_ddec_sum_bond_order
 _atom_site_pbe_magmom
Gd  Gd0  1  0.53344587  0.19221944  0.70627385  1  1.477094  2.0122  -0.008081  2.175933  -0.005
Gd  Gd1  1  0.34176633  0.80778885  0.79369383  1  1.477079  2.01203  -0.008087  2.176793  -0.005
Gd  Gd2  1  0.46655802  0.80778176  0.29372726  1  1.477089  2.012171  -0.008082  2.175991  -0.005
Gd  Gd3  1  0.65822944  0.19220912  0.20630745  1  1.477086  2.012048  -0.008087  2.176805  -0.005
H  H4  1  0.07042404  0.71401699  0.50132050  1  0.123795  0.156939  0.001338  0.964981  0.001
H  H5  1  0.35539154  0.28577537  0.99866486  1  0.12391  0.15671  0.001333  0.965224  0.001
H  H6  1  0.92957876  0.28598528  0.49868012  1  0.123792  0.156958  0.001338  0.964993  0.001
H  H7  1  0.64461505  0.71422473  0.00133478  1  0.123914  0.156708  0.001333  0.96521  0.001
H  H8  1  0.87455000  0.80676227  0.54072618  1  0.127857  0.170712  -0.00419  0.947064  -0.004
H  H9  1  0.06678450  0.19293574  0.95915709  1  0.127772  0.171401  -0.004249  0.947314  -0.004
H  H10  1  0.12544682  0.19323780  0.45927216  1  0.127861  0.170703  -0.004189  0.947063  -0.004
H  H11  1  0.93322536  0.80706436  0.04084321  1  0.12777  0.171397  -0.004248  0.947287  -0.004
H  H12  1  0.59349177  0.57262621  0.55877116  1  0.11944  0.154764  0.000664  0.986396  0.001
H  H13  1  0.02051071  0.42753346  0.94121460  1  0.118833  0.154248  0.000661  0.987333  0.001
H  H14  1  0.40650832  0.42737388  0.44122848  1  0.119443  0.154765  0.000664  0.986391  0.001
H  H15  1  0.97949049  0.57246561  0.05878815  1  0.118827  0.154265  0.000661  0.987351  0.001
H  H16  1  0.80092149  0.49542859  0.50887311  1  0.114909  0.146513  -0.00033  0.979215  -0.001
H  H17  1  0.30514146  0.50442444  0.99119493  1  0.115029  0.146511  -0.000341  0.978579  -0.001
H  H18  1  0.19907751  0.50457259  0.49112669  1  0.114909  0.146498  -0.00033  0.979235  -0.001
H  H19  1  0.69485973  0.49557785  0.00880700  1  0.11503  0.146518  -0.00034  0.978613  -0.001
H  H20  1  0.76475475  0.04820590  0.54681844  1  0.304248  0.416196  -1.7e-05  0.912386  0.0
H  H21  1  0.71668257  0.95193507  0.95318983  1  0.304111  0.416589  -1.9e-05  0.912395  0.0
H  H22  1  0.23524913  0.95179528  0.45318136  1  0.304228  0.416144  -1.7e-05  0.912469  0.0
H  H23  1  0.28331698  0.04806395  0.04681030  1  0.304121  0.41662  -1.9e-05  0.912352  0.0
H  H24  1  0.93562288  0.12417776  0.63982894  1  0.304766  0.407549  -9.2e-05  0.926673  0.0
H  H25  1  0.81190011  0.87615760  0.86016997  1  0.304132  0.406173  -9e-05  0.92869  0.0
H  H26  1  0.06437883  0.87582233  0.36017070  1  0.304769  0.407542  -9.1e-05  0.926684  0.0
H  H27  1  0.18809727  0.12384034  0.13983000  1  0.304122  0.406181  -9e-05  0.928688  0.0
C  C28  1  0.22044200  0.91040262  0.60102273  1  0.231041  0.680868  0.000386  4.091985  0.002
C  C29  1  0.30936292  0.08948458  0.89895117  1  0.228745  0.677771  0.000405  4.096074  0.002
C  C30  1  0.77955427  0.08959961  0.39897593  1  0.231016  0.680903  0.000386  4.092046  0.002
C  C31  1  0.69064258  0.91051659  0.10104863  1  0.228773  0.677786  0.000405  4.095922  0.002
C  C32  1  0.01935300  0.77652777  0.56241887  1  -0.132987  -0.354478  -0.085359  3.758286  -0.061
C  C33  1  0.24196176  0.22326553  0.93752886  1  -0.132489  -0.353913  -0.085372  3.757627  -0.061
C  C34  1  0.98064221  0.22347232  0.43758077  1  -0.132943  -0.354453  -0.085337  3.758465  -0.061
C  C35  1  0.75804592  0.77673349  0.06247127  1  -0.132487  -0.353834  -0.085362  3.757574  -0.061
C  C36  1  0.83228075  0.75845091  0.70822256  1  0.24263  0.591329  -0.006964  4.07783  -0.005
C  C37  1  0.07310001  0.24159051  0.79180561  1  0.24184  0.589826  -0.007092  4.077851  -0.006
C  C38  1  0.16771825  0.24154702  0.29177675  1  0.242652  0.591359  -0.006958  4.07788  -0.005
C  C39  1  0.92690387  0.75841065  0.20819354  1  0.241793  0.589836  -0.007089  4.077857  -0.006
C  C40  1  0.93201327  0.67536151  0.62719744  1  0.071538  0.223063  -0.018259  3.936294  0.0
C  C41  1  0.25595813  0.32457160  0.87281591  1  0.071727  0.222928  -0.018302  3.936443  0.0
C  C42  1  0.06798357  0.32463210  0.37280123  1  0.071551  0.223109  -0.018252  3.936253  0.0
C  C43  1  0.74404521  0.67543175  0.12718487  1  0.071762  0.222829  -0.018301  3.93656  0.0
C  C44  1  0.67429391  0.42755593  0.62559693  1  0.206342  0.630859  -0.000394  4.157244  0.004
C  C45  1  0.24721812  0.57259998  0.87453019  1  0.20724  0.633825  -0.000305  4.154985  0.004
C  C46  1  0.32570509  0.57244525  0.37440287  1  0.206306  0.630782  -0.000394  4.157317  0.004
C  C47  1  0.75277657  0.42739908  0.12547190  1  0.207401  0.634077  -0.000304  4.154896  0.004
C  C48  1  0.74330451  0.54243541  0.57363196  1  -0.154607  -0.372669  -0.033316  3.860086  -0.024
C  C49  1  0.20062551  0.45757983  0.92641539  1  -0.154987  -0.373064  -0.032987  3.85931  -0.024
C  C50  1  0.25669287  0.45756252  0.42636736  1  -0.15461  -0.372609  -0.033322  3.860062  -0.024
C  C51  1  0.79937459  0.54242030  0.07358621  1  -0.154963  -0.373051  -0.032989  3.85929  -0.024
O  O52  1  0.11200776  0.63807946  0.65623429  1  -0.248386  -0.380582  -0.576656  1.889918  -0.494
O  O53  1  0.47329675  0.36180976  0.84373857  1  -0.248251  -0.38059  -0.576702  1.891367  -0.494
O  O54  1  0.88798960  0.36192169  0.34376421  1  -0.248424  -0.380645  -0.576678  1.88976  -0.494
O  O55  1  0.52670605  0.63819251  0.15626205  1  -0.248291  -0.38058  -0.576706  1.891391  -0.494
O  O56  1  0.34015950  0.92165189  0.67188770  1  -0.407357  -0.694625  -0.023915  2.428659  -0.02
O  O57  1  0.41727650  0.07810524  0.82793722  1  -0.407326  -0.694069  -0.023337  2.431761  -0.02
O  O58  1  0.65983841  0.07835035  0.32811161  1  -0.40736  -0.694668  -0.02392  2.428853  -0.02
O  O59  1  0.58273064  0.92189595  0.17206323  1  -0.407391  -0.694138  -0.02334  2.431767  -0.02
O  O60  1  0.26945139  0.01405959  0.56307075  1  -0.316428  -0.568377  -0.01219  2.175251  -0.011
O  O61  1  0.25551111  0.98603026  0.93709148  1  -0.314644  -0.566677  -0.012119  2.175907  -0.01
O  O62  1  0.73054487  0.98594262  0.43692660  1  -0.316443  -0.568434  -0.012188  2.175211  -0.011
O  O63  1  0.74449113  0.01397090  0.06290767  1  -0.314643  -0.566681  -0.012118  2.175852  -0.01
O  O64  1  0.96500326  0.81762202  0.78029427  1  -0.368965  -0.624197  -0.00165  2.36402  -0.002
O  O65  1  0.14674734  0.18244658  0.71973746  1  -0.368319  -0.623907  -0.001717  2.364265  -0.002
O  O66  1  0.03499628  0.18237699  0.21970521  1  -0.368993  -0.624248  -0.001648  2.363987  -0.002
O  O67  1  0.85325438  0.81755353  0.28026349  1  -0.36831  -0.623923  -0.001716  2.36428  -0.002
O  O68  1  0.63169039  0.76271396  0.69842243  1  -0.355929  -0.579031  -0.025879  2.264514  -0.022
O  O69  1  0.86824942  0.23733867  0.80161250  1  -0.355272  -0.577704  -0.026069  2.263085  -0.022
O  O70  1  0.36830701  0.23728402  0.30157950  1  -0.355902  -0.579  -0.025868  2.264568  -0.022
O  O71  1  0.13175121  0.76266252  0.19838795  1  -0.355237  -0.577666  -0.026067  2.26309  -0.022
O  O72  1  0.80438425  0.43491768  0.69257489  1  -0.288057  -0.511736  -0.178836  2.083658  -0.158
O  O73  1  0.36989983  0.56516555  0.80751718  1  -0.287772  -0.512562  -0.179273  2.082324  -0.158
O  O74  1  0.19560988  0.56508026  0.30742508  1  -0.28804  -0.511691  -0.178857  2.083644  -0.158
O  O75  1  0.63009269  0.43483568  0.19248523  1  -0.287861  -0.512719  -0.179288  2.082353  -0.158
O  O76  1  0.77812532  0.10210727  0.61140524  1  -0.669735  -0.89498  -0.002067  2.089943  -0.002
O  O77  1  0.67651331  0.89845097  0.88850194  1  -0.66922  -0.894288  -0.00202  2.09147  -0.002
O  O78  1  0.22187748  0.89789176  0.38859489  1  -0.669736  -0.89493  -0.002067  2.09002  -0.002
O  O79  1  0.32348407  0.10154697  0.11149803  1  -0.669232  -0.894325  -0.00202  2.09135  -0.002
O  O80  1  0.48848660  0.32289096  0.60018093  1  -0.381298  -0.610008  -0.024242  2.139641  -0.022
O  O81  1  0.16653547  0.67743310  0.90002180  1  -0.382028  -0.61154  -0.024269  2.140645  -0.022
O  O82  1  0.51151132  0.67710805  0.39981855  1  -0.381255  -0.609958  -0.024239  2.139704  -0.022
O  O83  1  0.83345217  0.32256489  0.09998078  1  -0.382117  -0.611653  -0.024267  2.140687  -0.022
