# generated using pymatgen
data_CdH21C26(NO)5
_symmetry_space_group_name_H-M   'P 1'
_cell_length_a   13.61572972
_cell_length_b   14.09683664
_cell_length_c   16.41569529
_cell_angle_alpha   90.00009275
_cell_angle_beta   89.99993486
_cell_angle_gamma   90.00046960
_symmetry_Int_Tables_number   1
_chemical_formula_structural   CdH21C26(NO)5
_chemical_formula_sum   'Cd4 H84 C104 N20 O20'
_cell_volume   3150.80750224
_cell_formula_units_Z   4
loop_
 _symmetry_equiv_pos_site_id
 _symmetry_equiv_pos_as_xyz
  1  'x, y, z'
loop_
 _atom_site_type_symbol
 _atom_site_label
 _atom_site_symmetry_multiplicity
 _atom_site_fract_x
 _atom_site_fract_y
 _atom_site_fract_z
 _atom_site_occupancy
 _atom_site_pbe_bader_charge
 _atom_site_pbe_bader_spin_density
 _atom_site_pbe_cm5_charge
 _atom_site_pbe_ddec_charge
 _atom_site_pbe_ddec_spin_density
 _atom_site_pbe_ddec_sum_bond_order
 _atom_site_pbe_magmom
Cd  Cd0  1  0.54056033  0.11966552  0.39505345  1  1.2391  0  0.76743  0.801081  0  2.272269  0
Cd  Cd1  1  0.95943979  0.88034184  0.89505515  1  1.239209  0  0.767412  0.801007  0  2.272284  0
Cd  Cd2  1  0.45943883  0.61966292  0.10494247  1  1.239165  0  0.76743  0.801048  0  2.272329  0
Cd  Cd3  1  0.04056386  0.38033570  0.60494203  1  1.239189  0  0.767404  0.800962  0  2.272382  0
H  H4  1  0.53888265  0.12244729  0.71958312  1  0.514476  0  0.341628  0.296113  0  0.896165  0
H  H5  1  0.96111403  0.87755619  0.21958513  1  0.514464  0  0.341607  0.296064  0  0.896216  0
H  H6  1  0.46111806  0.62244219  0.78041614  1  0.514472  0  0.341619  0.296115  0  0.896177  0
H  H7  1  0.03887264  0.37756101  0.28041542  1  0.51443  0  0.341641  0.296143  0  0.896206  0
H  H8  1  0.60334981  0.95599209  0.81932115  1  0.472676  0  0.306942  0.260345  0  0.96996  0
H  H9  1  0.89665261  0.04399739  0.31932814  1  0.472483  0  0.306878  0.260187  0  0.969914  0
H  H10  1  0.39665448  0.45599670  0.68067066  1  0.472473  0  0.306869  0.26017  0  0.969928  0
H  H11  1  0.10334664  0.54400277  0.18066645  1  0.472395  0  0.306859  0.260143  0  0.969952  0
H  H12  1  0.50679717  0.88747499  0.89467647  1  0.046399  0  0.097578  0.088555  0  1.040568  0
H  H13  1  0.99320956  0.11251321  0.39467920  1  0.046262  0  0.097544  0.088626  0  1.040528  0
H  H14  1  0.49321241  0.38748164  0.60532255  1  0.046275  0  0.097564  0.088604  0  1.040587  0
H  H15  1  0.00678881  0.61251840  0.10531549  1  0.046203  0  0.097519  0.088624  0  1.040504  0
H  H16  1  0.33861219  0.87687058  0.95391680  1  0.085775  0  0.103418  0.10985  0  1.009565  0
H  H17  1  0.16139517  0.12312301  0.45391743  1  0.085737  0  0.1034  0.109806  0  1.009755  0
H  H18  1  0.66139803  0.37687277  0.54608099  1  0.085685  0  0.103407  0.109781  0  1.009707  0
H  H19  1  0.83860182  0.62312613  0.04607667  1  0.085614  0  0.10341  0.109784  0  1.009742  0
H  H20  1  0.43003522  0.47595643  0.46473159  1  0.054051  0  0.108517  0.114441  0  0.999379  0
H  H21  1  0.06996992  0.52405350  0.96473255  1  0.054355  0  0.108547  0.114478  0  0.99939  0
H  H22  1  0.56996330  0.97595741  0.03527397  1  0.054087  0  0.108533  0.114475  0  0.999494  0
H  H23  1  0.93003877  0.02403934  0.53527571  1  0.054094  0  0.10853  0.11448  0  0.999507  0
H  H24  1  0.51185433  0.77956750  0.54853205  1  0.142673  0  0.104013  0.122313  0  1.040027  0
H  H25  1  0.98813524  0.22044134  0.04853068  1  0.142626  0  0.104019  0.122388  0  1.039933  0
H  H26  1  0.48814699  0.27956127  0.95146560  1  0.142592  0  0.104035  0.12234  0  1.03996  0
H  H27  1  0.01185450  0.72043231  0.45147148  1  0.142762  0  0.104  0.122356  0  1.04002  0
H  H28  1  0.51305884  0.95404422  0.53310364  1  0.094162  0  0.111932  0.078908  0  1.019737  0
H  H29  1  0.98693075  0.04596601  0.03310751  1  0.094216  0  0.111895  0.078848  0  1.01971  0
H  H30  1  0.48693662  0.45403943  0.96689364  1  0.094181  0  0.111898  0.078883  0  1.019714  0
H  H31  1  0.01305970  0.54595560  0.46689927  1  0.094234  0  0.111949  0.078937  0  1.019708  0
H  H32  1  0.43832487  0.29879544  0.47108148  1  0.127417  0  0.116343  0.091621  0  1.009744  0
H  H33  1  0.06166998  0.70121449  0.97108940  1  0.127831  0  0.116414  0.091655  0  1.009704  0
H  H34  1  0.56167435  0.79879564  0.02892018  1  0.127676  0  0.116311  0.091603  0  1.009711  0
H  H35  1  0.93833214  0.20120039  0.52891911  1  0.127578  0  0.116308  0.091615  0  1.009687  0
H  H36  1  0.57072541  0.61508876  0.30700208  1  0.147249  0  0.108453  0.124196  0  1.047524  0
H  H37  1  0.92928805  0.38491843  0.80699824  1  0.14718  0  0.108441  0.124127  0  1.047662  0
H  H38  1  0.42926931  0.11508727  0.19299749  1  0.147253  0  0.108416  0.12416  0  1.047535  0
H  H39  1  0.07072959  0.88490796  0.69300078  1  0.147156  0  0.108409  0.124164  0  1.047566  0
H  H40  1  0.50300511  0.62336640  0.48690738  1  0.064225  0  0.101655  0.097794  0  0.998438  0
H  H41  1  0.99699488  0.37663970  0.98690773  1  0.064182  0  0.101654  0.097836  0  0.998424  0
H  H42  1  0.49699702  0.12336298  0.01309159  1  0.064164  0  0.101636  0.097789  0  0.998369  0
H  H43  1  0.00300066  0.87663192  0.51309798  1  0.064354  0  0.101622  0.09773  0  0.998422  0
H  H44  1  0.66305623  0.46616704  0.28601409  1  0.100642  0  0.113835  0.126822  0  0.985554  0
H  H45  1  0.83695138  0.53383656  0.78602029  1  0.100644  0  0.113868  0.126903  0  0.985615  0
H  H46  1  0.33694148  0.96616226  0.21398780  1  0.100595  0  0.113847  0.126812  0  0.98552  0
H  H47  1  0.16305813  0.03383514  0.71399468  1  0.100482  0  0.113849  0.126841  0  0.985457  0
H  H48  1  0.72922707  0.09859379  0.76302680  1  0.04653  0  0.098813  0.105913  0  0.979705  0
H  H49  1  0.77076661  0.90141048  0.26302781  1  0.046523  0  0.098812  0.105938  0  0.979684  0
H  H50  1  0.27077197  0.59859279  0.73697364  1  0.046657  0  0.098782  0.105849  0  0.9798  0
H  H51  1  0.22922173  0.40140465  0.23697034  1  0.046581  0  0.098804  0.105872  0  0.979819  0
H  H52  1  0.80837365  0.05949589  0.68467550  1  0.095016  0  0.10632  0.120652  0  0.985523  0
H  H53  1  0.69162381  0.94050965  0.18467786  1  0.094858  0  0.106296  0.120664  0  0.985524  0
H  H54  1  0.19162799  0.55948803  0.81532245  1  0.094944  0  0.106278  0.12057  0  0.9855  0
H  H55  1  0.30836927  0.44050459  0.31531852  1  0.095242  0  0.106317  0.120641  0  0.985531  0
H  H56  1  0.73094648  0.07788751  0.52156153  1  0.134765  0  0.118077  0.131452  0  1.012078  0
H  H57  1  0.76905194  0.92211277  0.02156440  1  0.134763  0  0.118086  0.131428  0  1.012067  0
H  H58  1  0.26905018  0.57789332  0.97843949  1  0.134703  0  0.118075  0.131474  0  1.012055  0
H  H59  1  0.23094393  0.42210882  0.47843256  1  0.134858  0  0.118089  0.131518  0  1.012024  0
H  H60  1  0.39051313  0.81515170  0.65862799  1  0.088841  0  0.102278  0.104867  0  1.012456  0
H  H61  1  0.10948875  0.18484063  0.15862936  1  0.088811  0  0.10222  0.10479  0  1.012464  0
H  H62  1  0.60949069  0.31516113  0.84137154  1  0.088804  0  0.102227  0.104788  0  1.012458  0
H  H63  1  0.89051464  0.68484400  0.34136787  1  0.088872  0  0.102259  0.104829  0  1.012381  0
H  H64  1  0.22100839  0.81174890  0.71807057  1  0.093128  0  0.102217  0.10305  0  1.025472  0
H  H65  1  0.27899415  0.18825630  0.21807057  1  0.09305  0  0.102182  0.102995  0  1.025526  0
H  H66  1  0.77899687  0.31174892  0.78192835  1  0.093495  0  0.102194  0.103006  0  1.025501  0
H  H67  1  0.72100633  0.68825255  0.28192850  1  0.093531  0  0.102231  0.103075  0  1.025458  0
H  H68  1  0.72542173  0.90311604  0.67893833  1  0.115531  0  0.122606  0.098025  0  0.961155  0
H  H69  1  0.77458603  0.09688595  0.17894003  1  0.115655  0  0.122554  0.098007  0  0.961199  0
H  H70  1  0.27458358  0.40311072  0.82105645  1  0.115652  0  0.122545  0.097949  0  0.961251  0
H  H71  1  0.22541368  0.59688333  0.32105586  1  0.11575  0  0.122499  0.097966  0  0.961197  0
H  H72  1  0.53799994  0.93618972  0.28258849  1  0.108224  0  0.110692  0.08096  0  1.029509  0
H  H73  1  0.96199519  0.06381103  0.78259147  1  0.108311  0  0.110672  0.080921  0  1.029457  0
H  H74  1  0.46199825  0.43618995  0.21740787  1  0.108305  0  0.110698  0.080968  0  1.029509  0
H  H75  1  0.03799988  0.56380816  0.71741379  1  0.108139  0  0.110665  0.08091  0  1.029513  0
H  H76  1  0.66358426  0.28888047  0.30246712  1  0.092258  0  0.12007  0.092169  0  0.981369  0
H  H77  1  0.83641304  0.71112103  0.80247479  1  0.092161  0  0.120073  0.092173  0  0.981487  0
H  H78  1  0.33641340  0.78887495  0.19753513  1  0.09217  0  0.120114  0.092234  0  0.981252  0
H  H79  1  0.16358623  0.21112171  0.69753738  1  0.092225  0  0.120095  0.092253  0  0.981215  0
H  H80  1  0.53410662  0.75922164  0.28528274  1  0.130454  0  0.109842  0.126656  0  1.01999  0
H  H81  1  0.96589731  0.24077912  0.78528231  1  0.130452  0  0.109841  0.126651  0  1.019978  0
H  H82  1  0.46589666  0.25922331  0.21471581  1  0.130489  0  0.109827  0.126601  0  1.020056  0
H  H83  1  0.03410294  0.74077550  0.71471894  1  0.130428  0  0.109846  0.126639  0  1.019983  0
H  H84  1  0.44459122  0.15970125  0.58772950  1  0.162754  0  0.141214  0.114286  0  0.982214  0
H  H85  1  0.05540929  0.84030655  0.08773367  1  0.16271  0  0.141191  0.114231  0  0.982318  0
H  H86  1  0.55540981  0.65970069  0.91226920  1  0.16267  0  0.141228  0.114315  0  0.982212  0
H  H87  1  0.94458073  0.34030811  0.41227048  1  0.162538  0  0.141235  0.114347  0  0.982276  0
C  C88  1  0.26960372  0.84600157  0.83934597  1  -0.012972  0  -0.012581  -0.011955  0  3.938775  0
C  C89  1  0.23040233  0.15399322  0.33934597  1  -0.013039  0  -0.012691  -0.012079  0  3.938851  0
C  C90  1  0.73040331  0.34600878  0.66065239  1  -0.013019  0  -0.01274  -0.012139  0  3.938728  0
C  C91  1  0.76959639  0.65399104  0.16065122  1  -0.012974  0  -0.012664  -0.012059  0  3.938889  0
C  C92  1  0.44442882  0.87138173  0.85520390  1  0.012812  0  -0.096306  -0.130969  0  4.019687  0
C  C93  1  0.05557867  0.12860813  0.35520890  1  0.013234  0  -0.096256  -0.131118  0  4.020102  0
C  C94  1  0.55558062  0.37139179  0.64479449  1  0.01332  0  -0.096292  -0.131146  0  4.020075  0
C  C95  1  0.94442130  0.62861084  0.14478886  1  0.013283  0  -0.096231  -0.13105  0  4.019983  0
C  C96  1  0.55609311  0.86511256  0.73026061  1  1.41088  0  0.228916  0.468375  0  4.162443  0
C  C97  1  0.94390943  0.13487462  0.23026890  1  1.412048  0  0.228742  0.468147  0  4.162861  0
C  C98  1  0.44391114  0.36512197  0.76973229  1  1.411562  0  0.228734  0.468081  0  4.162566  0
C  C99  1  0.05608839  0.63487695  0.26972582  1  1.411905  0  0.228801  0.468229  0  4.162937  0
C  C100  1  0.35075550  0.86523604  0.88904959  1  -0.089346  0  -0.081879  -0.082697  0  3.958759  0
C  C101  1  0.14925342  0.13475671  0.38905086  1  -0.089471  0  -0.081817  -0.082557  0  3.958998  0
C  C102  1  0.64925610  0.36524110  0.61094818  1  -0.089498  0  -0.081784  -0.082457  0  3.958842  0
C  C103  1  0.85074587  0.63475721  0.11094630  1  -0.089497  0  -0.081834  -0.082547  0  3.95896  0
C  C104  1  0.54834995  0.48649180  0.37604203  1  -0.011435  0  0.012682  0.155962  0  4.012739  0
C  C105  1  0.95165606  0.51351694  0.87604260  1  -0.011535  0  0.012722  0.155969  0  4.012759  0
C  C106  1  0.45164572  0.98648917  0.12395989  1  -0.011345  0  0.012633  0.156044  0  4.012756  0
C  C107  1  0.04835107  0.01350948  0.62396320  1  -0.011613  0  0.012734  0.156097  0  4.012887  0
C  C108  1  0.48462929  0.43762886  0.42895480  1  0.020309  0  -0.083973  -0.184962  0  3.94318  0
C  C109  1  0.01537223  0.56237887  0.92895769  1  0.020322  0  -0.083905  -0.1849  0  3.943179  0
C  C110  1  0.51536597  0.93762806  0.07104644  1  0.020385  0  -0.083947  -0.185048  0  3.943429  0
C  C111  1  0.98463312  0.06237018  0.57105062  1  0.020529  0  -0.083993  -0.185126  0  3.943655  0
C  C112  1  0.45881437  0.85494965  0.77175204  1  -0.069896  0  -0.02323  -0.03788  0  4.027507  0
C  C113  1  0.04118956  0.14504005  0.27175464  1  -0.069964  0  -0.023325  -0.03794  0  4.027783  0
C  C114  1  0.54119346  0.35495975  0.72824511  1  -0.070032  0  -0.023308  -0.037822  0  4.027666  0
C  C115  1  0.95880835  0.64504445  0.22824071  1  -0.071062  0  -0.023318  -0.038137  0  4.028032  0
C  C116  1  0.16687400  0.85111370  0.87309665  1  1.563193  0  0.187567  0.554298  0  4.253536  0
C  C117  1  0.33313273  0.14889322  0.37309349  1  1.563033  0  0.187458  0.55415  0  4.253856  0
C  C118  1  0.83313306  0.35111030  0.62690537  1  1.563168  0  0.187511  0.554174  0  4.253962  0
C  C119  1  0.66686668  0.64888875  0.12690673  1  1.563008  0  0.187393  0.554047  0  4.253911  0
C  C120  1  0.51489584  0.81029704  0.48762207  1  -0.050834  0  -0.085179  -0.180879  0  3.919458  0
C  C121  1  0.98509755  0.18970906  0.98762216  1  -0.050873  0  -0.0852  -0.180946  0  3.919374  0
C  C122  1  0.48510054  0.31029211  0.01237656  1  -0.05084  0  -0.085194  -0.180864  0  3.91938  0
C  C123  1  0.01489933  0.68970350  0.51238024  1  -0.050815  0  -0.085175  -0.180939  0  3.91959  0
C  C124  1  0.51694903  0.90834457  0.47964075  1  0.494699  0  0.044238  0.100736  0  3.971186  0
C  C125  1  0.98304142  0.09166436  0.97964436  1  0.494964  0  0.044296  0.100855  0  3.970975  0
C  C126  1  0.48304598  0.40834034  0.02035740  1  0.494849  0  0.044201  0.100721  0  3.971019  0
C  C127  1  0.01695756  0.59165740  0.52036216  1  0.494972  0  0.044211  0.100715  0  3.971223  0
C  C128  1  0.78918033  0.92021669  0.79898135  1  1.595342  0  0.185967  0.547821  0  4.231598  0
C  C129  1  0.71081551  0.07979190  0.29897761  1  1.594262  0  0.186055  0.548143  0  4.231474  0
C  C130  1  0.21082513  0.42021562  0.70101528  1  1.595138  0  0.186129  0.547907  0  4.231744  0
C  C131  1  0.28917670  0.57978601  0.20101582  1  1.59543  0  0.186057  0.548006  0  4.231582  0
C  C132  1  0.66299782  0.08808822  0.64517863  1  0.302923  0  0.08167  0.168497  0  3.978228  0
C  C133  1  0.83700116  0.91191228  0.14518142  1  0.302891  0  0.081725  0.168522  0  3.978454  0
C  C134  1  0.33700113  0.58808725  0.85482058  1  0.302972  0  0.081739  0.168569  0  3.978191  0
C  C135  1  0.16299094  0.41191041  0.35481918  1  0.303069  0  0.081815  0.168755  0  3.978416  0
C  C136  1  0.48897017  0.33942529  0.43307456  1  0.417444  0  0.043176  0.087117  0  3.972429  0
C  C137  1  0.01102987  0.66058245  0.93307882  1  0.416468  0  0.043043  0.086996  0  3.972488  0
C  C138  1  0.51102866  0.83942303  0.06692898  1  0.417247  0  0.043166  0.087088  0  3.972387  0
C  C139  1  0.98897631  0.16057236  0.56692841  1  0.417388  0  0.043219  0.087201  0  3.972539  0
C  C140  1  0.54686388  0.58911268  0.36661149  1  0.034286  0  -0.076874  -0.113067  0  3.935131  0
C  C141  1  0.95314582  0.41089462  0.86660888  1  0.034389  0  -0.077013  -0.112991  0  3.935344  0
C  C142  1  0.45313061  0.08910984  0.13338804  1  0.034389  0  -0.076872  -0.113094  0  3.934923  0
C  C143  1  0.04686543  0.91088811  0.63339261  1  0.034466  0  -0.076825  -0.112971  0  3.935044  0
C  C144  1  0.52151034  0.65025046  0.42626787  1  -0.132019  0  -0.082106  -0.120087  0  3.961684  0
C  C145  1  0.97850075  0.34975482  0.92626453  1  -0.132081  0  -0.08202  -0.120128  0  3.961617  0
C  C146  1  0.47848761  0.15024701  0.07373114  1  -0.132044  0  -0.082078  -0.120055  0  3.961547  0
C  C147  1  0.02150630  0.84974942  0.57373870  1  -0.132102  0  -0.082096  -0.120079  0  3.961739  0
C  C148  1  0.61375866  0.43170242  0.32922274  1  -0.083213  0  -0.07616  -0.174635  0  3.921753  0
C  C149  1  0.88624301  0.56830623  0.82922772  1  -0.083484  0  -0.076312  -0.174904  0  3.922218  0
C  C150  1  0.38623655  0.93169723  0.17077789  1  -0.084102  0  -0.076199  -0.174683  0  3.921934  0
C  C151  1  0.11376091  0.06830008  0.67078425  1  -0.083243  0  -0.076144  -0.174657  0  3.921731  0
C  C152  1  0.73305998  0.05372198  0.70811286  1  -0.000281  0  -0.147356  -0.250107  0  3.950909  0
C  C153  1  0.76693818  0.94627935  0.20811393  1  -0.000145  0  -0.147349  -0.250205  0  3.950958  0
C  C154  1  0.26694161  0.55371751  0.79188448  1  -0.000392  0  -0.1473  -0.24998  0  3.950937  0
C  C155  1  0.23305642  0.44627791  0.29188306  1  -0.000652  0  -0.147379  -0.250076  0  3.951048  0
C  C156  1  0.66969457  0.09375469  0.56153246  1  0.40869  0  -0.001788  -0.100562  0  3.944434  0
C  C157  1  0.83030306  0.90624707  0.06153464  1  0.408704  0  -0.001823  -0.100551  0  3.94447  0
C  C158  1  0.33030296  0.59375808  0.93846797  1  0.408739  0  -0.00178  -0.100598  0  3.94438  0
C  C159  1  0.16969120  0.40624399  0.43846412  1  0.408811  0  -0.001987  -0.100969  0  3.944563  0
C  C160  1  0.52161728  0.75303877  0.41777180  1  -0.025643  0  0.007258  0.153472  0  4.022565  0
C  C161  1  0.97838428  0.24696650  0.91777076  1  -0.025518  0  0.007256  0.153377  0  4.022507  0
C  C162  1  0.47838229  0.25303391  0.08222735  1  -0.025757  0  0.007303  0.153375  0  4.02265  0
C  C163  1  0.02161823  0.74695899  0.58223294  1  -0.02558  0  0.00725  0.153383  0  4.022686  0
C  C164  1  0.37827069  0.82969185  0.72308948  1  -0.076896  0  -0.093307  -0.115329  0  4.005323  0
C  C165  1  0.12173331  0.17029776  0.22309083  1  -0.077128  0  -0.093268  -0.115315  0  4.005273  0
C  C166  1  0.62173546  0.32970409  0.77690946  1  -0.077179  0  -0.093293  -0.115347  0  4.005364  0
C  C167  1  0.87826996  0.67030091  0.27690578  1  -0.075479  0  -0.093249  -0.115173  0  4.005227  0
C  C168  1  0.28442919  0.82711079  0.75629982  1  -0.014599  0  -0.087746  -0.098234  0  3.985185  0
C  C169  1  0.21557623  0.17288597  0.25629985  1  -0.01415  0  -0.087615  -0.09803  0  3.985071  0
C  C170  1  0.71557693  0.32711875  0.74370095  1  -0.014547  0  -0.087632  -0.09807  0  3.985056  0
C  C171  1  0.78442632  0.67288761  0.24369675  1  -0.015085  0  -0.087729  -0.09821  0  3.985028  0
C  C172  1  0.71523440  0.94857305  0.73252489  1  0.321864  0  0.011538  0.033599  0  3.845825  0
C  C173  1  0.78476373  0.05142832  0.23252652  1  0.321549  0  0.011473  0.033463  0  3.845856  0
C  C174  1  0.28476982  0.44857269  0.76746996  1  0.322056  0  0.011537  0.0336  0  3.845988  0
C  C175  1  0.21522897  0.55142339  0.26746748  1  0.321839  0  0.011584  0.03341  0  3.846205  0
C  C176  1  0.53133685  0.89770097  0.33988668  1  0.379585  0  0.037578  0.083962  0  3.981432  0
C  C177  1  0.96866040  0.10230060  0.83989032  1  0.379657  0  0.037628  0.084011  0  3.981517  0
C  C178  1  0.46866321  0.39769973  0.16011085  1  0.379644  0  0.037585  0.083953  0  3.981559  0
C  C179  1  0.03133353  0.60229686  0.66011500  1  0.379637  0  0.037564  0.083921  0  3.981429  0
C  C180  1  0.61431715  0.33370101  0.33810076  1  0.511558  0  0.050674  0.096455  0  3.974858  0
C  C181  1  0.88568084  0.66630482  0.83810953  1  0.51213  0  0.050668  0.096522  0  3.975174  0
C  C182  1  0.38568090  0.83369651  0.16190156  1  0.512362  0  0.050688  0.096499  0  3.974799  0
C  C183  1  0.11431951  0.16630008  0.66190319  1  0.511433  0  0.050614  0.096368  0  3.974826  0
C  C184  1  0.52959433  0.79936189  0.34195963  1  0.024454  0  -0.083149  -0.176399  0  3.908855  0
C  C185  1  0.97040733  0.20064040  0.84195975  1  0.024311  0  -0.083182  -0.176385  0  3.908891  0
C  C186  1  0.47040930  0.29936065  0.15803898  1  0.024419  0  -0.083158  -0.176307  0  3.908902  0
C  C187  1  0.02958818  0.70063380  0.65804388  1  0.024334  0  -0.083115  -0.176289  0  3.908885  0
C  C188  1  0.52060394  0.13728659  0.59235246  1  0.959949  0  0.140134  0.135524  0  3.967875  0
C  C189  1  0.97939732  0.86271877  0.09235504  1  0.960016  0  0.140142  0.135589  0  3.96802  0
C  C190  1  0.47939690  0.63728684  0.90764743  1  0.960021  0  0.140132  0.135518  0  3.967989  0
C  C191  1  0.02059436  0.36271943  0.40764609  1  0.960306  0  0.140016  0.135304  0  3.968042  0
N  N192  1  0.56777131  0.11628710  0.66290502  1  -1.278893  0  -0.37748  -0.260311  0  3.680294  0
N  N193  1  0.93222912  0.88371627  0.16290646  1  -1.278966  0  -0.377426  -0.260214  0  3.680354  0
N  N194  1  0.43222935  0.61628401  0.83709483  1  -1.278873  0  -0.37748  -0.260357  0  3.680344  0
N  N195  1  0.06776054  0.38371929  0.33709348  1  -1.279363  0  -0.377466  -0.260327  0  3.680329  0
N  N196  1  0.58115962  0.12394761  0.52994020  1  -1.199685  0  -0.358298  -0.286973  0  3.576009  0
N  N197  1  0.91884025  0.87605622  0.02994164  1  -1.199464  0  -0.358274  -0.286957  0  3.575944  0
N  N198  1  0.41883964  0.62395105  0.97005906  1  -1.199625  0  -0.358331  -0.28696  0  3.576066  0
N  N199  1  0.08115301  0.37605321  0.47005951  1  -1.199591  0  -0.35813  -0.286622  0  3.575614  0
N  N200  1  0.52511042  0.95208910  0.40724665  1  -1.235152  0  -0.329534  -0.241643  0  3.493131  0
N  N201  1  0.97488601  0.04791685  0.90724959  1  -1.235353  0  -0.329553  -0.241656  0  3.493073  0
N  N202  1  0.47488497  0.45208636  0.09275218  1  -1.235206  0  -0.329477  -0.241582  0  3.493037  0
N  N203  1  0.02511113  0.54791081  0.59275565  1  -1.235501  0  -0.329483  -0.241528  0  3.493026  0
N  N204  1  0.55305395  0.28800191  0.38886315  1  -1.205666  0  -0.32821  -0.239038  0  3.49618  0
N  N205  1  0.94694397  0.71200472  0.88887071  1  -1.205608  0  -0.328089  -0.238906  0  3.496137  0
N  N206  1  0.44694517  0.78799780  0.11113910  1  -1.205763  0  -0.328208  -0.239046  0  3.49611  0
N  N207  1  0.05305751  0.21199444  0.61113842  1  -1.205638  0  -0.32825  -0.239132  0  3.496446  0
N  N208  1  0.61581842  0.93390840  0.76123464  1  -1.258431  0  -0.427945  -0.384639  0  3.584074  0
N  N209  1  0.88418187  0.06608593  0.26124168  1  -1.25828  0  -0.427687  -0.384221  0  3.583826  0
N  N210  1  0.38418641  0.43391444  0.73875896  1  -1.258322  0  -0.427724  -0.384236  0  3.583956  0
N  N211  1  0.11581316  0.56608513  0.23875477  1  -1.258382  0  -0.427691  -0.384107  0  3.584057  0
O  O212  1  0.76148070  0.91973072  0.87226063  1  -1.189148  0  -0.350863  -0.58087  0  2.100101  0
O  O213  1  0.73850770  0.08027800  0.37225929  1  -1.189111  0  -0.350844  -0.581014  0  2.100125  0
O  O214  1  0.23852108  0.41973470  0.62773540  1  -1.189355  0  -0.35089  -0.580934  0  2.100074  0
O  O215  1  0.26147937  0.58026963  0.12773596  1  -1.189324  0  -0.350917  -0.581012  0  2.099969  0
O  O216  1  0.57737789  0.81745296  0.66900090  1  -1.158529  0  -0.315649  -0.510585  0  2.113114  0
O  O217  1  0.92262988  0.18253482  0.16900624  1  -1.159497  0  -0.315567  -0.510476  0  2.113329  0
O  O218  1  0.42262742  0.31746160  0.83099376  1  -1.159046  0  -0.31553  -0.510427  0  2.113073  0
O  O219  1  0.07737202  0.68253601  0.33098917  1  -1.159389  0  -0.315608  -0.5105  0  2.113331  0
O  O220  1  0.09903858  0.86193637  0.81910080  1  -1.172101  0  -0.339297  -0.564384  0  2.275787  0
O  O221  1  0.40096529  0.13807115  0.31909574  1  -1.172063  0  -0.339179  -0.564189  0  2.27592  0
O  O222  1  0.90096638  0.36193077  0.68090123  1  -1.172241  0  -0.339293  -0.564334  0  2.275996  0
O  O223  1  0.59903182  0.63806696  0.18090447  1  -1.172179  0  -0.339218  -0.564266  0  2.275981  0
O  O224  1  0.15175833  0.84734832  0.94872732  1  -1.178069  0  -0.345994  -0.577663  0  2.097286  0
O  O225  1  0.34824830  0.15265732  0.44872477  1  -1.177957  0  -0.34599  -0.577677  0  2.097299  0
O  O226  1  0.84824870  0.34735058  0.55127530  1  -1.178015  0  -0.345896  -0.577561  0  2.097448  0
O  O227  1  0.65174967  0.65264904  0.05127608  1  -1.177926  0  -0.34589  -0.577536  0  2.097357  0
O  O228  1  0.87595050  0.90167810  0.77377250  1  -1.171676  0  -0.340347  -0.551974  0  2.216231  0
O  O229  1  0.62404611  0.09833116  0.27376338  1  -1.170613  0  -0.34044  -0.552124  0  2.216207  0
O  O230  1  0.12405627  0.40166504  0.72622350  1  -1.171616  0  -0.3405  -0.552015  0  2.216344  0
O  O231  1  0.37594699  0.59832955  0.22622581  1  -1.171641  0  -0.340395  -0.551983  0  2.216253  0
