# generated using pymatgen
data_H10PbC14S2N2O7
_symmetry_space_group_name_H-M   'P 1'
_cell_length_a   8.01085809
_cell_length_b   13.50997408
_cell_length_c   16.09665517
_cell_angle_alpha   89.99957022
_cell_angle_beta   93.11627330
_cell_angle_gamma   89.99894150
_symmetry_Int_Tables_number   1
_chemical_formula_structural   H10PbC14S2N2O7
_chemical_formula_sum   'H40 Pb4 C56 S8 N8 O28'
_cell_volume   1739.50833952
_cell_formula_units_Z   4
loop_
 _symmetry_equiv_pos_site_id
 _symmetry_equiv_pos_as_xyz
  1  'x, y, z'
loop_
 _atom_site_type_symbol
 _atom_site_label
 _atom_site_symmetry_multiplicity
 _atom_site_fract_x
 _atom_site_fract_y
 _atom_site_fract_z
 _atom_site_occupancy
 _atom_site_hle17_bader_spin_density
 _atom_site_hle17_ddec_charge
 _atom_site_hle17_ddec_spin_density
 _atom_site_hle17_ddec_sum_bond_order
 _atom_site_hle17_magmom
 _atom_site_hse06_10hf_bader_spin_density
 _atom_site_hse06_10hf_ddec_charge
 _atom_site_hse06_10hf_ddec_spin_density
 _atom_site_hse06_10hf_ddec_sum_bond_order
 _atom_site_hse06_10hf_magmom
 _atom_site_hse06_bader_spin_density
 _atom_site_hse06_ddec_charge
 _atom_site_hse06_ddec_spin_density
 _atom_site_hse06_ddec_sum_bond_order
 _atom_site_hse06_magmom
 _atom_site_pbe_bader_spin_density
 _atom_site_pbe_cm5_charge
 _atom_site_pbe_ddec_charge
 _atom_site_pbe_ddec_spin_density
 _atom_site_pbe_ddec_sum_bond_order
 _atom_site_pbe_magmom
H  H0  1  0.21638208  0.90190981  0.59256480  1  0  0.411832  0  0.882758  0  0  0.3851  0  0.946639  0  0  0.395056  0  0.932141  0  0  0.296237  0.378055  0  0.956878  0
H  H1  1  0.28361815  0.40191596  0.40743215  1  0  0.411942  0  0.882643  0  0  0.385194  0  0.946509  0  0  0.395153  0  0.93201  0  0  0.296252  0.378149  0  0.956749  0
H  H2  1  0.78372304  0.09805547  0.40743918  1  0  0.412146  0  0.882346  0  0  0.385373  0  0.94626  0  0  0.395328  0  0.931764  0  0  0.296404  0.37833  0  0.956495  0
H  H3  1  0.71628569  0.59806264  0.59256018  1  0  0.412142  0  0.882234  0  0  0.385342  0  0.946278  0  0  0.395302  0  0.931777  0  0  0.29636  0.378298  0  0.956516  0
H  H4  1  0.20201777  0.82383244  0.66512435  1  0  0.436529  0  0.863941  0  0  0.401452  0  0.933134  0  0  0.413167  0  0.916336  0  0  0.291671  0.393162  0  0.944987  0
H  H5  1  0.29799867  0.32383538  0.33487664  1  0  0.43653  0  0.863963  0  0  0.401509  0  0.933066  0  0  0.413224  0  0.916265  0  0  0.291719  0.39321  0  0.944929  0
H  H6  1  0.79807984  0.17614765  0.33488315  1  0  0.436891  0  0.86348  0  0  0.401733  0  0.932737  0  0  0.413445  0  0.915942  0  0  0.291849  0.393444  0  0.944588  0
H  H7  1  0.70191392  0.67614693  0.66511780  1  0  0.436817  0  0.863577  0  0  0.401671  0  0.932816  0  0  0.413384  0  0.916019  0  0  0.291825  0.393385  0  0.944664  0
H  H8  1  0.06132598  0.51241362  0.34311139  1  0  0.114541  0  0.938928  0  0  0.122722  0  1.001518  0  0  0.126594  0  0.998633  0  0  0.112132  0.119907  0  1.003657  0
H  H9  1  0.43865905  0.01241880  0.65688389  1  0  0.114509  0  0.938836  0  0  0.122664  0  1.001481  0  0  0.126542  0  0.998584  0  0  0.112113  0.119865  0  1.003624  0
H  H10  1  0.93868537  0.48760051  0.65689751  1  0  0.114392  0  0.939066  0  0  0.122592  0  1.001624  0  0  0.126459  0  0.998748  0  0  0.112043  0.119778  0  1.003759  0
H  H11  1  0.56135855  0.98758053  0.34311959  1  0  0.114549  0  0.939001  0  0  0.12275  0  1.001576  0  0  0.126623  0  0.998687  0  0  0.112134  0.119934  0  1.003726  0
H  H12  1  0.15291036  0.56546639  0.20417998  1  0  0.107331  0  0.927421  0  0  0.121879  0  0.977105  0  0  0.124793  0  0.975671  0  0  0.115211  0.119763  0  0.978253  0
H  H13  1  0.34708550  0.06546542  0.79581773  1  0  0.10735  0  0.927356  0  0  0.121913  0  0.977018  0  0  0.124827  0  0.975584  0  0  0.115211  0.119809  0  0.978159  0
H  H14  1  0.84707224  0.43453590  0.79581696  1  0  0.107261  0  0.927279  0  0  0.121823  0  0.97696  0  0  0.124737  0  0.975526  0  0  0.115178  0.11971  0  0.978109  0
H  H15  1  0.65292711  0.93453539  0.20418747  1  0  0.107295  0  0.927343  0  0  0.121869  0  0.976992  0  0  0.124783  0  0.975557  0  0  0.115166  0.119754  0  0.978142  0
H  H16  1  0.14881720  0.74255946  0.16397185  1  0  0.099216  0  0.942054  0  0  0.111834  0  0.997056  0  0  0.11453  0  0.996268  0  0  0.110481  0.109895  0  0.997705  0
H  H17  1  0.35117056  0.24255882  0.83602888  1  0  0.099218  0  0.941998  0  0  0.111838  0  0.997002  0  0  0.114536  0  0.99621  0  0  0.110514  0.109909  0  0.997641  0
H  H18  1  0.85116665  0.25744061  0.83601892  1  0  0.099318  0  0.942029  0  0  0.111932  0  0.997032  0  0  0.114632  0  0.996234  0  0  0.110535  0.109996  0  0.997682  0
H  H19  1  0.64881579  0.75744347  0.16397251  1  0  0.099265  0  0.941998  0  0  0.111869  0  0.99702  0  0  0.114566  0  0.99623  0  0  0.110475  0.109931  0  0.997669  0
H  H20  1  0.04804700  0.87134370  0.26029637  1  0  0.108949  0  0.949901  0  0  0.114842  0  1.017628  0  0  0.118695  0  1.014736  0  0  0.109394  0.11206  0  1.019735  0
H  H21  1  0.45194169  0.37134280  0.73970979  1  0  0.108915  0  0.949943  0  0  0.114845  0  1.01762  0  0  0.1187  0  1.014729  0  0  0.109407  0.112075  0  1.019725  0
H  H22  1  0.95195435  0.12866748  0.73969363  1  0  0.109029  0  0.949901  0  0  0.114944  0  1.017591  0  0  0.118794  0  1.014704  0  0  0.109427  0.112164  0  1.019697  0
H  H23  1  0.54802966  0.62866171  0.26028872  1  0  0.108971  0  0.949777  0  0  0.114866  0  1.017503  0  0  0.118722  0  1.014615  0  0  0.109411  0.112084  0  1.019612  0
H  H24  1  0.89768831  0.87000244  0.04036116  1  0  0.119618  0  0.962364  0  0  0.128038  0  1.023459  0  0  0.132013  0  1.020598  0  0  0.107218  0.125141  0  1.025622  0
H  H25  1  0.60230682  0.36999680  0.95963798  1  0  0.119664  0  0.962307  0  0  0.128095  0  1.023376  0  0  0.13207  0  1.020516  0  0  0.107228  0.125191  0  1.02554  0
H  H26  1  0.10230054  0.13000651  0.95963720  1  0  0.119706  0  0.962279  0  0  0.128121  0  1.023352  0  0  0.132096  0  1.020492  0  0  0.107239  0.12522  0  1.025514  0
H  H27  1  0.39768828  0.62999809  0.04036303  1  0  0.119627  0  0.962269  0  0  0.128011  0  1.02342  0  0  0.131987  0  1.02056  0  0  0.107194  0.125117  0  1.025579  0
H  H28  1  0.88505451  0.68753348  0.07206917  1  0  0.094685  0  0.965785  0  0  0.102956  0  1.029873  0  0  0.105917  0  1.028524  0  0  0.101905  0.100844  0  1.030871  0
H  H29  1  0.61494514  0.18752798  0.92793497  1  0  0.094772  0  0.965565  0  0  0.102975  0  1.029732  0  0  0.105931  0  1.028391  0  0  0.101902  0.100858  0  1.030733  0
H  H30  1  0.11495684  0.31247399  0.92793104  1  0  0.09478  0  0.965616  0  0  0.103002  0  1.029762  0  0  0.105961  0  1.028418  0  0  0.101928  0.100883  0  1.030764  0
H  H31  1  0.38504747  0.81246765  0.07206721  1  0  0.094759  0  0.965594  0  0  0.103007  0  1.02971  0  0  0.105968  0  1.02836  0  0  0.101952  0.100898  0  1.030709  0
H  H32  1  0.83368581  0.56595222  0.96107987  1  0  0.105259  0  0.939346  0  0  0.115996  0  0.995805  0  0  0.119582  0  0.993378  0  0  0.107157  0.113372  0  0.997665  0
H  H33  1  0.66631643  0.06595037  0.03892759  1  0  0.105299  0  0.939238  0  0  0.115977  0  0.995783  0  0  0.119564  0  0.993355  0  0  0.107115  0.113355  0  0.997655  0
H  H34  1  0.16633429  0.43404785  0.03892430  1  0  0.105276  0  0.939415  0  0  0.11595  0  0.995943  0  0  0.119535  0  0.993518  0  0  0.107087  0.113329  0  0.997812  0
H  H35  1  0.33368242  0.93404526  0.96107538  1  0  0.105218  0  0.939405  0  0  0.115936  0  0.995893  0  0  0.119522  0  0.993467  0  0  0.107098  0.113317  0  0.997755  0
H  H36  1  0.79093659  0.61997839  0.81202361  1  0  0.106661  0  0.940712  0  0  0.116385  0  1.00199  0  0  0.119953  0  0.999465  0  0  0.108832  0.113779  0  1.003932  0
H  H37  1  0.70905895  0.11997622  0.18798146  1  0  0.106586  0  0.940787  0  0  0.116309  0  1.002071  0  0  0.119877  0  0.999543  0  0  0.108787  0.113705  0  1.004011  0
H  H38  1  0.20905851  0.38002538  0.18797864  1  0  0.106609  0  0.940829  0  0  0.116322  0  1.002127  0  0  0.119895  0  0.999592  0  0  0.108809  0.113716  0  1.004067  0
H  H39  1  0.29094741  0.88002311  0.81202109  1  0  0.106642  0  0.940742  0  0  0.116363  0  1.002016  0  0  0.119934  0  0.999485  0  0  0.108826  0.113754  0  1.003959  0
Pb  Pb40  1  0.86732862  0.92728668  0.59900847  1  0  1.419418  0  1.376825  0  0  1.241263  0  1.780102  0  0  1.298358  0  1.73501  0  0  0.682955  1.199756  0  1.811884  0
Pb  Pb41  1  0.63267470  0.42729975  0.40097251  1  0  1.419429  0  1.3768  0  0  1.241265  0  1.780092  0  0  1.298359  0  1.734996  0  0  0.682974  1.199752  0  1.811869  0
Pb  Pb42  1  0.13271024  0.07270006  0.40098937  1  0  1.419401  0  1.376984  0  0  1.24127  0  1.7803  0  0  1.29835  0  1.735202  0  0  0.682919  1.199768  0  1.812083  0
Pb  Pb43  1  0.36729290  0.57267367  0.59902092  1  0  1.419348  0  1.37693  0  0  1.241231  0  1.780239  0  0  1.298316  0  1.735138  0  0  0.682932  1.19972  0  1.812025  0
C  C44  1  0.00727823  0.66383374  0.37834860  1  0  -0.143321  0  3.741309  0  0  -0.124569  0  3.988267  0  0  -0.130453  0  4.010869  0  0  -0.013958  -0.120684  0  3.973263  0
C  C45  1  0.49271702  0.16383938  0.62164972  1  0  -0.143374  0  3.741208  0  0  -0.124613  0  3.988149  0  0  -0.130505  0  4.010763  0  0  -0.014025  -0.120726  0  3.973144  0
C  C46  1  0.99271937  0.33617891  0.62164750  1  0  -0.143412  0  3.740699  0  0  -0.124627  0  3.98763  0  0  -0.130518  0  4.010238  0  0  -0.013941  -0.120749  0  3.972632  0
C  C47  1  0.50729058  0.83616291  0.37835411  1  0  -0.143388  0  3.741107  0  0  -0.124643  0  3.988098  0  0  -0.130533  0  4.010711  0  0  -0.013969  -0.120765  0  3.973106  0
C  C48  1  0.05834142  0.59020143  0.32529464  1  0  -0.030813  0  3.692732  0  0  -0.058306  0  3.948607  0  0  -0.05719  0  3.965659  0  0  -0.068989  -0.058988  0  3.937128  0
C  C49  1  0.44164491  0.09020420  0.67470204  1  0  -0.03066  0  3.69259  0  0  -0.058147  0  3.948474  0  0  -0.057028  0  3.96553  0  0  -0.068869  -0.058819  0  3.936992  0
C  C50  1  0.94166494  0.40981196  0.67470916  1  0  -0.030826  0  3.69237  0  0  -0.058318  0  3.948241  0  0  -0.057211  0  3.96532  0  0  -0.068972  -0.058995  0  3.936758  0
C  C51  1  0.55835269  0.90979883  0.32530028  1  0  -0.030847  0  3.692792  0  0  -0.058402  0  3.948727  0  0  -0.057291  0  3.965794  0  0  -0.069009  -0.059084  0  3.937252  0
C  C52  1  0.10976909  0.62075004  0.24738104  1  0  -0.024271  0  3.667733  0  0  -0.041769  0  3.921722  0  0  -0.042135  0  3.939364  0  0  -0.06432  -0.041509  0  3.90977  0
C  C53  1  0.39022127  0.12074971  0.75261432  1  0  -0.024402  0  3.667817  0  0  -0.041902  0  3.921815  0  0  -0.042269  0  3.939456  0  0  -0.064336  -0.041628  0  3.909832  0
C  C54  1  0.89022851  0.37925447  0.75261693  1  0  -0.024044  0  3.667715  0  0  -0.041543  0  3.921669  0  0  -0.041912  0  3.939314  0  0  -0.064235  -0.041287  0  3.909724  0
C  C55  1  0.60977508  0.87925109  0.24738797  1  0  -0.02411  0  3.667776  0  0  -0.041578  0  3.921709  0  0  -0.041945  0  3.939357  0  0  -0.064213  -0.041314  0  3.909748  0
C  C56  1  0.10773781  0.72083620  0.22478149  1  0  -0.050843  0  3.706136  0  0  -0.065538  0  3.956639  0  0  -0.067087  0  3.976787  0  0  -0.071918  -0.064499  0  3.943016  0
C  C57  1  0.39224314  0.22083418  0.77521609  1  0  -0.050781  0  3.706033  0  0  -0.065491  0  3.956561  0  0  -0.06704  0  3.976711  0  0  -0.07196  -0.064446  0  3.942923  0
C  C58  1  0.89225979  0.27917053  0.77521213  1  0  -0.050954  0  3.706402  0  0  -0.065665  0  3.956927  0  0  -0.067212  0  3.977079  0  0  -0.072009  -0.064629  0  3.94331  0
C  C59  1  0.60773446  0.77916885  0.22478258  1  0  -0.051025  0  3.706225  0  0  -0.065734  0  3.956764  0  0  -0.067284  0  3.976917  0  0  -0.071952  -0.064694  0  3.943143  0
C  C60  1  0.05323955  0.79378607  0.27886661  1  0  -0.049217  0  3.689957  0  0  -0.07249  0  3.940361  0  0  -0.072837  0  3.959924  0  0  -0.070254  -0.072154  0  3.927134  0
C  C61  1  0.44675034  0.29378614  0.72113509  1  0  -0.049198  0  3.68975  0  0  -0.072496  0  3.940141  0  0  -0.072847  0  3.959706  0  0  -0.070198  -0.072158  0  3.926908  0
C  C62  1  0.94675805  0.20622140  0.72112825  1  0  -0.049447  0  3.689678  0  0  -0.07273  0  3.940148  0  0  -0.07308  0  3.95971  0  0  -0.070353  -0.072398  0  3.926929  0
C  C63  1  0.55323101  0.70621837  0.27886679  1  0  -0.049132  0  3.689705  0  0  -0.072422  0  3.940117  0  0  -0.072775  0  3.959685  0  0  -0.070244  -0.072088  0  3.92689  0
C  C64  1  0.00349573  0.76418417  0.35653987  1  0  -0.06838  0  3.803065  0  0  -0.055438  0  4.037953  0  0  -0.062044  0  4.062492  0  0  -0.013692  -0.051097  0  4.021488  0
C  C65  1  0.49650760  0.26418734  0.64346176  1  0  -0.068379  0  3.802948  0  0  -0.055403  0  4.037842  0  0  -0.06201  0  4.062383  0  0  -0.013669  -0.051054  0  4.021374  0
C  C66  1  0.99650061  0.23582923  0.64345123  1  0  -0.068036  0  3.802487  0  0  -0.055141  0  4.037399  0  0  -0.061744  0  4.061935  0  0  -0.013472  -0.050806  0  4.020946  0
C  C67  1  0.50349376  0.73581273  0.35654376  1  0  -0.068408  0  3.803218  0  0  -0.055444  0  4.038015  0  0  -0.062051  0  4.062555  0  0  -0.01366  -0.051102  0  4.021547  0
C  C68  1  0.94265286  0.82604702  0.42534044  1  0  0.568495  0  3.904963  0  0  0.522788  0  4.191435  0  0  0.554952  0  4.190756  0  0  0.233073  0.500977  0  4.19109  0
C  C69  1  0.55736617  0.32604975  0.57466894  1  0  0.568482  0  3.905169  0  0  0.522677  0  4.191798  0  0  0.554844  0  4.191113  0  0  0.233003  0.500858  0  4.19146  0
C  C70  1  0.05734974  0.17396489  0.57464896  1  0  0.568746  0  3.904963  0  0  0.523087  0  4.191433  0  0  0.555254  0  4.190747  0  0  0.233313  0.501275  0  4.191098  0
C  C71  1  0.44264769  0.67394957  0.42534376  1  0  0.568362  0  3.905441  0  0  0.522783  0  4.191731  0  0  0.55495  0  4.191051  0  0  0.233122  0.500973  0  4.191379  0
C  C72  1  0.84713928  0.84351175  0.90854028  1  0  -0.126963  0  3.742462  0  0  -0.107491  0  3.983897  0  0  -0.113027  0  4.007521  0  0  -0.011491  -0.103868  0  3.968225  0
C  C73  1  0.65286419  0.34351107  0.09146050  1  0  -0.127182  0  3.742594  0  0  -0.107689  0  3.984059  0  0  -0.113228  0  4.007689  0  0  -0.011511  -0.104064  0  3.96838  0
C  C74  1  0.15285457  0.15649424  0.09146070  1  0  -0.127187  0  3.742619  0  0  -0.107768  0  3.984085  0  0  -0.113277  0  4.007678  0  0  -0.011618  -0.104145  0  3.968411  0
C  C75  1  0.34714091  0.65648530  0.90853892  1  0  -0.12672  0  3.742337  0  0  -0.107269  0  3.98378  0  0  -0.112797  0  4.007392  0  0  -0.011397  -0.103644  0  3.968108  0
C  C76  1  0.87230685  0.81563555  0.99119352  1  0  -0.060447  0  3.72245  0  0  -0.083096  0  3.967713  0  0  -0.083954  0  3.987577  0  0  -0.078057  -0.082464  0  3.954343  0
C  C77  1  0.62769751  0.31563366  0.00880993  1  0  -0.060519  0  3.722512  0  0  -0.08317  0  3.96774  0  0  -0.084028  0  3.987603  0  0  -0.078117  -0.082537  0  3.954367  0
C  C78  1  0.12768950  0.18436748  0.00880628  1  0  -0.060538  0  3.722353  0  0  -0.083159  0  3.967598  0  0  -0.084021  0  3.987452  0  0  -0.078079  -0.082527  0  3.95423  0
C  C79  1  0.37229884  0.68436271  0.99119049  1  0  -0.060503  0  3.722342  0  0  -0.083108  0  3.967587  0  0  -0.083969  0  3.987449  0  0  -0.078033  -0.082474  0  3.954211  0
C  C80  1  0.86695859  0.71390031  0.00824785  1  0  -0.048515  0  3.707263  0  0  -0.062655  0  3.959699  0  0  -0.064188  0  3.979912  0  0  -0.075972  -0.061535  0  3.945941  0
C  C81  1  0.63304023  0.21389922  0.99175797  1  0  -0.048585  0  3.706823  0  0  -0.062666  0  3.959255  0  0  -0.064196  0  3.979465  0  0  -0.075917  -0.061548  0  3.945503  0
C  C82  1  0.13304651  0.28610272  0.99175592  1  0  -0.04868  0  3.706789  0  0  -0.062774  0  3.959222  0  0  -0.064306  0  3.979434  0  0  -0.076012  -0.061654  0  3.945472  0
C  C83  1  0.36695363  0.78609863  0.00824425  1  0  -0.048668  0  3.707154  0  0  -0.062793  0  3.95959  0  0  -0.064326  0  3.979802  0  0  -0.076017  -0.061671  0  3.945829  0
C  C84  1  0.83785129  0.64406641  0.94481966  1  0  -0.040602  0  3.703789  0  0  -0.059854  0  3.961132  0  0  -0.060277  0  3.979374  0  0  -0.076372  -0.05958  0  3.948793  0
C  C85  1  0.66214723  0.14406298  0.05518659  1  0  -0.040445  0  3.703542  0  0  -0.059649  0  3.960846  0  0  -0.060073  0  3.979088  0  0  -0.076227  -0.059382  0  3.948513  0
C  C86  1  0.16214881  0.35593884  0.05518645  1  0  -0.040433  0  3.703526  0  0  -0.059633  0  3.960852  0  0  -0.060056  0  3.979093  0  0  -0.076186  -0.059371  0  3.948523  0
C  C87  1  0.33785787  0.85593191  0.94481593  1  0  -0.040413  0  3.703875  0  0  -0.059637  0  3.961182  0  0  -0.06006  0  3.979427  0  0  -0.076258  -0.059368  0  3.948842  0
C  C88  1  0.81384373  0.67375535  0.86183427  1  0  -0.049786  0  3.690375  0  0  -0.076128  0  3.945899  0  0  -0.075856  0  3.964261  0  0  -0.07431  -0.07624  0  3.933504  0
C  C89  1  0.68614885  0.17375388  0.13816914  1  0  -0.049793  0  3.690635  0  0  -0.076125  0  3.946165  0  0  -0.07585  0  3.964528  0  0  -0.074282  -0.076235  0  3.933766  0
C  C90  1  0.18615012  0.32624916  0.13816795  1  0  -0.049725  0  3.690657  0  0  -0.076099  0  3.946128  0  0  -0.075817  0  3.964493  0  0  -0.074312  -0.076207  0  3.933729  0
C  C91  1  0.31385250  0.82624323  0.86182955  1  0  -0.049824  0  3.69043  0  0  -0.076163  0  3.945969  0  0  -0.075888  0  3.964324  0  0  -0.07433  -0.076272  0  3.933571  0
C  C92  1  0.81885607  0.77469711  0.84434999  1  0  -0.070107  0  3.814591  0  0  -0.056832  0  4.049751  0  0  -0.063697  0  4.074369  0  0  -0.016434  -0.052355  0  4.033257  0
C  C93  1  0.68114582  0.27469332  0.15565304  1  0  -0.069971  0  3.81453  0  0  -0.056757  0  4.049752  0  0  -0.063627  0  4.07437  0  0  -0.016455  -0.05228  0  4.033253  0
C  C94  1  0.18114028  0.22531184  0.15565167  1  0  -0.070014  0  3.814571  0  0  -0.056632  0  4.049578  0  0  -0.063528  0  4.074224  0  0  -0.016413  -0.052157  0  4.033083  0
C  C95  1  0.31885553  0.72530304  0.84434565  1  0  -0.070254  0  3.814605  0  0  -0.056993  0  4.049804  0  0  -0.063861  0  4.074419  0  0  -0.016506  -0.052513  0  4.033307  0
C  C96  1  0.80420959  0.82518766  0.76245266  1  0  0.553167  0  3.904214  0  0  0.509978  0  4.182114  0  0  0.541282  0  4.182737  0  0  0.230316  0.488821  0  4.180824  0
C  C97  1  0.69579446  0.32518520  0.23754451  1  0  0.553155  0  3.904213  0  0  0.509996  0  4.182081  0  0  0.541304  0  4.1827  0  0  0.230327  0.488837  0  4.180794  0
C  C98  1  0.19580551  0.17480796  0.23754516  1  0  0.552899  0  3.904382  0  0  0.50973  0  4.182251  0  0  0.541044  0  4.18288  0  0  0.230197  0.48857  0  4.180965  0
C  C99  1  0.30418814  0.67480302  0.76245243  1  0  0.553114  0  3.904293  0  0  0.509959  0  4.182184  0  0  0.541265  0  4.182807  0  0  0.230302  0.488799  0  4.180895  0
S  S100  1  0.93411656  0.65572600  0.48048368  1  0  1.285793  0  5.34485  0  0  1.196456  0  5.848652  0  0  1.244015  0  5.830673  0  0  0.577252  1.163368  0  5.860397  0
S  S101  1  0.56589159  0.15573208  0.51951840  1  0  1.285646  0  5.344577  0  0  1.196287  0  5.84842  0  0  1.243843  0  5.83045  0  0  0.577153  1.163202  0  5.860154  0
S  S102  1  0.06585353  0.34428888  0.51950858  1  0  1.286124  0  5.344883  0  0  1.19674  0  5.848696  0  0  1.244302  0  5.830715  0  0  0.577444  1.163659  0  5.860439  0
S  S103  1  0.43414227  0.84426206  0.48049297  1  0  1.286242  0  5.344804  0  0  1.196837  0  5.84866  0  0  1.244401  0  5.83067  0  0  0.57739  1.163753  0  5.860406  0
S  S104  1  0.84490790  0.96373426  0.86238316  1  0  1.240218  0  5.401561  0  0  1.157241  0  5.912803  0  0  1.203714  0  5.895643  0  0  0.556521  1.125055  0  5.923773  0
S  S105  1  0.65509303  0.46373536  0.13761430  1  0  1.240476  0  5.401402  0  0  1.157515  0  5.912615  0  0  1.203988  0  5.895459  0  0  0.556607  1.125329  0  5.923582  0
S  S106  1  0.15509596  0.03626581  0.13761435  1  0  1.240324  0  5.401537  0  0  1.157378  0  5.91276  0  0  1.203845  0  5.8956  0  0  0.556559  1.125194  0  5.923729  0
S  S107  1  0.34490333  0.53626175  0.86238426  1  0  1.240145  0  5.401324  0  0  1.157197  0  5.912553  0  0  1.203666  0  5.895395  0  0  0.556494  1.125009  0  5.923526  0
N  N108  1  0.90631560  0.77321854  0.49375420  1  0  -0.704235  0  2.933082  0  0  -0.647095  0  3.228931  0  0  -0.676635  0  3.230102  0  0  -0.374402  -0.626564  0  3.227477  0
N  N109  1  0.59370635  0.27322370  0.50625124  1  0  -0.704103  0  2.93285  0  0  -0.646902  0  3.228693  0  0  -0.676444  0  3.229866  0  0  -0.374222  -0.62636  0  3.227234  0
N  N110  1  0.09363449  0.22680151  0.50622695  1  0  -0.704472  0  2.933393  0  0  -0.64739  0  3.229279  0  0  -0.676931  0  3.230441  0  0  -0.374538  -0.626869  0  3.227838  0
N  N111  1  0.40635001  0.72677933  0.49376509  1  0  -0.70428  0  2.933218  0  0  -0.647182  0  3.229031  0  0  -0.676724  0  3.230195  0  0  -0.374398  -0.626655  0  3.22758  0
N  N112  1  0.81447896  0.92413745  0.76567349  1  0  -0.72544  0  2.933297  0  0  -0.665061  0  3.216736  0  0  -0.695242  0  3.220016  0  0  -0.380645  -0.644133  0  3.213778  0
N  N113  1  0.68554072  0.42413957  0.23432348  1  0  -0.725598  0  2.933279  0  0  -0.66524  0  3.216743  0  0  -0.695421  0  3.220014  0  0  -0.380726  -0.644305  0  3.21378  0
N  N114  1  0.18554115  0.07585670  0.23432073  1  0  -0.725409  0  2.933594  0  0  -0.665042  0  3.217033  0  0  -0.695224  0  3.220311  0  0  -0.380656  -0.644114  0  3.214077  0
N  N115  1  0.31446188  0.57585680  0.76567835  1  0  -0.725489  0  2.933664  0  0  -0.665106  0  3.21711  0  0  -0.695287  0  3.220386  0  0  -0.380706  -0.644174  0  3.214155  0
O  O116  1  0.77408360  0.60294662  0.47930431  1  0  -0.674495  0  2.039737  0  0  -0.613563  0  2.295353  0  0  -0.639512  0  2.285443  0  0  -0.300954  -0.595169  0  2.301777  0
O  O117  1  0.72591872  0.10293612  0.52069795  1  0  -0.674473  0  2.039493  0  0  -0.613588  0  2.295127  0  0  -0.639534  0  2.285211  0  0  -0.300922  -0.595188  0  2.301549  0
O  O118  1  0.22590149  0.39705419  0.52067096  1  0  -0.674619  0  2.03978  0  0  -0.613652  0  2.295322  0  0  -0.63959  0  2.285406  0  0  -0.301005  -0.595265  0  2.301747  0
O  O119  1  0.27410639  0.89704544  0.47932685  1  0  -0.67459  0  2.039651  0  0  -0.613659  0  2.295277  0  0  -0.639602  0  2.28536  0  0  -0.301031  -0.595266  0  2.301702  0
O  O120  1  0.05574624  0.61570460  0.54191864  1  0  -0.646503  0  2.000842  0  0  -0.591809  0  2.266251  0  0  -0.615975  0  2.25231  0  0  -0.302548  -0.574626  0  2.275385  0
O  O121  1  0.44426178  0.11571667  0.45807847  1  0  -0.646552  0  2.000692  0  0  -0.59179  0  2.266042  0  0  -0.615959  0  2.252109  0  0  -0.302578  -0.574591  0  2.275155  0
O  O122  1  0.94421511  0.38433396  0.45808705  1  0  -0.646767  0  2.000873  0  0  -0.592003  0  2.266237  0  0  -0.616173  0  2.252294  0  0  -0.302728  -0.574784  0  2.275298  0
O  O123  1  0.55577832  0.88429894  0.54192002  1  0  -0.6468  0  2.000819  0  0  -0.592022  0  2.266174  0  0  -0.61619  0  2.252228  0  0  -0.302654  -0.574846  0  2.275313  0
O  O124  1  0.92482984  0.91846774  0.42288375  1  0  -0.617703  0  2.020621  0  0  -0.549796  0  2.260484  0  0  -0.578942  0  2.255595  0  0  -0.275963  -0.529361  0  2.263328  0
O  O125  1  0.57519627  0.41846655  0.57712710  1  0  -0.617742  0  2.020785  0  0  -0.549853  0  2.260753  0  0  -0.578998  0  2.255866  0  0  -0.27601  -0.529397  0  2.263589  0
O  O126  1  0.07521402  0.08154861  0.57711299  1  0  -0.61792  0  2.020528  0  0  -0.550062  0  2.260398  0  0  -0.5792  0  2.255508  0  0  -0.276215  -0.529635  0  2.263247  0
O  O127  1  0.42477633  0.58153278  0.42287703  1  0  -0.617652  0  2.020552  0  0  -0.549876  0  2.260426  0  0  -0.579015  0  2.255539  0  0  -0.276116  -0.529445  0  2.263266  0
O  O128  1  0.00721950  0.01167633  0.87218584  1  0  -0.604496  0  1.901417  0  0  -0.559789  0  2.135631  0  0  -0.581967  0  2.123933  0  0  -0.314691  -0.543979  0  2.143028  0
O  O129  1  0.49278306  0.51167940  0.12782171  1  0  -0.604614  0  1.901643  0  0  -0.559871  0  2.135822  0  0  -0.58205  0  2.124124  0  0  -0.314761  -0.544063  0  2.143224  0
O  O130  1  0.99277435  0.98832670  0.12782072  1  0  -0.604584  0  1.901225  0  0  -0.559861  0  2.135406  0  0  -0.582041  0  2.123713  0  0  -0.314729  -0.54405  0  2.142804  0
O  O131  1  0.50721704  0.48831845  0.87218254  1  0  -0.60452  0  1.901512  0  0  -0.55981  0  2.135703  0  0  -0.58199  0  2.124011  0  0  -0.314693  -0.543993  0  2.143099  0
O  O132  1  0.70143489  0.02024461  0.88625724  1  0  -0.596997  0  1.915231  0  0  -0.554679  0  2.152529  0  0  -0.577348  0  2.142438  0  0  -0.311443  -0.538552  0  2.158802  0
O  O133  1  0.79856254  0.52024107  0.11372864  1  0  -0.596905  0  1.914957  0  0  -0.554629  0  2.15227  0  0  -0.577299  0  2.142183  0  0  -0.311365  -0.538502  0  2.158542  0
O  O134  1  0.29855646  0.97975916  0.11373248  1  0  -0.596855  0  1.915374  0  0  -0.554584  0  2.152698  0  0  -0.577254  0  2.142612  0  0  -0.311361  -0.538455  0  2.15896  0
O  O135  1  0.20143006  0.47975677  0.88626609  1  0  -0.596902  0  1.914921  0  0  -0.554608  0  2.152222  0  0  -0.577276  0  2.142134  0  0  -0.311371  -0.538469  0  2.158492  0
O  O136  1  0.79031339  0.78026643  0.69249699  1  0  -0.606925  0  1.997768  0  0  -0.53557  0  2.218218  0  0  -0.56265  0  2.208759  0  0  -0.285829  -0.516566  0  2.224088  0
O  O137  1  0.70968458  0.28026689  0.30750465  1  0  -0.60691  0  1.997788  0  0  -0.535504  0  2.218181  0  0  -0.562584  0  2.20872  0  0  -0.285795  -0.5165  0  2.224053  0
O  O138  1  0.20972047  0.21971884  0.30750817  1  0  -0.60664  0  1.997856  0  0  -0.53539  0  2.21836  0  0  -0.562471  0  2.208904  0  0  -0.285679  -0.516383  0  2.22423  0
O  O139  1  0.29026802  0.71971467  0.69249024  1  0  -0.60671  0  1.997851  0  0  -0.535427  0  2.218351  0  0  -0.562508  0  2.208898  0  0  -0.285699  -0.516411  0  2.224215  0
O  O140  1  0.16167212  0.89054272  0.64499321  1  0  -0.831774  0  1.829654  0  0  -0.767464  0  2.014679  0  0  -0.791684  0  1.983932  0  0  -0.558255  -0.750133  0  2.035968  0
O  O141  1  0.33833222  0.39054356  0.35500206  1  0  -0.831903  0  1.829688  0  0  -0.767608  0  2.014634  0  0  -0.791828  0  1.983873  0  0  -0.558305  -0.75027  0  2.035945  0
O  O142  1  0.83844050  0.10944550  0.35501594  1  0  -0.832225  0  1.829458  0  0  -0.767873  0  2.014788  0  0  -0.792043  0  1.983953  0  0  -0.558397  -0.75054  0  2.036082  0
O  O143  1  0.66157412  0.60944319  0.64498599  1  0  -0.832138  0  1.829334  0  0  -0.767768  0  2.014773  0  0  -0.791942  0  1.983922  0  0  -0.558371  -0.750447  0  2.036069  0
