# generated using pymatgen
data_InH12(C3O)8
_symmetry_space_group_name_H-M   'P 1'
_cell_length_a   14.65352252
_cell_length_b   14.58459395
_cell_length_c   19.47305244
_cell_angle_alpha   111.96921946
_cell_angle_beta   112.01830599
_cell_angle_gamma   90.04121852
_symmetry_Int_Tables_number   1
_chemical_formula_structural   InH12(C3O)8
_chemical_formula_sum   'In4 H48 C96 O32'
_cell_volume   3529.57125814
_cell_formula_units_Z   4
loop_
 _symmetry_equiv_pos_site_id
 _symmetry_equiv_pos_as_xyz
  1  'x, y, z'
loop_
 _atom_site_type_symbol
 _atom_site_label
 _atom_site_symmetry_multiplicity
 _atom_site_fract_x
 _atom_site_fract_y
 _atom_site_fract_z
 _atom_site_occupancy
 _atom_site_pbe_bader_charge
 _atom_site_pbe_bader_spin_density
 _atom_site_pbe_cm5_charge
 _atom_site_pbe_ddec_charge
 _atom_site_pbe_ddec_spin_density
 _atom_site_pbe_ddec_sum_bond_order
 _atom_site_pbe_magmom
In  In0  1  0.63753905  0.38767078  0.27535735  1  1.863047  0  0.729004  1.351063  0  2.592067  0
In  In1  1  0.88828452  0.13794327  0.77613646  1  1.866957  0  0.728824  1.35041  0  2.593581  0
In  In2  1  0.36245260  0.61233834  0.72465584  1  1.862903  0  0.729046  1.351147  0  2.591923  0
In  In3  1  0.11171601  0.86211514  0.22386420  1  1.86687  0  0.72888  1.350643  0  2.593185  0
H  H4  1  0.37523880  0.35703037  0.03995819  1  0.106091  0  0.119925  0.127768  0  0.965476  0
H  H5  1  0.68349073  0.87540909  0.54036604  1  0.120071  0  0.119654  0.127128  0  0.965624  0
H  H6  1  0.66487499  0.18259595  0.03991456  1  0.118291  0  0.120041  0.127767  0  0.964945  0
H  H7  1  0.85679265  0.16509428  0.54052335  1  0.110845  0  0.120282  0.127908  0  0.966827  0
H  H8  1  0.62477446  0.64292819  0.95999084  1  0.106181  0  0.119856  0.127731  0  0.965459  0
H  H9  1  0.31649476  0.12456794  0.45966837  1  0.119805  0  0.119662  0.127086  0  0.965806  0
H  H10  1  0.33517430  0.81739160  0.96014162  1  0.118578  0  0.120135  0.127878  0  0.964807  0
H  H11  1  0.14312710  0.83479345  0.45944769  1  0.11141  0  0.120329  0.128046  0  0.966831  0
H  H12  1  0.21062735  0.28701692  0.92177291  1  0.116792  0  0.113022  0.117694  0  1.014033  0
H  H13  1  0.63556547  0.71070202  0.42149382  1  0.123927  0  0.113079  0.118202  0  1.013646  0
H  H14  1  0.71130380  0.13464340  0.92156664  1  0.113229  0  0.112956  0.118053  0  1.014872  0
H  H15  1  0.78626196  0.21111989  0.42174998  1  0.117195  0  0.113209  0.118153  0  1.012957  0
H  H16  1  0.78933439  0.71298634  0.07822764  1  0.116392  0  0.113071  0.117861  0  1.01397  0
H  H17  1  0.36444933  0.28934574  0.57848678  1  0.121135  0  0.113017  0.117993  0  1.013901  0
H  H18  1  0.28867411  0.86533740  0.07845507  1  0.113298  0  0.11288  0.117826  0  1.015094  0
H  H19  1  0.21378710  0.78888973  0.57827561  1  0.117243  0  0.113097  0.118098  0  1.012935  0
H  H20  1  0.06188275  0.03030692  0.96513209  1  0.161372  0  0.108728  0.118726  0  1.040733  0
H  H21  1  0.93462793  0.56142736  0.46450945  1  0.156715  0  0.108117  0.117968  0  1.040762  0
H  H22  1  0.90318902  0.43479503  0.96492304  1  0.105862  0  0.1084  0.118417  0  1.040238  0
H  H23  1  0.52995965  0.40308056  0.46475522  1  0.135365  0  0.108226  0.117605  0  1.041164  0
H  H24  1  0.93808740  0.96976182  0.03494168  1  0.151898  0  0.108733  0.118542  0  1.041167  0
H  H25  1  0.06539603  0.43862338  0.53543274  1  0.157667  0  0.108058  0.117915  0  1.040706  0
H  H26  1  0.09679347  0.56517846  0.03506084  1  0.105615  0  0.108338  0.118333  0  1.040237  0
H  H27  1  0.47007995  0.59693034  0.53523946  1  0.135651  0  0.108182  0.11765  0  1.040954  0
H  H28  1  0.11291889  0.96831924  0.07494200  1  0.127512  0  0.109253  0.115724  0  1.020083  0
H  H29  1  0.10553340  0.61269773  0.57458675  1  0.118879  0  0.10939  0.115687  0  1.020561  0
H  H30  1  0.96189005  0.60647297  0.07494249  1  0.097694  0  0.108822  0.114587  0  1.022264  0
H  H31  1  0.46874478  0.46173512  0.57475492  1  0.131248  0  0.109199  0.115391  0  1.019479  0
H  H32  1  0.88710162  0.03175616  0.92513796  1  0.126688  0  0.109283  0.115514  0  1.020263  0
H  H33  1  0.89448842  0.38733481  0.42535547  1  0.120116  0  0.109337  0.115667  0  1.02034  0
H  H34  1  0.03810635  0.39350821  0.92503890  1  0.097983  0  0.10894  0.114699  0  1.022239  0
H  H35  1  0.53127791  0.53827637  0.42522522  1  0.131302  0  0.10918  0.115373  0  1.019379  0
H  H36  1  0.27465477  0.04101478  0.19309832  1  0.148104  0  0.116336  0.128578  0  0.98686  0
H  H37  1  0.15060625  0.77471047  0.69288910  1  0.113367  0  0.116561  0.128526  0  0.985411  0
H  H38  1  0.91822435  0.65168292  0.19318547  1  0.140505  0  0.116429  0.12846  0  0.985848  0
H  H39  1  0.54167904  0.41801609  0.69310984  1  0.123813  0  0.116657  0.128715  0  0.985718  0
H  H40  1  0.72538662  0.95906263  0.80694964  1  0.147317  0  0.116475  0.128941  0  0.986593  0
H  H41  1  0.84942335  0.22531064  0.30707416  1  0.113006  0  0.116572  0.12853  0  0.985316  0
H  H42  1  0.08179469  0.34830091  0.80680875  1  0.139997  0  0.116461  0.128566  0  0.985711  0
H  H43  1  0.45831143  0.58199500  0.30686652  1  0.123819  0  0.116608  0.128605  0  0.985711  0
H  H44  1  0.39001737  0.17313746  0.20022730  1  0.099246  0  0.11449  0.119088  0  0.989344  0
H  H45  1  0.02596651  0.89014079  0.70020737  1  0.101601  0  0.114605  0.11901  0  0.988888  0
H  H46  1  0.81009205  0.52656314  0.20033341  1  0.088122  0  0.114638  0.119051  0  0.989579  0
H  H47  1  0.67379702  0.31000176  0.70044244  1  0.098056  0  0.11438  0.118766  0  0.987842  0
H  H48  1  0.61001542  0.82689176  0.79976812  1  0.100044  0  0.11447  0.119063  0  0.989209  0
H  H49  1  0.97404433  0.10985686  0.29979066  1  0.101769  0  0.114595  0.118973  0  0.988862  0
H  H50  1  0.18994011  0.47341821  0.79967828  1  0.089386  0  0.114657  0.119109  0  0.989447  0
H  H51  1  0.32614581  0.68995219  0.29952578  1  0.097181  0  0.114348  0.118649  0  0.987902  0
C  C52  1  0.16725064  0.18159349  0.96059770  1  -0.031021  0  0.013435  -0.031627  0  3.851307  0
C  C53  1  0.77914081  0.66714301  0.46014164  1  0.001786  0  0.013033  -0.033592  0  3.852038  0
C  C54  1  0.79338897  0.27891557  0.96044342  1  -0.060629  0  0.013007  -0.033136  0  3.855299  0
C  C55  1  0.68112432  0.29317829  0.46039478  1  -0.050835  0  0.013722  -0.031899  0  3.854204  0
C  C56  1  0.83272411  0.81844197  0.03942852  1  -0.031349  0  0.013644  -0.03159  0  3.851252  0
C  C57  1  0.22087647  0.33289547  0.53981987  1  0.002898  0  0.012803  -0.033817  0  3.852165  0
C  C58  1  0.20659998  0.72106360  0.03956028  1  -0.060999  0  0.013006  -0.033134  0  3.855507  0
C  C59  1  0.31891990  0.70683197  0.53962007  1  -0.047373  0  0.013865  -0.031612  0  3.85392  0
C  C60  1  0.19473501  0.14042331  0.02040381  1  -0.014609  0  0.005597  0.052116  0  3.942494  0
C  C61  1  0.87968667  0.69444148  0.51999983  1  -0.039607  0  0.00563  0.052482  0  3.942178  0
C  C62  1  0.82571759  0.37980743  0.02031255  1  0.013485  0  0.005273  0.051217  0  3.948772  0
C  C63  1  0.64020254  0.32550574  0.52020732  1  0.028869  0  0.005154  0.050499  0  3.947408  0
C  C64  1  0.80525030  0.85961594  0.97962473  1  -0.012623  0  0.005728  0.052623  0  3.941965  0
C  C65  1  0.12032680  0.30558659  0.47997197  1  -0.03583  0  0.005553  0.052745  0  3.942119  0
C  C66  1  0.17428893  0.62017057  0.97969298  1  0.013405  0  0.005392  0.051343  0  3.948865  0
C  C67  1  0.35981050  0.67448640  0.47978618  1  0.029606  0  0.00502  0.050133  0  3.947303  0
C  C68  1  0.29014741  0.18015516  0.08814034  1  -0.038896  0  0.001964  0.035439  0  3.965072  0
C  C69  1  0.90747597  0.78992245  0.58802090  1  0.039994  0  0.002879  0.036171  0  3.965953  0
C  C70  1  0.79810397  0.40764303  0.08815817  1  0.038347  0  0.002325  0.036093  0  3.963983  0
C  C71  1  0.68025207  0.29799730  0.58821745  1  0.012829  0  0.002233  0.034807  0  3.964459  0
C  C72  1  0.70985879  0.81986866  0.91186358  1  -0.038983  0  0.002033  0.035423  0  3.965316  0
C  C73  1  0.09252982  0.21008510  0.41197809  1  0.040368  0  0.002825  0.035889  0  3.965786  0
C  C74  1  0.20192445  0.59233678  0.91185870  1  0.038061  0  0.002138  0.035985  0  3.964507  0
C  C75  1  0.31971395  0.70196443  0.41175898  1  0.011117  0  0.002062  0.034872  0  3.964536  0
C  C76  1  0.35425760  0.25846563  0.09376552  1  -0.034494  0  0.025543  0.00108  0  3.878026  0
C  C77  1  0.83507928  0.85406079  0.59396625  1  -0.039292  0  0.025274  0.000693  0  3.880914  0
C  C78  1  0.73970800  0.33490227  0.09379744  1  -0.069866  0  0.02487  0.003478  0  3.87294  0
C  C79  1  0.75864784  0.23987554  0.59415147  1  -0.017984  0  0.025865  0.006132  0  3.869816  0
C  C80  1  0.64576069  0.74152696  0.90621239  1  -0.035254  0  0.0255  0.000632  0  3.878523  0
C  C81  1  0.16491690  0.14593077  0.40606324  1  -0.039764  0  0.02522  0.00098  0  3.880932  0
C  C82  1  0.26033744  0.66508134  0.90623857  1  -0.0346  0  0.024849  0.00332  0  3.873364  0
C  C83  1  0.24127529  0.76003733  0.40580817  1  -0.018381  0  0.02605  0.00585  0  3.869955  0
C  C84  1  0.32560768  0.29636031  0.03416590  1  0.005174  0  -0.067949  -0.092498  0  3.948786  0
C  C85  1  0.73806052  0.82562650  0.53431894  1  -0.002467  0  -0.067626  -0.091573  0  3.949299  0
C  C86  1  0.70874914  0.23747635  0.03413769  1  0.01624  0  -0.068362  -0.093782  0  3.946422  0
C  C87  1  0.79617903  0.20880512  0.53449571  1  -0.101469  0  -0.068282  -0.094411  0  3.949096  0
C  C88  1  0.67440001  0.70362466  0.96580889  1  0.005804  0  -0.067862  -0.092108  0  3.94844  0
C  C89  1  0.26193943  0.17437165  0.46569946  1  -0.002361  0  -0.067578  -0.09168  0  3.949438  0
C  C90  1  0.29128730  0.76250561  0.96590200  1  -0.017858  0  -0.068426  -0.093903  0  3.946467  0
C  C91  1  0.20377009  0.79111503  0.46548159  1  -0.100641  0  -0.06835  -0.094427  0  3.949501  0
C  C92  1  0.23372399  0.25744598  0.96828825  1  0.013875  0  -0.065224  -0.070203  0  3.946445  0
C  C93  1  0.71129544  0.73376872  0.46808266  1  -0.030619  0  -0.065111  -0.069824  0  3.945477  0
C  C94  1  0.73469120  0.21066276  0.96815027  1  -0.005051  0  -0.064451  -0.069274  0  3.946314  0
C  C95  1  0.75693367  0.23454137  0.46830405  1  0.057536  0  -0.065189  -0.069717  0  3.947092  0
C  C96  1  0.76625653  0.74256586  0.03171612  1  0.013844  0  -0.065472  -0.070784  0  3.946706  0
C  C97  1  0.28871911  0.26626402  0.53190136  1  -0.029249  0  -0.064925  -0.069421  0  3.945515  0
C  C98  1  0.26531111  0.78931838  0.03187115  1  -0.005236  0  -0.064354  -0.068978  0  3.946422  0
C  C99  1  0.24308565  0.76544450  0.53170381  1  0.058239  0  -0.065146  -0.069711  0  3.947268  0
C  C100  1  0.13300301  0.06214948  0.01698716  1  -0.093879  0  -0.067499  -0.093358  0  3.88395  0
C  C101  1  0.95431416  0.63265492  0.51650639  1  -0.072518  0  -0.066853  -0.092673  0  3.881143  0
C  C102  1  0.88396680  0.45470165  0.01687333  1  -0.02815  0  -0.066775  -0.092764  0  3.884837  0
C  C103  1  0.56206206  0.38375516  0.51671401  1  -0.050745  0  -0.066933  -0.091625  0  3.881618  0
C  C104  1  0.86698582  0.93790925  0.98306575  1  -0.0817  0  -0.067605  -0.093252  0  3.884236  0
C  C105  1  0.04570412  0.36738115  0.48345016  1  -0.076392  0  -0.066865  -0.093036  0  3.881626  0
C  C106  1  0.11602886  0.54527605  0.98311846  1  -0.027602  0  -0.066894  -0.09282  0  3.884887  0
C  C107  1  0.43796110  0.61624410  0.48327396  1  -0.051548  0  -0.066662  -0.09133  0  3.881226  0
C  C108  1  0.16195062  0.02742076  0.07820126  1  -0.02076  0  -0.071243  -0.058437  0  3.947581  0
C  C109  1  0.04979478  0.66169756  0.57784089  1  -0.035368  0  -0.071139  -0.058778  0  3.947913  0
C  C110  1  0.91619109  0.55055530  0.07819150  1  0.009329  0  -0.071196  -0.057623  0  3.948309  0
C  C111  1  0.52770199  0.41595896  0.57802555  1  0.012719  0  -0.071326  -0.05889  0  3.947066  0
C  C112  1  0.83806227  0.97264099  0.92185400  1  -0.023874  0  -0.071076  -0.058127  0  3.947954  0
C  C113  1  0.95022571  0.33833179  0.42211783  1  -0.037991  0  -0.07086  -0.058168  0  3.947505  0
C  C114  1  0.08381128  0.44942516  0.92179655  1  0.009034  0  -0.071156  -0.057537  0  3.948194  0
C  C115  1  0.47230536  0.58403783  0.42195341  1  0.012963  0  -0.071455  -0.059054  0  3.947322  0
C  C116  1  0.25395617  0.06827886  0.14516600  1  -0.054073  0  -0.067577  -0.056145  0  3.944181  0
C  C117  1  0.07572128  0.75387687  0.64495279  1  -0.01238  0  -0.068272  -0.057065  0  3.943765  0
C  C118  1  0.89112345  0.57651935  0.14523357  1  -0.015065  0  -0.067764  -0.056202  0  3.944246  0
C  C119  1  0.56871759  0.39087803  0.64513884  1  -0.082102  0  -0.067728  -0.056612  0  3.94608  0
C  C120  1  0.74607087  0.93177928  0.85487136  1  -0.053401  0  -0.067854  -0.056722  0  3.944353  0
C  C121  1  0.92429946  0.24613808  0.35501873  1  -0.011989  0  -0.068322  -0.057309  0  3.943469  0
C  C122  1  0.10888844  0.42346350  0.85476097  1  -0.015479  0  -0.067784  -0.056507  0  3.944212  0
C  C123  1  0.43127064  0.60911287  0.35483894  1  -0.083219  0  -0.067595  -0.056458  0  3.945903  0
C  C124  1  0.31749937  0.14267546  0.14939355  1  -0.010082  0  -0.060387  -0.08228  0  3.894367  0
C  C125  1  0.00576690  0.81743753  0.64930118  1  -0.06289  0  -0.060723  -0.082084  0  3.892255  0
C  C126  1  0.83188256  0.50628862  0.14948030  1  -0.084731  0  -0.059989  -0.082295  0  3.894071  0
C  C127  1  0.64307079  0.33173132  0.64949664  1  -0.049872  0  -0.060575  -0.082132  0  3.893774  0
C  C128  1  0.68252369  0.85736149  0.85061750  1  -0.010917  0  -0.060364  -0.082078  0  3.89437  0
C  C129  1  0.99424541  0.18256651  0.35069163  1  -0.062927  0  -0.060736  -0.081991  0  3.892178  0
C  C130  1  0.16814383  0.49369624  0.85052864  1  -0.085494  0  -0.060081  -0.082382  0  3.894285  0
C  C131  1  0.35689476  0.66823773  0.35047860  1  -0.047546  0  -0.060383  -0.081779  0  3.893468  0
C  C132  1  0.06761572  0.15408822  0.89053735  1  1.519305  0  0.2158  0.54419  0  4.197807  0
C  C133  1  0.73660056  0.56734617  0.38984964  1  1.547475  0  0.216449  0.546446  0  4.196039  0
C  C134  1  0.82310441  0.23641464  0.89039618  1  1.554085  0  0.216094  0.54491  0  4.199615  0
C  C135  1  0.65349498  0.32279645  0.39014094  1  1.530547  0  0.214894  0.543942  0  4.19934  0
C  C136  1  0.93235762  0.84595525  0.10949121  1  1.517184  0  0.215647  0.544049  0  4.197716  0
C  C137  1  0.26340903  0.43269253  0.61010498  1  1.548218  0  0.216437  0.546197  0  4.196259  0
C  C138  1  0.17684735  0.76357095  0.10958475  1  1.553951  0  0.215716  0.54435  0  4.200588  0
C  C139  1  0.34657882  0.67723150  0.60989071  1  1.52766  0  0.214767  0.543887  0  4.200118  0
C  C140  1  0.45351655  0.30333663  0.16281884  1  1.56503  0  0.215475  0.545005  0  4.248692  0
C  C141  1  0.85929550  0.95328685  0.66341894  1  1.555605  0  0.216156  0.545025  0  4.249787  0
C  C142  1  0.70944991  0.35906530  0.16289584  1  1.553307  0  0.215424  0.543665  0  4.251351  0
C  C143  1  0.80384378  0.20987084  0.66348812  1  1.568685  0  0.215667  0.543632  0  4.247875  0
C  C144  1  0.54650548  0.69664345  0.83715902  1  1.565504  0  0.215311  0.544986  0  4.248587  0
C  C145  1  0.14067661  0.04668430  0.33664005  1  1.55604  0  0.215744  0.544586  0  4.250997  0
C  C146  1  0.29059042  0.64092067  0.83714029  1  1.553064  0  0.215519  0.544205  0  4.251047  0
C  C147  1  0.19601915  0.79001524  0.33645400  1  1.584929  0  0.215235  0.543355  0  4.248098  0
O  O148  1  0.52150238  0.24904312  0.17300069  1  -1.11028  0  -0.282942  -0.52398  0  2.121615  0
O  O149  1  0.92349390  0.02180778  0.67372948  1  -1.118979  0  -0.283078  -0.523733  0  2.125054  0
O  O150  1  0.65150896  0.42347676  0.17298290  1  -1.120204  0  -0.282806  -0.523592  0  2.124175  0
O  O151  1  0.75008003  0.15159799  0.67383114  1  -1.113617  0  -0.282933  -0.52363  0  2.123441  0
O  O152  1  0.47851223  0.75093432  0.82699059  1  -1.11018  0  -0.282787  -0.523739  0  2.12149  0
O  O153  1  0.07652163  0.97816960  0.32637855  1  -1.119467  0  -0.282718  -0.523442  0  2.125338  0
O  O154  1  0.34850216  0.57648615  0.82702120  1  -1.120871  0  -0.283009  -0.523973  0  2.124368  0
O  O155  1  0.24978041  0.84828001  0.32609437  1  -1.128655  0  -0.282981  -0.524025  0  2.124416  0
O  O156  1  0.99527221  0.09519125  0.88117356  1  -1.15257  0  -0.288104  -0.542802  0  2.202318  0
O  O157  1  0.78577726  0.49474209  0.38012312  1  -1.158913  0  -0.288157  -0.542929  0  2.199763  0
O  O158  1  0.88613794  0.28588814  0.88101760  1  -1.160721  0  -0.28751  -0.542026  0  2.203234  0
O  O159  1  0.59461395  0.38572175  0.38050933  1  -1.148055  0  -0.287433  -0.541923  0  2.200983  0
O  O160  1  0.00469009  0.90488414  0.11886721  1  -1.151363  0  -0.288065  -0.542788  0  2.202315  0
O  O161  1  0.21424269  0.50530648  0.61980543  1  -1.158972  0  -0.288193  -0.542991  0  2.199421  0
O  O162  1  0.11381004  0.71410395  0.11895811  1  -1.161335  0  -0.287274  -0.541754  0  2.203385  0
O  O163  1  0.40543114  0.61428592  0.61950414  1  -1.148957  0  -0.287517  -0.541985  0  2.201404  0
O  O164  1  0.05506383  0.19579777  0.84094433  1  -1.113245  0  -0.280037  -0.524135  0  2.201455  0
O  O165  1  0.64554075  0.55490440  0.34049639  1  -1.129334  0  -0.281287  -0.525842  0  2.199947  0
O  O166  1  0.78620423  0.14510461  0.84085795  1  -1.130252  0  -0.280269  -0.524454  0  2.205127  0
O  O167  1  0.69514650  0.28586128  0.34066795  1  -1.12757  0  -0.280262  -0.524313  0  2.202571  0
O  O168  1  0.94493426  0.80422650  0.15907308  1  -1.111907  0  -0.280016  -0.524142  0  2.201454  0
O  O169  1  0.35444405  0.44511750  0.65949593  1  -1.130148  0  -0.281144  -0.525514  0  2.200407  0
O  O170  1  0.21373601  0.85489302  0.15911159  1  -1.12972  0  -0.280279  -0.524306  0  2.205423  0
O  O171  1  0.30495144  0.71419442  0.65937738  1  -1.127267  0  -0.280078  -0.524229  0  2.202926  0
O  O172  1  0.46892898  0.39601302  0.20800760  1  -1.120878  0  -0.273366  -0.505553  0  2.126241  0
O  O173  1  0.81235675  0.96825949  0.70874854  1  -1.108231  0  -0.273543  -0.505391  0  2.126844  0
O  O174  1  0.73920179  0.31170469  0.20815673  1  -1.106348  0  -0.272548  -0.504782  0  2.128371  0
O  O175  1  0.89610087  0.24002797  0.70861768  1  -1.119418  0  -0.27346  -0.505797  0  2.126575  0
O  O176  1  0.53109077  0.60396841  0.79197171  1  -1.121372  0  -0.273394  -0.505683  0  2.126113  0
O  O177  1  0.18756409  0.03170046  0.29126398  1  -1.107576  0  -0.273494  -0.505475  0  2.127225  0
O  O178  1  0.26084299  0.68830486  0.79189284  1  -1.105916  0  -0.272527  -0.504994  0  2.127922  0
O  O179  1  0.10376716  0.75987779  0.29135186  1  -1.12092  0  -0.273074  -0.50518  0  2.125681  0
