# generated using pymatgen
data_Al3H10C33O14
_symmetry_space_group_name_H-M   'P 1'
_cell_length_a   12.76016197
_cell_length_b   12.74269346
_cell_length_c   26.87141002
_cell_angle_alpha   83.06032373
_cell_angle_beta   83.03636387
_cell_angle_gamma   62.53395669
_symmetry_Int_Tables_number   1
_chemical_formula_structural   Al3H10C33O14
_chemical_formula_sum   'Al6 H20 C66 O28'
_cell_volume   3837.71423487
_cell_formula_units_Z   2
loop_
 _symmetry_equiv_pos_site_id
 _symmetry_equiv_pos_as_xyz
  1  'x, y, z'
loop_
 _atom_site_type_symbol
 _atom_site_label
 _atom_site_symmetry_multiplicity
 _atom_site_fract_x
 _atom_site_fract_y
 _atom_site_fract_z
 _atom_site_occupancy
 _atom_site_pbe_bader_charge
 _atom_site_pbe_bader_spin_density
 _atom_site_pbe_cm5_charge
 _atom_site_pbe_ddec_charge
 _atom_site_pbe_ddec_spin_density
 _atom_site_pbe_ddec_sum_bond_order
 _atom_site_pbe_magmom
Al  Al0  1  0.40810369  0.40425088  0.51026727  1  2.4923  0  0.400534  1.683728  0  2.555225  0
Al  Al1  1  0.65245433  0.42375600  0.49592029  1  2.480581  0  0.510371  1.660925  0  2.507115  0
Al  Al2  1  0.42461207  0.65025190  0.49760520  1  2.479381  0  0.510581  1.662603  0  2.507693  0
Al  Al3  1  0.92883932  0.93175585  0.97866749  1  2.493912  0  0.399697  1.678805  0  2.562464  0
Al  Al4  1  0.91467336  0.68432468  0.99561077  1  2.48087  0  0.510298  1.662858  0  2.505334  0
Al  Al5  1  0.68615428  0.90997270  0.99320238  1  2.480821  0  0.509002  1.661911  0  2.50957  0
H  H6  1  0.20666599  0.83396036  0.20136914  1  0.071904  0  0.10702  0.097457  0  0.981763  0
H  H7  1  0.85694488  0.14446074  0.26210488  1  0.060643  0  0.103986  0.092701  0  0.988884  0
H  H8  1  0.81168698  0.96853366  0.22702219  1  0.08135  0  0.101547  0.088929  0  0.999436  0
H  H9  1  0.50325065  0.83697625  0.77585766  1  0.10202  0  0.11145  0.103407  0  0.976881  0
H  H10  1  0.66621207  0.83685885  0.69415261  1  0.08468  0  0.109605  0.099595  0  0.980458  0
H  H11  1  0.49596031  0.64168440  0.73877827  1  0.08522  0  0.107658  0.097373  0  0.984179  0
H  H12  1  0.68660369  0.48383011  0.79689955  1  0.081006  0  0.110806  0.10132  0  0.97864  0
H  H13  1  0.84944504  0.48376393  0.71524144  1  0.067727  0  0.111318  0.103123  0  0.976208  0
H  H14  1  0.85673074  0.67910388  0.75227556  1  0.096394  0  0.107585  0.097289  0  0.985509  0
H  H15  1  0.03209013  0.86591590  0.28254728  1  0.054806  0  0.103898  0.093257  0  0.991133  0
H  H16  1  0.37077272  0.63145782  0.25614121  1  0.05424  0  0.101847  0.088248  0  0.995534  0
H  H17  1  0.29859329  0.48686369  0.21094109  1  0.079332  0  0.103405  0.091531  0  0.993136  0
H  H18  1  0.12414045  0.51870954  0.29225111  1  0.069186  0  0.109045  0.100812  0  0.97922  0
H  H19  1  0.95987524  0.72129139  0.23739716  1  0.068631  0  0.101593  0.087573  0  0.996646  0
H  H20  1  0.61392462  0.02667424  0.29891677  1  0.075486  0  0.107271  0.09812  0  0.983161  0
H  H21  1  0.51188652  0.37115400  0.26180523  1  0.078811  0  0.10212  0.090196  0  0.998758  0
H  H22  1  0.70954552  0.31327623  0.18986463  1  0.081975  0  0.106072  0.095761  0  0.983798  0
H  H23  1  0.46672897  0.19535108  0.22674428  1  0.065164  0  0.104612  0.093239  0  0.987679  0
H  H24  1  0.33077352  0.27905700  0.55074105  1  0.582932  0  0.29589  0.386699  0  0.917348  0
H  H25  1  0.05313054  0.01081962  0.99453762  1  0.583868  0  0.295739  0.38589  0  0.918519  0
C  C26  1  0.61614999  0.28585639  0.43541345  1  1.628215  0  0.276481  0.707836  0  4.170894  0
C  C27  1  0.65741490  0.66656215  0.26867517  1  0.045467  0  0.001676  -0.003382  0  4.185742  0
C  C28  1  0.64282725  0.65211016  0.31892906  1  -0.375086  0  -0.00319  0.0269  0  4.243324  0
C  C29  1  0.62932011  0.63777712  0.36484193  1  0.312479  0  0.010148  -0.119731  0  3.798597  0
C  C30  1  0.09106664  0.78198493  0.26611820  1  -0.017077  0  -0.067799  -0.079071  0  3.628179  0
C  C31  1  0.18837238  0.76411292  0.22200068  1  -0.018956  0  -0.068129  -0.077575  0  3.625528  0
C  C32  1  0.10091788  0.70105261  0.10270047  1  0.001821  0  -0.047573  -0.213128  0  3.985793  0
C  C33  1  0.23190618  0.64441712  0.39088976  1  0.271027  0  -0.0433  -0.207353  0  3.982698  0
C  C34  1  0.05123957  0.70132371  0.24229862  1  -0.017051  0  -0.065038  -0.072234  0  3.624069  0
C  C35  1  0.14836102  0.68374224  0.19674521  1  0.118512  0  0.008389  0.119084  0  3.800779  0
C  C36  1  0.14226520  0.58855209  0.27152855  1  -0.007678  0  -0.067298  -0.077261  0  3.62364  0
C  C37  1  0.60566787  0.61031495  0.41733780  1  1.693064  0  0.284624  0.698209  0  4.175926  0
C  C38  1  0.18228292  0.66891391  0.29678117  1  0.139677  0  0.009801  0.120183  0  3.800925  0
C  C39  1  0.23960933  0.57070032  0.22744334  1  -0.032112  0  -0.066999  -0.077231  0  3.629432  0
C  C40  1  0.27940858  0.65137401  0.25125157  1  -0.013102  0  -0.065939  -0.07228  0  3.623007  0
C  C41  1  0.12549579  0.69202235  0.14596779  1  -0.276072  0  -0.018636  -0.024445  0  4.078064  0
C  C42  1  0.20577256  0.65856220  0.34759607  1  -0.578526  0  -0.018141  -0.025329  0  4.074705  0
C  C43  1  0.63513280  0.08999710  0.27415189  1  -0.011156  0  -0.066067  -0.075229  0  3.622133  0
C  C44  1  0.55330457  0.18417573  0.23495504  1  -0.006957  0  -0.06914  -0.081426  0  3.634979  0
C  C45  1  0.68623674  0.10293603  0.10072961  1  0.232055  0  -0.04598  -0.20904  0  3.983415  0
C  C46  1  0.64562147  0.23557958  0.38770201  1  0.278318  0  -0.045153  -0.206156  0  3.983169  0
C  C47  1  0.74529620  0.05810120  0.23550179  1  -0.04901  0  -0.065763  -0.070451  0  3.62071  0
C  C48  1  0.28397646  0.61364192  0.43817224  1  1.670688  0  0.280444  0.711853  0  4.164127  0
C  C49  1  0.66316359  0.15201250  0.19489379  1  0.098353  0  0.008594  0.118644  0  3.800488  0
C  C50  1  0.77047622  0.15557989  0.25377827  1  0.001654  0  -0.069765  -0.082449  0  3.636799  0
C  C51  1  0.66074974  0.18772620  0.29385503  1  0.116595  0  0.009692  0.119154  0  3.802995  0
C  C52  1  0.68856543  0.24983533  0.21465112  1  -0.021782  0  -0.065385  -0.072524  0  3.621287  0
C  C53  1  0.57842288  0.28164517  0.25331271  1  -0.043339  0  -0.065972  -0.071784  0  3.621768  0
C  C54  1  0.67172296  0.12857118  0.14415004  1  -0.496986  0  -0.020004  -0.028026  0  4.076953  0
C  C55  1  0.65478238  0.21079933  0.34445181  1  -0.54755  0  -0.018489  -0.02712  0  4.077501  0
C  C56  1  0.67071419  0.75865348  0.71750090  1  -0.018071  0  -0.06065  -0.067766  0  3.614242  0
C  C57  1  0.58000438  0.75851905  0.76206486  1  -0.024681  0  -0.064097  -0.075999  0  3.622703  0
C  C58  1  0.70853833  0.69234803  0.88904454  1  0.238939  0  -0.046073  -0.225523  0  3.964338  0
C  C59  1  0.61434207  0.28566219  0.57721295  1  1.705298  0  0.276952  0.694195  0  4.188068  0
C  C60  1  0.64031148  0.63194070  0.60209169  1  0.158101  0  -0.045959  -0.225122  0  3.965981  0
C  C61  1  0.77651535  0.67062715  0.74879697  1  -0.038429  0  -0.059776  -0.064616  0  3.60564  0
C  C62  1  0.68553363  0.67119115  0.79511781  1  0.136247  0  0.010558  0.107248  0  3.783099  0
C  C63  1  0.77265791  0.56225593  0.72898620  1  -0.000149  0  -0.064038  -0.075448  0  3.621468  0
C  C64  1  0.66704997  0.64962010  0.69595294  1  0.114888  0  0.009552  0.10537  0  3.7867  0
C  C65  1  0.68196380  0.56209926  0.77356726  1  -0.014737  0  -0.060603  -0.067719  0  3.611191  0
C  C66  1  0.57617033  0.65015220  0.74226996  1  -0.022201  0  -0.059218  -0.064247  0  3.607399  0
C  C67  1  0.69766684  0.68152036  0.84565713  1  -0.519726  0  0.00018  0.011104  0  4.031792  0
C  C68  1  0.65363184  0.64044794  0.64544513  1  -0.408512  0  -0.000641  0.009785  0  4.035556  0
C  C69  1  0.09945361  0.69318753  0.86339806  1  0.209756  0  0.00678  -0.123209  0  3.819629  0
C  C70  1  0.61378857  0.60974083  0.55546990  1  1.616554  0  0.2852  0.728179  0  4.145056  0
C  C71  1  0.12754273  0.68020541  0.81844248  1  -0.308545  0  -0.006417  0.024875  0  4.259265  0
C  C72  1  0.15620742  0.66798152  0.76915736  1  -0.077626  0  5.9e-05  -0.004406  0  4.202184  0
C  C73  1  0.18068441  0.65890951  0.72353620  1  0.085705  0  -0.001428  -0.007733  0  4.204387  0
C  C74  1  0.21007177  0.64727705  0.67425564  1  -0.287841  0  -0.007074  0.025327  0  4.261861  0
C  C75  1  0.23912794  0.63541934  0.62929524  1  0.218339  0  0.004791  -0.125891  0  3.820945  0
C  C76  1  0.69922760  0.09840944  0.86182010  1  0.109511  0  0.007988  -0.122922  0  3.81911  0
C  C77  1  0.68765920  0.12675398  0.81681144  1  -0.239057  0  -0.004219  0.028086  0  4.253399  0
C  C78  1  0.67603861  0.15525466  0.76747337  1  -0.208676  0  0.000954  -0.003092  0  4.194515  0
C  C79  1  0.66654854  0.17904249  0.72185245  1  0.189641  0  0.000378  -0.003622  0  4.196476  0
C  C80  1  0.65445569  0.20711574  0.67251961  1  -0.06501  0  -0.005582  0.027258  0  4.258262  0
C  C81  1  0.29084517  0.60767389  0.57909466  1  1.668487  0  0.277591  0.692397  0  4.186389  0
C  C82  1  0.64220872  0.23471196  0.62749264  1  -0.003718  0  0.003546  -0.12908  0  3.822411  0
C  C83  1  0.05156561  0.72595961  0.05499362  1  1.646522  0  0.277063  0.718151  0  4.162474  0
C  C84  1  0.72747254  0.72929376  0.07374564  1  1.699569  0  0.284182  0.699645  0  4.175627  0
C  C85  1  0.71953049  0.05157125  0.05319197  1  1.64876  0  0.275251  0.714254  0  4.162993  0
C  C86  1  0.04858516  0.72397081  0.91344033  1  1.661731  0  0.278869  0.68895  0  4.190145  0
C  C87  1  0.73133297  0.71828637  0.93566935  1  1.635161  0  0.28493  0.728324  0  4.145639  0
C  C88  1  0.72538565  0.04691980  0.91215615  1  1.698768  0  0.28181  0.686658  0  4.190777  0
C  C89  1  0.70071226  0.70461974  0.12619117  1  0.193781  0  0.008691  -0.123884  0  3.801687  0
C  C90  1  0.68567480  0.69186333  0.17210224  1  -0.330124  0  -0.003596  0.028593  0  4.243471  0
C  C91  1  0.67039617  0.67837962  0.22236499  1  -0.009786  0  0.000731  -0.004724  0  4.185538  0
O  O92  1  0.30738574  0.51190605  0.45908692  1  -1.220202  0  -0.19871  -0.533319  0  2.282111  0
O  O93  1  0.68803604  0.51405971  0.53528635  1  -1.246854  0  -0.228909  -0.593975  0  2.242821  0
O  O94  1  0.51489621  0.68401481  0.53785296  1  -1.249501  0  -0.229386  -0.594904  0  2.243083  0
O  O95  1  0.31362350  0.68719723  0.55268727  1  -1.245126  0  -0.236647  -0.593745  0  2.236579  0
O  O96  1  0.49623327  0.49383682  0.50151402  1  -1.609137  0  -0.390524  -1.274371  0  2.291274  0
O  O97  1  0.82292429  0.02611895  0.03393026  1  -1.219326  0  -0.208999  -0.560483  0  2.294938  0
O  O98  1  0.03105710  0.82478593  0.03148829  1  -1.227711  0  -0.212423  -0.572028  0  2.298564  0
O  O99  1  0.02757490  0.64644629  0.04083052  1  -1.256196  0  -0.243604  -0.606773  0  2.231504  0
O  O100  1  0.82529620  0.65430209  0.05354401  1  -1.238274  0  -0.21829  -0.56985  0  2.248318  0
O  O101  1  0.65353901  0.82667606  0.05276620  1  -1.23637  0  -0.218378  -0.570549  0  2.246476  0
O  O102  1  0.64198372  0.03107947  0.03484549  1  -1.25723  0  -0.246992  -0.614038  0  2.230245  0
O  O103  1  0.51389152  0.31077557  0.45584309  1  -1.21813  0  -0.201619  -0.544822  0  2.298192  0
O  O104  1  0.82223203  0.03097736  0.92673960  1  -1.198415  0  -0.191931  -0.51638  0  2.281085  0
O  O105  1  0.02306812  0.82708089  0.92408663  1  -1.198104  0  -0.196531  -0.529391  0  2.287488  0
O  O106  1  0.02990772  0.64452554  0.94208930  1  -1.246339  0  -0.237259  -0.597401  0  2.238063  0
O  O107  1  0.82901950  0.64597844  0.95475561  1  -1.253094  0  -0.228984  -0.594433  0  2.242666  0
O  O108  1  0.65510960  0.81521843  0.95440541  1  -1.247504  0  -0.229873  -0.595983  0  2.244453  0
O  O109  1  0.64852410  0.01774273  0.93688290  1  -1.24992  0  -0.2338  -0.591787  0  2.243199  0
O  O110  1  0.84229927  0.84068147  0.98940166  1  -1.608352  0  -0.390396  -1.274067  0  2.29376  0
O  O111  1  0.69521287  0.30586358  0.45272902  1  -1.251464  0  -0.245229  -0.610622  0  2.228024  0
O  O112  1  0.68068216  0.51156594  0.43687023  1  -1.240469  0  -0.217391  -0.568615  0  2.248506  0
O  O113  1  0.50941238  0.68434569  0.43897835  1  -1.237147  0  -0.21821  -0.569196  0  2.245833  0
O  O114  1  0.30704784  0.69171497  0.45444310  1  -1.252227  0  -0.244291  -0.611421  0  2.23571  0
O  O115  1  0.31313376  0.50714332  0.56619827  1  -1.205169  0  -0.202762  -0.54755  0  2.293239  0
O  O116  1  0.51582124  0.30322838  0.56372610  1  -1.209212  0  -0.205916  -0.556215  0  2.293458  0
O  O117  1  0.69123594  0.31286575  0.55128351  1  -1.246969  0  -0.234012  -0.589652  0  2.238662  0
O  O118  1  0.32787250  0.32265436  0.51847749  1  -1.359108  0  -0.572615  -0.987784  0  1.789405  0
O  O119  1  0.00797840  0.01443892  0.96741843  1  -1.360048  0  -0.572045  -0.98603  0  1.791331  0
