# generated using pymatgen
data_ZnH20C19N4O5
_symmetry_space_group_name_H-M   'P 1'
_cell_length_a   9.06223359
_cell_length_b   9.33957634
_cell_length_c   12.27708462
_cell_angle_alpha   83.73508817
_cell_angle_beta   84.82079394
_cell_angle_gamma   87.63077716
_symmetry_Int_Tables_number   1
_chemical_formula_structural   ZnH20C19N4O5
_chemical_formula_sum   'Zn2 H40 C38 N8 O10'
_cell_volume   1028.15769502
_cell_formula_units_Z   2
loop_
 _symmetry_equiv_pos_site_id
 _symmetry_equiv_pos_as_xyz
  1  'x, y, z'
loop_
 _atom_site_type_symbol
 _atom_site_label
 _atom_site_symmetry_multiplicity
 _atom_site_fract_x
 _atom_site_fract_y
 _atom_site_fract_z
 _atom_site_occupancy
 _atom_site_hle17_bader_spin_density
 _atom_site_hle17_ddec_charge
 _atom_site_hle17_ddec_spin_density
 _atom_site_hle17_ddec_sum_bond_order
 _atom_site_hle17_magmom
 _atom_site_hse06_10hf_bader_spin_density
 _atom_site_hse06_10hf_ddec_charge
 _atom_site_hse06_10hf_ddec_spin_density
 _atom_site_hse06_10hf_ddec_sum_bond_order
 _atom_site_hse06_10hf_magmom
 _atom_site_hse06_bader_spin_density
 _atom_site_hse06_ddec_charge
 _atom_site_hse06_ddec_spin_density
 _atom_site_hse06_ddec_sum_bond_order
 _atom_site_hse06_magmom
 _atom_site_pbe_bader_spin_density
 _atom_site_pbe_cm5_charge
 _atom_site_pbe_ddec_charge
 _atom_site_pbe_ddec_spin_density
 _atom_site_pbe_ddec_sum_bond_order
 _atom_site_pbe_magmom
Zn  Zn0  1  0.15631723  0.74092694  0.24561040  1  0  0.997493  0  1.888264  0  0  0.80702  0  2.370254  0  0  0.853076  0  2.31576  0  0  0.692097  0.774965  0  2.407596  0
Zn  Zn1  1  0.84367446  0.25909011  0.75438944  1  0  0.997435  0  1.888162  0  0  0.806989  0  2.370128  0  0  0.853026  0  2.31563  0  0  0.692094  0.774932  0  2.407454  0
H  H2  1  0.53038514  0.90138192  0.39806383  1  0  0.094475  0  0.953337  0  0  0.104645  0  1.015366  0  0  0.10769  0  1.013752  0  0  0.100839  0.102428  0  1.016608  0
H  H3  1  0.46962893  0.09861193  0.60193310  1  0  0.094499  0  0.953379  0  0  0.10467  0  1.015405  0  0  0.107719  0  1.013782  0  0  0.100875  0.102454  0  1.016651  0
H  H4  1  0.75295290  0.04001317  0.42061309  1  0  0.090132  0  0.961221  0  0  0.100006  0  1.023778  0  0  0.102672  0  1.023763  0  0  0.09652  0.097777  0  1.024697  0
H  H5  1  0.24707485  0.95997129  0.57936328  1  0  0.090257  0  0.961162  0  0  0.100121  0  1.023704  0  0  0.102787  0  1.023688  0  0  0.096551  0.097892  0  1.024624  0
H  H6  1  0.59994961  0.89233337  0.94041802  1  0  0.069262  0  0.981624  0  0  0.086388  0  1.043772  0  0  0.086871  0  1.045036  0  0  0.093276  0.085927  0  1.043009  0
H  H7  1  0.40004678  0.10767730  0.05956899  1  0  0.069271  0  0.981483  0  0  0.086287  0  1.043721  0  0  0.086804  0  1.044935  0  0  0.093147  0.085805  0  1.042984  0
H  H8  1  0.52211979  0.86190052  0.07825551  1  0  0.08346  0  0.928903  0  0  0.100523  0  0.988788  0  0  0.101916  0  0.988703  0  0  0.093386  0.099354  0  0.989186  0
H  H9  1  0.47787124  0.13810679  0.92173052  1  0  0.083503  0  0.929034  0  0  0.100564  0  0.988812  0  0  0.101964  0  0.988716  0  0  0.09339  0.09939  0  0.989221  0
H  H10  1  0.04241784  0.87715398  0.47727350  1  0  0.10866  0  0.960447  0  0  0.119335  0  1.019146  0  0  0.121598  0  1.018663  0  0  0.118797  0.117328  0  1.020579  0
H  H11  1  0.95755924  0.12286595  0.52272225  1  0  0.10868  0  0.960527  0  0  0.119349  0  1.019227  0  0  0.121613  0  1.018742  0  0  0.118801  0.117344  0  1.020652  0
H  H12  1  0.86834431  0.94803249  0.22737841  1  0  0.098189  0  0.945187  0  0  0.106517  0  1.012576  0  0  0.108744  0  1.010059  0  0  0.135542  0.105146  0  1.013934  0
H  H13  1  0.13163843  0.05198542  0.77261710  1  0  0.098231  0  0.945104  0  0  0.106631  0  1.012399  0  0  0.108859  0  1.009886  0  0  0.135581  0.105263  0  1.01376  0
H  H14  1  0.81344567  0.74948882  0.61543143  1  0  0.136366  0  0.976373  0  0  0.137168  0  1.048089  0  0  0.141278  0  1.044924  0  0  0.122862  0.134047  0  1.05071  0
H  H15  1  0.18655661  0.25049936  0.38457414  1  0  0.136382  0  0.976394  0  0  0.137182  0  1.048105  0  0  0.141298  0  1.044926  0  0  0.122865  0.134064  0  1.050719  0
H  H16  1  0.91150958  0.51301521  0.34006771  1  0  0.097308  0  0.926945  0  0  0.10934  0  0.986817  0  0  0.112065  0  0.983451  0  0  0.140027  0.107255  0  0.989156  0
H  H17  1  0.08850297  0.48698615  0.65993114  1  0  0.097367  0  0.926887  0  0  0.109384  0  0.986772  0  0  0.112112  0  0.9834  0  0  0.140077  0.107304  0  0.989112  0
H  H18  1  0.85530668  0.85140422  0.89924131  1  0  0.135396  0  0.963097  0  0  0.14094  0  1.026403  0  0  0.144327  0  1.024344  0  0  0.127664  0.138551  0  1.027836  0
H  H19  1  0.14469471  0.14859795  0.10075500  1  0  0.13526  0  0.96324  0  0  0.14087  0  1.026492  0  0  0.144258  0  1.024427  0  0  0.127615  0.138483  0  1.027917  0
H  H20  1  0.29175748  0.35968469  0.03237648  1  0  0.089474  0  0.929135  0  0  0.099105  0  0.993689  0  0  0.100727  0  0.99286  0  0  0.110826  0.098101  0  0.994009  0
H  H21  1  0.70822496  0.64030302  0.96764113  1  0  0.089435  0  0.929083  0  0  0.099066  0  0.993685  0  0  0.100678  0  0.992863  0  0  0.110827  0.098064  0  0.994003  0
H  H22  1  0.47371777  0.38375435  0.06669625  1  0  0.102192  0  0.967966  0  0  0.108268  0  1.038331  0  0  0.111077  0  1.035966  0  0  0.109031  0.106444  0  1.039908  0
H  H23  1  0.52626448  0.61623658  0.93332030  1  0  0.102049  0  0.968059  0  0  0.108152  0  1.038473  0  0  0.110955  0  1.036101  0  0  0.108964  0.106328  0  1.040049  0
H  H24  1  0.77643156  0.28996106  0.32630528  1  0  0.080051  0  0.955024  0  0  0.09366  0  1.011191  0  0  0.096349  0  1.009509  0  0  0.098399  0.091605  0  1.012601  0
H  H25  1  0.22358816  0.71002860  0.67367530  1  0  0.080159  0  0.955094  0  0  0.093656  0  1.011353  0  0  0.096345  0  1.009674  0  0  0.098442  0.091605  0  1.012762  0
H  H26  1  0.52458418  0.66172855  0.50148070  1  0  0.071009  0  0.941593  0  0  0.08999  0  1.00247  0  0  0.09002  0  1.004407  0  0  0.091641  0.089523  0  1.001712  0
H  H27  1  0.47543034  0.33825993  0.49853212  1  0  0.07093  0  0.941407  0  0  0.090002  0  1.002261  0  0  0.090033  0  1.004196  0  0  0.091691  0.089544  0  1.001502  0
H  H28  1  0.57493714  0.56212680  0.38830221  1  0  0.070218  0  0.926295  0  0  0.089893  0  0.983262  0  0  0.090651  0  0.983637  0  0  0.092491  0.089032  0  0.983348  0
H  H29  1  0.42507281  0.43786372  0.61170913  1  0  0.070188  0  0.926161  0  0  0.089877  0  0.98318  0  0  0.090624  0  0.983559  0  0  0.092468  0.08902  0  0.983277  0
H  H30  1  0.09479710  0.70201064  0.99233056  1  0  0.112955  0  0.961321  0  0  0.123995  0  1.016699  0  0  0.126544  0  1.015848  0  0  0.119416  0.12255  0  1.016594  0
H  H31  1  0.90520179  0.29799795  0.00767599  1  0  0.113079  0  0.961155  0  0  0.124087  0  1.01657  0  0  0.126634  0  1.015717  0  0  0.119457  0.122641  0  1.016457  0
H  H32  1  0.72387411  0.11285984  0.98956747  1  0  0.083173  0  0.953571  0  0  0.095914  0  1.021763  0  0  0.097018  0  1.020822  0  0  0.108075  0.095112  0  1.022937  0
H  H33  1  0.27612148  0.88714650  0.01042647  1  0  0.08316  0  0.953658  0  0  0.095939  0  1.021825  0  0  0.097042  0  1.020888  0  0  0.10811  0.095146  0  1.022982  0
H  H34  1  0.66471291  0.06290509  0.12926186  1  0  0.070162  0  0.951846  0  0  0.084896  0  1.017694  0  0  0.083858  0  1.021049  0  0  0.107083  0.085664  0  1.015429  0
H  H35  1  0.33527612  0.93709893  0.87072785  1  0  0.070227  0  0.951765  0  0  0.084985  0  1.017649  0  0  0.083948  0  1.021002  0  0  0.107117  0.085748  0  1.015388  0
H  H36  1  0.69291500  0.50336348  0.61744589  1  0  0.098241  0  0.957835  0  0  0.110891  0  1.020021  0  0  0.112795  0  1.019002  0  0  0.113129  0.109262  0  1.021304  0
H  H37  1  0.30710715  0.49662625  0.38255977  1  0  0.098258  0  0.95773  0  0  0.110929  0  1.019943  0  0  0.11283  0  1.018921  0  0  0.113155  0.1093  0  1.021225  0
H  H38  1  0.74036556  0.39869806  0.50690014  1  0  0.071978  0  0.933722  0  0  0.084505  0  1.00201  0  0  0.084653  0  1.002838  0  0  0.107585  0.084108  0  1.002176  0
H  H39  1  0.25964760  0.60129361  0.49310436  1  0  0.071874  0  0.933707  0  0  0.084529  0  1.001883  0  0  0.084672  0  1.00271  0  0  0.107596  0.084134  0  1.00205  0
H  H40  1  0.57768381  0.40046653  0.21531896  1  0  0.111441  0  0.946711  0  0  0.125715  0  0.999502  0  0  0.129165  0  0.99773  0  0  0.107948  0.123145  0  1.001061  0
H  H41  1  0.42230671  0.59953432  0.78469291  1  0  0.111422  0  0.9466  0  0  0.125763  0  0.999332  0  0  0.129214  0  0.997556  0  0  0.107934  0.123194  0  1.000898  0
C  C42  1  0.42569814  0.07237940  0.29941966  1  0  -0.165972  0  3.717306  0  0  -0.148129  0  3.956331  0  0  -0.157991  0  3.976726  0  0  -0.026655  -0.141649  0  3.942688  0
C  C43  1  0.57430595  0.92761529  0.70058279  1  0  -0.165722  0  3.717162  0  0  -0.147913  0  3.956231  0  0  -0.157726  0  3.976583  0  0  -0.026611  -0.141436  0  3.942593  0
C  C44  1  0.43924800  0.21472009  0.24710017  1  0  0.258606  0  3.774714  0  0  0.241701  0  4.038439  0  0  0.254399  0  4.05375  0  0  0.090897  0.232915  0  4.028322  0
C  C45  1  0.56075049  0.78527662  0.75290903  1  0  0.258503  0  3.774686  0  0  0.241582  0  4.038485  0  0  0.254206  0  4.053791  0  0  0.090827  0.232782  0  4.028376  0
C  C46  1  0.29416659  0.98275402  0.28865583  1  0  0.655007  0  3.91101  0  0  0.605148  0  4.208453  0  0  0.639594  0  4.199891  0  0  0.199419  0.582029  0  4.213107  0
C  C47  1  0.70583752  0.01724067  0.71134907  1  0  0.654891  0  3.911133  0  0  0.605038  0  4.208594  0  0  0.639467  0  4.200039  0  0  0.199344  0.58192  0  4.213246  0
C  C48  1  0.30334867  0.53207909  0.12866103  1  0  0.649796  0  3.913051  0  0  0.602035  0  4.214151  0  0  0.63437  0  4.207672  0  0  0.194125  0.580144  0  4.217685  0
C  C49  1  0.69664150  0.46792605  0.87133991  1  0  0.649514  0  3.913232  0  0  0.601758  0  4.214406  0  0  0.634085  0  4.207928  0  0  0.19396  0.579865  0  4.217934  0
C  C50  1  0.54059986  0.01207799  0.36028809  1  0  -0.057022  0  3.77206  0  0  -0.080645  0  4.02186  0  0  -0.078312  0  4.040984  0  0  -0.086991  -0.081852  0  4.008689  0
C  C51  1  0.45941095  0.98791469  0.63970753  1  0  -0.057116  0  3.772456  0  0  -0.080726  0  4.02224  0  0  -0.07841  0  4.041354  0  0  -0.087034  -0.08193  0  4.009067  0
C  C52  1  0.66562195  0.08951820  0.37208265  1  0  -0.117417  0  3.818085  0  0  -0.134214  0  4.078379  0  0  -0.138391  0  4.09893  0  0  -0.110747  -0.131424  0  4.064594  0
C  C53  1  0.33439656  0.91047359  0.62790028  1  0  -0.117532  0  3.818349  0  0  -0.134319  0  4.078598  0  0  -0.138497  0  4.099149  0  0  -0.110737  -0.131522  0  4.064809  0
C  C54  1  0.56250192  0.94580227  0.01368698  1  0  -0.12489  0  3.669518  0  0  -0.16443  0  3.926411  0  0  -0.166294  0  3.940345  0  0  -0.167676  -0.163422  0  3.918023  0
C  C55  1  0.43749785  0.05420741  0.98630067  1  0  -0.125008  0  3.669377  0  0  -0.164259  0  3.926063  0  0  -0.166134  0  3.939985  0  0  -0.167501  -0.163241  0  3.917686  0
C  C56  1  0.98083171  0.78221636  0.46987313  1  0  -0.014082  0  3.755176  0  0  -0.046984  0  4.020108  0  0  -0.0465  0  4.041221  0  0  -0.005021  -0.047546  0  4.006802  0
C  C57  1  0.01915696  0.21779522  0.53012412  1  0  -0.014096  0  3.75547  0  0  -0.046984  0  4.0204  0  0  -0.046503  0  4.041515  0  0  -0.004964  -0.04754  0  4.007079  0
C  C58  1  0.89749669  0.89798419  0.15236897  1  0  0.161052  0  3.66827  0  0  0.098137  0  3.932857  0  0  0.112015  0  3.946232  0  0  0.142198  0.089397  0  3.922823  0
C  C59  1  0.10249640  0.10202749  0.84762795  1  0  0.160786  0  3.668326  0  0  0.097826  0  3.932924  0  0  0.111697  0  3.946304  0  0  0.142104  0.089081  0  3.922903  0
C  C60  1  0.86583347  0.72093739  0.53748060  1  0  -0.055403  0  3.642994  0  0  -0.094872  0  3.902821  0  0  -0.093384  0  3.921327  0  0  0.005765  -0.095718  0  3.890273  0
C  C61  1  0.13416383  0.27905929  0.46251972  1  0  -0.055495  0  3.643196  0  0  -0.09496  0  3.902991  0  0  -0.093471  0  3.921499  0  0  0.005706  -0.095806  0  3.890429  0
C  C62  1  0.91576433  0.59650252  0.39443734  1  0  0.156081  0  3.664588  0  0  0.091986  0  3.93266  0  0  0.105521  0  3.945352  0  0  0.140526  0.083882  0  3.922661  0
C  C63  1  0.08424041  0.40349973  0.60556199  1  0  0.155996  0  3.664736  0  0  0.091909  0  3.932811  0  0  0.105446  0  3.945501  0  0  0.140557  0.083796  0  3.922827  0
C  C64  1  0.89247486  0.84573230  0.98125236  1  0  -0.059922  0  3.651333  0  0  -0.098339  0  3.910853  0  0  -0.097215  0  3.929715  0  0  0.002645  -0.099033  0  3.897679  0
C  C65  1  0.10752519  0.15427416  0.01874614  1  0  -0.059825  0  3.65129  0  0  -0.098321  0  3.910811  0  0  -0.097197  0  3.929665  0  0  0.002671  -0.099011  0  3.897635  0
C  C66  1  0.35652911  0.38320717  0.09961328  1  0  -0.083022  0  3.62643  0  0  -0.138022  0  3.887404  0  0  -0.135302  0  3.888059  0  0  -0.071577  -0.140043  0  3.886761  0
C  C67  1  0.64345400  0.61678810  0.90040284  1  0  -0.082648  0  3.626485  0  0  -0.137757  0  3.887656  0  0  -0.135056  0  3.888267  0  0  -0.071429  -0.139784  0  3.887013  0
C  C68  1  0.67772584  0.22956047  0.31977753  1  0  -0.04804  0  3.815987  0  0  -0.062513  0  4.06981  0  0  -0.05994  0  4.088199  0  0  -0.093686  -0.064059  0  4.057323  0
C  C69  1  0.32228494  0.77043114  0.68020841  1  0  -0.048206  0  3.816254  0  0  -0.062594  0  4.070084  0  0  -0.060022  0  4.088474  0  0  -0.093812  -0.064141  0  4.057601  0
C  C70  1  0.55978050  0.55386995  0.47879538  1  0  -0.121365  0  3.693178  0  0  -0.164276  0  3.957711  0  0  -0.166153  0  3.97285  0  0  -0.162381  -0.162873  0  3.948016  0
C  C71  1  0.44023173  0.44611955  0.52121588  1  0  -0.120911  0  3.692682  0  0  -0.164077  0  3.957467  0  0  -0.165942  0  3.97258  0  0  -0.162358  -0.162709  0  3.947805  0
C  C72  1  0.01013752  0.77298097  0.02742496  1  0  -0.006429  0  3.754082  0  0  -0.040585  0  4.017989  0  0  -0.039107  0  4.038317  0  0  -0.006268  -0.04116  0  4.003286  0
C  C73  1  0.98986226  0.22703088  0.97257799  1  0  -0.006547  0  3.753979  0  0  -0.040661  0  4.017913  0  0  -0.039174  0  4.038233  0  0  -0.006266  -0.04123  0  4.0032  0
C  C74  1  0.69276352  0.02093862  0.04966850  1  0  0.002776  0  3.614133  0  0  -0.058793  0  3.868095  0  0  -0.054749  0  3.880636  0  0  -0.054226  -0.061704  0  3.860551  0
C  C75  1  0.30722071  0.97907177  0.95032103  1  0  0.002728  0  3.614057  0  0  -0.05903  0  3.868168  0  0  -0.054991  0  3.880721  0  0  -0.054287  -0.061925  0  3.860606  0
C  C76  1  0.70515035  0.50716442  0.52747109  1  0  -0.01626  0  3.631811  0  0  -0.075859  0  3.889288  0  0  -0.072423  0  3.901206  0  0  -0.057295  -0.078174  0  3.881765  0
C  C77  1  0.29486529  0.49282299  0.47253603  1  0  -0.016463  0  3.631749  0  0  -0.076185  0  3.889392  0  0  -0.072736  0  3.901294  0  0  -0.057481  -0.078492  0  3.881871  0
C  C78  1  0.56576091  0.29226651  0.25746160  1  0  -0.200176  0  3.757066  0  0  -0.220701  0  4.012949  0  0  -0.226586  0  4.031753  0  0  -0.108975  -0.217001  0  4.000769  0
C  C79  1  0.43424056  0.70773459  0.74253725  1  0  -0.200182  0  3.757052  0  0  -0.220723  0  4.012885  0  0  -0.226615  0  4.031713  0  0  -0.108941  -0.217022  0  4.000714  0
N  N80  1  0.01275167  0.80727672  0.13401408  1  0  -0.404658  0  3.357561  0  0  -0.324482  0  3.664721  0  0  -0.344944  0  3.6773  0  0  -0.368002  -0.310432  0  3.655956  0
N  N81  1  0.98724249  0.19273607  0.86598593  1  0  -0.404571  0  3.357304  0  0  -0.324413  0  3.66449  0  0  -0.344871  0  3.677053  0  0  -0.367939  -0.310363  0  3.655725  0
N  N82  1  0.82220137  0.92347819  0.06181584  1  0  -0.05485  0  3.576168  0  0  0.041141  0  3.791851  0  0  0.026358  0  3.819208  0  0  -0.238561  0.050884  0  3.77322  0
N  N83  1  0.17778964  0.07653020  0.93817581  1  0  -0.05466  0  3.576124  0  0  0.041373  0  3.791878  0  0  0.026593  0  3.819232  0  0  -0.238608  0.051103  0  3.773263  0
N  N84  1  0.01123783  0.70314173  0.38121954  1  0  -0.388223  0  3.336602  0  0  -0.308914  0  3.638058  0  0  -0.328058  0  3.651361  0  0  -0.360977  -0.295929  0  3.628587  0
N  N85  1  0.98875403  0.29687208  0.61877729  1  0  -0.388209  0  3.33661  0  0  -0.308915  0  3.638056  0  0  -0.328061  0  3.651362  0  0  -0.361043  -0.295931  0  3.628587  0
N  N86  1  0.82597725  0.60373329  0.48816177  1  0  -0.052724  0  3.573924  0  0  0.041113  0  3.791709  0  0  0.026558  0  3.818912  0  0  -0.239456  0.051045  0  3.772048  0
N  N87  1  0.17403136  0.39626043  0.51184289  1  0  -0.052614  0  3.574086  0  0  0.041264  0  3.791868  0  0  0.0267  0  3.819082  0  0  -0.239453  0.051196  0  3.77221  0
O  O88  1  0.23094135  0.54047606  0.22339116  1  0  -0.64078  0  2.049132  0  0  -0.568271  0  2.314861  0  0  -0.595776  0  2.300174  0  0  -0.335698  -0.549206  0  2.324298  0
O  O89  1  0.76906027  0.45954339  0.77661755  1  0  -0.640536  0  2.049169  0  0  -0.568021  0  2.314886  0  0  -0.595519  0  2.300204  0  0  -0.335555  -0.548961  0  2.324316  0
O  O90  1  0.32786221  0.26704026  0.18469382  1  0  -0.265691  0  2.393951  0  0  -0.196437  0  2.630508  0  0  -0.213976  0  2.633014  0  0  -0.179294  -0.184198  0  2.628304  0
O  O91  1  0.67212504  0.73296159  0.81533204  1  0  -0.265687  0  2.394057  0  0  -0.196419  0  2.630665  0  0  -0.213825  0  2.633071  0  0  -0.179238  -0.184158  0  2.628445  0
O  O92  1  0.32860209  0.84990123  0.27126073  1  0  -0.645383  0  1.998865  0  0  -0.571  0  2.266177  0  0  -0.598853  0  2.249413  0  0  -0.339681  -0.551327  0  2.276635  0
O  O93  1  0.67140460  0.15008814  0.72875095  1  0  -0.645366  0  1.999116  0  0  -0.570969  0  2.266426  0  0  -0.598821  0  2.249668  0  0  -0.339616  -0.551289  0  2.276874  0
O  O94  1  0.16474166  0.03473641  0.29722215  1  0  -0.614866  0  1.883163  0  0  -0.5707  0  2.101494  0  0  -0.592632  0  2.092447  0  0  -0.32666  -0.555559  0  2.10763  0
O  O95  1  0.83526446  0.96526048  0.70277264  1  0  -0.614852  0  1.883248  0  0  -0.570681  0  2.101574  0  0  -0.592601  0  2.092513  0  0  -0.326643  -0.555539  0  2.107711  0
O  O96  1  0.32854341  0.63521049  0.05622205  1  0  -0.617818  0  1.9238  0  0  -0.571855  0  2.14873  0  0  -0.59539  0  2.140413  0  0  -0.322388  -0.555361  0  2.153608  0
O  O97  1  0.67143342  0.36477491  0.94377172  1  0  -0.617799  0  1.92364  0  0  -0.57181  0  2.14855  0  0  -0.59537  0  2.140279  0  0  -0.322396  -0.555316  0  2.153442  0
