# generated using pymatgen
data_LiH7C7SO8
_symmetry_space_group_name_H-M   'P 1'
_cell_length_a   6.51806227
_cell_length_b   6.58936381
_cell_length_c   12.22105546
_cell_angle_alpha   84.40577537
_cell_angle_beta   71.54733642
_cell_angle_gamma   74.31922603
_symmetry_Int_Tables_number   1
_chemical_formula_structural   LiH7C7SO8
_chemical_formula_sum   'Li2 H14 C14 S2 O16'
_cell_volume   479.33405299
_cell_formula_units_Z   2
loop_
 _symmetry_equiv_pos_site_id
 _symmetry_equiv_pos_as_xyz
  1  'x, y, z'
loop_
 _atom_site_type_symbol
 _atom_site_label
 _atom_site_symmetry_multiplicity
 _atom_site_fract_x
 _atom_site_fract_y
 _atom_site_fract_z
 _atom_site_occupancy
 _atom_site_hle17_bader_spin_density
 _atom_site_hle17_ddec_charge
 _atom_site_hle17_ddec_spin_density
 _atom_site_hle17_ddec_sum_bond_order
 _atom_site_hle17_magmom
 _atom_site_hse06_10hf_bader_spin_density
 _atom_site_hse06_10hf_ddec_charge
 _atom_site_hse06_10hf_ddec_spin_density
 _atom_site_hse06_10hf_ddec_sum_bond_order
 _atom_site_hse06_10hf_magmom
 _atom_site_hse06_bader_spin_density
 _atom_site_hse06_ddec_charge
 _atom_site_hse06_ddec_spin_density
 _atom_site_hse06_ddec_sum_bond_order
 _atom_site_hse06_magmom
 _atom_site_pbe_bader_spin_density
 _atom_site_pbe_cm5_charge
 _atom_site_pbe_ddec_charge
 _atom_site_pbe_ddec_spin_density
 _atom_site_pbe_ddec_sum_bond_order
 _atom_site_pbe_magmom
Li  Li0  1  0.78640438  0.46366250  0.01028078  1  0  0.872689  0  0.349329  0  0  0.838001  0  0.444873  0  0  0.846157  0  0.429874  0  0  0.486011  0.832034  0  0.455705  0
Li  Li1  1  0.21360278  0.53631908  0.98972079  1  0  0.872689  0  0.349305  0  0  0.837982  0  0.444875  0  0  0.846144  0  0.429867  0  0  0.485958  0.832015  0  0.455708  0
H  H2  1  0.89937068  0.78116391  0.90475646  1  0  0.446214  0  0.826682  0  0  0.42107  0  0.883683  0  0  0.430073  0  0.870201  0  0  0.321521  0.414649  0  0.893334  0
H  H3  1  0.10061968  0.21884919  0.09523166  1  0  0.446339  0  0.826656  0  0  0.42115  0  0.883591  0  0  0.43015  0  0.870112  0  0  0.321581  0.414736  0  0.893228  0
H  H4  1  0.03805527  0.59031126  0.82276547  1  0  0.436997  0  0.864647  0  0  0.405066  0  0.928811  0  0  0.415632  0  0.913241  0  0  0.304159  0.39763  0  0.939783  0
H  H5  1  0.96194394  0.40968745  0.17721407  1  0  0.43719  0  0.864433  0  0  0.405282  0  0.928551  0  0  0.415844  0  0.912986  0  0  0.304306  0.397855  0  0.939507  0
H  H6  1  0.48267902  0.18164759  0.15075521  1  0  0.413529  0  0.827648  0  0  0.389473  0  0.894213  0  0  0.399825  0  0.882447  0  0  0.331852  0.382151  0  0.90253  0
H  H7  1  0.51732533  0.81834549  0.84925177  1  0  0.413517  0  0.827692  0  0  0.389528  0  0.894157  0  0  0.399876  0  0.882396  0  0  0.331899  0.382206  0  0.902477  0
H  H8  1  0.23275362  0.28846591  0.62701598  1  0  0.384805  0  0.888529  0  0  0.358689  0  0.95738  0  0  0.370275  0  0.94514  0  0  0.310702  0.350596  0  0.965796  0
H  H9  1  0.76724640  0.71151807  0.37298324  1  0  0.385023  0  0.888276  0  0  0.358933  0  0.957095  0  0  0.370517  0  0.944849  0  0  0.310813  0.35085  0  0.965514  0
H  H10  1  0.95782033  0.88628386  0.69171625  1  0  0.410341  0  0.850452  0  0  0.379319  0  0.927446  0  0  0.391376  0  0.914077  0  0  0.318533  0.370845  0  0.936829  0
H  H11  1  0.04216653  0.11371380  0.30828734  1  0  0.410152  0  0.850621  0  0  0.379163  0  0.927544  0  0  0.391223  0  0.914182  0  0  0.318423  0.370687  0  0.936926  0
H  H12  1  0.48030576  0.08991037  0.34268688  1  0  0.154154  0  0.934174  0  0  0.162649  0  0.99348  0  0  0.167385  0  0.990848  0  0  0.116725  0.159283  0  0.995587  0
H  H13  1  0.51970065  0.91008474  0.65730081  1  0  0.154088  0  0.934355  0  0  0.162593  0  0.99365  0  0  0.167328  0  0.991016  0  0  0.11669  0.159226  0  0.995758  0
H  H14  1  0.20159257  0.86418986  0.40337070  1  0  0.11952  0  0.964195  0  0  0.125986  0  1.031999  0  0  0.12943  0  1.028196  0  0  0.115724  0.123492  0  1.0347  0
H  H15  1  0.79840319  0.13582447  0.59662718  1  0  0.119588  0  0.964173  0  0  0.126054  0  1.031952  0  0  0.129495  0  1.028152  0  0  0.115779  0.12356  0  1.034655  0
C  C16  1  0.34866784  0.61836543  0.27687373  1  0  -0.272586  0  3.712342  0  0  -0.255521  0  3.9811  0  0  -0.270284  0  3.999627  0  0  -0.038385  -0.246146  0  3.968836  0
C  C17  1  0.65131858  0.38163962  0.72312044  1  0  -0.272918  0  3.712517  0  0  -0.25586  0  3.981187  0  0  -0.270602  0  3.999684  0  0  -0.038558  -0.246489  0  3.968931  0
C  C18  1  0.42443302  0.39697509  0.26041353  1  0  0.391578  0  3.790295  0  0  0.368657  0  4.063103  0  0  0.387945  0  4.073462  0  0  0.105529  0.355883  0  4.055811  0
C  C19  1  0.57558046  0.60302972  0.73958638  1  0  0.391881  0  3.789919  0  0  0.369009  0  4.062693  0  0  0.388292  0  4.073051  0  0  0.105596  0.356232  0  4.055408  0
C  C20  1  0.41728978  0.25938566  0.35460708  1  0  -0.323732  0  3.660694  0  0  -0.353803  0  3.927484  0  0  -0.366278  0  3.941733  0  0  -0.120841  -0.345823  0  3.918198  0
C  C21  1  0.58271777  0.74062787  0.64538660  1  0  -0.323703  0  3.660586  0  0  -0.353829  0  3.927408  0  0  -0.366301  0  3.941661  0  0  -0.120799  -0.345849  0  3.918121  0
C  C22  1  0.32430947  0.33736814  0.46685611  1  0  0.383554  0  3.795375  0  0  0.361614  0  4.06438  0  0  0.380794  0  4.077269  0  0  0.100892  0.348846  0  4.055527  0
C  C23  1  0.67569409  0.66263374  0.53313894  1  0  0.383572  0  3.795266  0  0  0.361591  0  4.064273  0  0  0.380768  0  4.077167  0  0  0.100899  0.348825  0  4.055421  0
C  C24  1  0.24482063  0.55917336  0.48422406  1  0  -0.267589  0  3.813205  0  0  -0.251308  0  4.068402  0  0  -0.27096  0  4.093005  0  0  -0.050519  -0.238594  0  4.052229  0
C  C25  1  0.75518528  0.44082465  0.51578154  1  0  -0.267685  0  3.813414  0  0  -0.251259  0  4.068399  0  0  -0.27091  0  4.093005  0  0  -0.050532  -0.238545  0  4.052224  0
C  C26  1  0.26226151  0.69585399  0.38795012  1  0  0.011733  0  3.72328  0  0  -0.037585  0  3.994955  0  0  -0.02532  0  4.008082  0  0  -0.074627  -0.045321  0  3.985891  0
C  C27  1  0.73771759  0.30415973  0.61206097  1  0  0.011799  0  3.723785  0  0  -0.037545  0  3.995393  0  0  -0.025288  0  4.00852  0  0  -0.074665  -0.04528  0  3.986329  0
C  C28  1  0.13811251  0.63752814  0.60119303  1  0  0.672855  0  3.805472  0  0  0.612814  0  4.109432  0  0  0.64806  0  4.102714  0  0  0.233831  0.588839  0  4.113844  0
C  C29  1  0.86188434  0.36247353  0.39880797  1  0  0.672626  0  3.805568  0  0  0.612646  0  4.109456  0  0  0.64789  0  4.102735  0  0  0.233742  0.588672  0  4.113868  0
S  S30  1  0.35384769  0.78625065  0.15388279  1  0  1.373066  0  5.606058  0  0  1.273439  0  6.131473  0  0  1.322285  0  6.10545  0  0  0.537103  1.239767  0  6.148572  0
S  S31  1  0.64614812  0.21375183  0.84613060  1  0  1.373175  0  5.606246  0  0  1.273569  0  6.131596  0  0  1.322389  0  6.105588  0  0  0.537193  1.239892  0  6.148705  0
O  O32  1  0.58720272  0.74080453  0.08060057  1  0  -0.709123  0  1.935853  0  0  -0.665604  0  2.187711  0  0  -0.684997  0  2.17084  0  0  -0.372353  -0.652004  0  2.199055  0
O  O33  1  0.41279970  0.25917665  0.91940175  1  0  -0.709184  0  1.936035  0  0  -0.665634  0  2.187849  0  0  -0.685029  0  2.170985  0  0  -0.372319  -0.652038  0  2.199203  0
O  O34  1  0.99265118  0.63723880  0.90408287  1  0  -0.931764  0  1.806957  0  0  -0.891977  0  1.986195  0  0  -0.906408  0  1.953737  0  0  -0.673878  -0.881834  0  2.008925  0
O  O35  1  0.00735545  0.36276705  0.09591801  1  0  -0.932038  0  1.807032  0  0  -0.892209  0  1.986318  0  0  -0.906629  0  1.953849  0  0  -0.67407  -0.882088  0  2.009088  0
O  O36  1  0.19933114  0.74332974  0.09973446  1  0  -0.709893  0  1.921123  0  0  -0.666008  0  2.163414  0  0  -0.684688  0  2.146178  0  0  -0.380793  -0.65288  0  2.174994  0
O  O37  1  0.80064574  0.25667709  0.90027414  1  0  -0.709823  0  1.921656  0  0  -0.665927  0  2.163912  0  0  -0.684603  0  2.146684  0  0  -0.380769  -0.6528  0  2.175493  0
O  O38  1  0.27682069  0.00657925  0.19723368  1  0  -0.720596  0  2.018099  0  0  -0.653408  0  2.258562  0  0  -0.676412  0  2.243253  0  0  -0.327857  -0.6372  0  2.26868  0
O  O39  1  0.72317461  0.99342953  0.80277773  1  0  -0.720542  0  2.018072  0  0  -0.65346  0  2.258658  0  0  -0.676427  0  2.243315  0  0  -0.327884  -0.637242  0  2.268772  0
O  O40  1  0.50298681  0.32529837  0.15057624  1  0  -0.555469  0  2.161342  0  0  -0.51216  0  2.391481  0  0  -0.528798  0  2.377361  0  0  -0.327672  -0.50022  0  2.400653  0
O  O41  1  0.49703334  0.67470191  0.84941968  1  0  -0.555582  0  2.161547  0  0  -0.512296  0  2.391534  0  0  -0.528942  0  2.377429  0  0  -0.327699  -0.500358  0  2.400711  0
O  O42  1  0.31031966  0.19990512  0.55551703  1  0  -0.477413  0  2.106366  0  0  -0.425864  0  2.319504  0  0  -0.445868  0  2.310526  0  0  -0.330277  -0.411681  0  2.3252  0
O  O43  1  0.68968702  0.80008978  0.44446736  1  0  -0.477736  0  2.106121  0  0  -0.426234  0  2.319297  0  0  -0.446238  0  2.310318  0  0  -0.330507  -0.412058  0  2.324998  0
O  O44  1  0.11756810  0.51393041  0.68718764  1  0  -0.583919  0  2.043646  0  0  -0.519854  0  2.25328  0  0  -0.543849  0  2.246061  0  0  -0.26953  -0.50359  0  2.258316  0
O  O45  1  0.88245222  0.48606383  0.31281438  1  0  -0.583851  0  2.043763  0  0  -0.519886  0  2.253429  0  0  -0.543877  0  2.246206  0  0  -0.269465  -0.50363  0  2.258464  0
O  O46  1  0.06006545  0.84457733  0.61203576  1  0  -0.51891  0  2.139798  0  0  -0.463623  0  2.365826  0  0  -0.485326  0  2.351836  0  0  -0.315785  -0.448657  0  2.375188  0
O  O47  1  0.93992113  0.15541941  0.38797777  1  0  -0.518621  0  2.13971  0  0  -0.463422  0  2.365789  0  0  -0.485118  0  2.351793  0  0  -0.315677  -0.448447  0  2.375143  0
