# generated using pymatgen
data_Zn4H33C42N3O13
_symmetry_space_group_name_H-M   'P 1'
_cell_length_a   20.56825139
_cell_length_b   20.58235540
_cell_length_c   21.13840069
_cell_angle_alpha   62.47455108
_cell_angle_beta   62.77203681
_cell_angle_gamma   61.90701378
_symmetry_Int_Tables_number   1
_chemical_formula_structural   Zn4H33C42N3O13
_chemical_formula_sum   'Zn8 H66 C84 N6 O26'
_cell_volume   6663.57140547
_cell_formula_units_Z   2
loop_
 _symmetry_equiv_pos_site_id
 _symmetry_equiv_pos_as_xyz
  1  'x, y, z'
loop_
 _atom_site_type_symbol
 _atom_site_label
 _atom_site_symmetry_multiplicity
 _atom_site_fract_x
 _atom_site_fract_y
 _atom_site_fract_z
 _atom_site_occupancy
 _atom_site_pbe_bader_charge
 _atom_site_pbe_bader_spin_density
 _atom_site_pbe_cm5_charge
 _atom_site_pbe_ddec_charge
 _atom_site_pbe_ddec_spin_density
 _atom_site_pbe_ddec_sum_bond_order
 _atom_site_pbe_magmom
Zn  Zn0  1  0.10997623  0.95534659  0.92163318  1  1.317283  0  0.681384  0.953017  0  2.412567  0
Zn  Zn1  1  0.95188454  0.95337861  0.93220660  1  1.316663  0  0.681943  0.969137  0  2.354177  0
Zn  Zn2  1  0.95906647  0.10403029  0.93635211  1  1.305769  0  0.671555  0.961732  0  2.339084  0
Zn  Zn3  1  0.97204930  0.95200697  0.07592433  1  1.309109  0  0.665914  0.965241  0  2.358023  0
Zn  Zn4  1  0.38653866  0.52117173  0.50053418  1  1.308574  0  0.670205  0.97083  0  2.356276  0
Zn  Zn5  1  0.53432881  0.53115798  0.50667805  1  1.316225  0  0.670696  0.976012  0  2.329814  0
Zn  Zn6  1  0.53550277  0.52576353  0.35783436  1  1.316315  0  0.674618  0.976954  0  2.373819  0
Zn  Zn7  1  0.53948372  0.37631443  0.50164922  1  1.305273  0  0.671546  0.970539  0  2.366374  0
H  H8  1  0.10100489  0.86992372  0.73789912  1  0.042497  0  0.106495  0.067065  0  0.954654  0
H  H9  1  0.14632549  0.74795526  0.83834356  1  0.408437  0  0.309339  0.254515  0  0.940503  0
H  H10  1  0.20954899  0.62671013  0.82199827  1  0.040948  0  0.098662  0.102728  0  1.003336  0
H  H11  1  0.29131269  0.55127561  0.73209302  1  0.066877  0  0.105142  0.109109  0  0.989176  0
H  H12  1  0.34604216  0.75324232  0.56058077  1  0.079579  0  0.104376  0.109614  0  0.996034  0
H  H13  1  0.21938886  0.88515831  0.59535034  1  0.052327  0  0.096819  0.069641  0  0.957132  0
H  H14  1  0.36723210  0.86860453  0.54973577  1  0.052462  0  0.10091  0.106643  0  1.008765  0
H  H15  1  0.38579361  0.90773151  0.63954760  1  0.053288  0  0.100973  0.102438  0  1.000674  0
H  H16  1  0.24911599  0.94633717  0.73891081  1  0.043949  0  0.0893  0.09393  0  0.986677  0
H  H17  1  0.28319472  0.84405834  0.76765453  1  0.062197  0  0.094606  0.103307  0  0.974643  0
H  H18  1  0.17288724  0.95763758  0.67460908  1  0.02875  0  0.09761  0.066055  0  0.95907  0
H  H19  1  0.12930482  0.21904696  0.84202340  1  0.05435  0  0.106842  0.067403  0  0.955225  0
H  H20  1  0.17103749  0.16965822  0.73306982  1  0.402391  0  0.30898  0.253738  0  0.938715  0
H  H21  1  0.21945682  0.24912970  0.61630264  1  0.030079  0  0.098877  0.102785  0  1.003118  0
H  H22  1  0.29611359  0.33961898  0.53938955  1  0.072903  0  0.106017  0.11069  0  0.988439  0
H  H23  1  0.37224400  0.27361226  0.72542430  1  0.064249  0  0.105294  0.111058  0  0.992661  0
H  H24  1  0.26609048  0.22445763  0.85611347  1  0.026401  0  0.097874  0.071096  0  0.956607  0
H  H25  1  0.41206609  0.13504914  0.82538151  1  0.064663  0  0.101799  0.10824  0  1.005459  0
H  H26  1  0.40801572  0.99451161  0.88287022  1  0.053749  0  0.100547  0.101553  0  1.002213  0
H  H27  1  0.25972377  0.00601510  0.94002977  1  0.030391  0  0.087885  0.086602  0  0.988103  0
H  H28  1  0.28545316  0.02436177  0.84294065  1  0.053498  0  0.093687  0.103749  0  0.985993  0
H  H29  1  0.19863543  0.13842205  0.93088891  1  0.02643  0  0.09897  0.067897  0  0.958468  0
H  H30  1  0.15820014  0.74480619  0.15548795  1  0.035794  0  0.106989  0.065884  0  0.95081  0
H  H31  1  0.15437888  0.86061463  0.17197253  1  0.424653  0  0.308487  0.257208  0  0.942842  0
H  H32  1  0.19495293  0.84213580  0.26777247  1  0.040893  0  0.100393  0.106682  0  0.999259  0
H  H33  1  0.26906130  0.74634712  0.35822161  1  0.074114  0  0.106222  0.111103  0  0.990755  0
H  H34  1  0.39112922  0.59540681  0.22298263  1  0.098496  0  0.105713  0.11325  0  0.994699  0
H  H35  1  0.30928429  0.62374447  0.13762430  1  0.015674  0  0.09687  0.069328  0  0.957629  0
H  H36  1  0.45029353  0.63203350  0.07590374  1  0.058057  0  0.101961  0.108613  0  1.006275  0
H  H37  1  0.44839244  0.74715526  0.95199337  1  0.063241  0  0.099425  0.100106  0  1.003068  0
H  H38  1  0.30514160  0.80585018  0.94561734  1  0.044251  0  0.091209  0.095416  0  0.982212  0
H  H39  1  0.30456701  0.84473470  0.00476242  1  0.030525  0  0.090071  0.093102  0  0.988825  0
H  H40  1  0.25157506  0.71177609  0.04494725  1  0.014158  0  0.0994  0.069129  0  0.955319  0
H  H41  1  0.86034191  0.21228976  0.75344520  1  0.051902  0  0.106389  0.067003  0  0.959616  0
H  H42  1  0.73876070  0.18281371  0.85840144  1  0.423667  0  0.309661  0.255505  0  0.937505  0
H  H43  1  0.62397066  0.27369779  0.83243175  1  0.037263  0  0.10002  0.105058  0  1.001648  0
H  H44  1  0.55934316  0.36750116  0.73412031  1  0.098513  0  0.106562  0.110873  0  0.988361  0
H  H45  1  0.75440099  0.26665844  0.57062143  1  0.075676  0  0.105222  0.111815  0  0.994091  0
H  H46  1  0.88231409  0.19638292  0.60969996  1  0.039392  0  0.097558  0.070049  0  0.956426  0
H  H47  1  0.82945906  0.11213803  0.59357652  1  0.05397  0  0.10166  0.108587  0  1.00555  0
H  H48  1  0.86866074  0.97569503  0.68933063  1  0.042491  0  0.099592  0.100385  0  1.001354  0
H  H49  1  0.93751890  0.98681367  0.76229238  1  0.005006  0  0.084085  0.087648  0  1.009287  0
H  H50  1  0.83678714  0.02222435  0.80462469  1  0.065813  0  0.092335  0.101173  0  0.992192  0
H  H51  1  0.94786828  0.11204854  0.69625004  1  0.034768  0  0.096567  0.064511  0  0.962025  0
H  H52  1  0.76729903  0.87992877  0.18577712  1  0.057804  0  0.105252  0.064482  0  0.95836  0
H  H53  1  0.87483649  0.75402354  0.16986580  1  0.420964  0  0.308  0.25245  0  0.942591  0
H  H54  1  0.85581178  0.64052576  0.25998014  1  0.056953  0  0.098954  0.10354  0  1.003042  0
H  H55  1  0.76172932  0.57004347  0.35164438  1  0.094673  0  0.106131  0.110553  0  0.989744  0
H  H56  1  0.58585398  0.75182577  0.25226400  1  0.056737  0  0.105349  0.111428  0  0.993067  0
H  H57  1  0.61909777  0.88822853  0.18838506  1  0.040621  0  0.097146  0.069465  0  0.9564  0
H  H58  1  0.58748750  0.83734276  0.11565972  1  0.06831  0  0.10114  0.107189  0  1.007165  0
H  H59  1  0.67912696  0.86956368  0.97931914  1  0.037526  0  0.100092  0.100815  0  1.00224  0
H  H60  1  0.76654373  0.93359818  0.97620093  1  0.05071  0  0.089675  0.093211  0  0.984695  0
H  H61  1  0.80763600  0.83249383  0.01448070  1  0.066814  0  0.092592  0.101032  0  0.981588  0
H  H62  1  0.70175646  0.95442058  0.09364127  1  0.034854  0  0.098257  0.066716  0  0.957752  0
H  H63  1  0.87915808  0.11944514  0.18976504  1  0.057882  0  0.106368  0.0669  0  0.955711  0
H  H64  1  0.75576544  0.15092692  0.16386126  1  0.409062  0  0.30942  0.25472  0  0.937987  0
H  H65  1  0.64006286  0.19620601  0.25035780  1  0.053805  0  0.098871  0.10367  0  1.002875  0
H  H66  1  0.56872358  0.27193969  0.34007199  1  0.08792  0  0.106395  0.11102  0  0.987879  0
H  H67  1  0.75615132  0.35988708  0.25031394  1  0.083053  0  0.105046  0.110641  0  0.994444  0
H  H68  1  0.89084686  0.25566531  0.19186989  1  0.045772  0  0.097285  0.069686  0  0.956118  0
H  H69  1  0.84543214  0.40378327  0.11478089  1  0.056961  0  0.101251  0.107508  0  1.005813  0
H  H70  1  0.87986056  0.40833504  0.97859936  1  0.037136  0  0.099702  0.100136  0  1.002599  0
H  H71  1  0.94137137  0.26217500  0.97892271  1  0.037154  0  0.087586  0.091227  0  0.992137  0
H  H72  1  0.84001425  0.28284670  0.01514303  1  0.05896  0  0.09326  0.102362  0  0.982059  0
H  H73  1  0.95902280  0.19760053  0.09870333  1  0.023793  0  0.098973  0.068562  0  0.957723  0
C  C74  1  0.09984104  0.89198988  0.82742951  1  1.537315  0  0.23722  0.61188  0  4.095401  0
C  C75  1  0.14445142  0.85852751  0.76210702  1  0.353913  0  0.013981  -0.011337  0  3.885591  0
C  C76  1  0.22802902  0.73420127  0.74058910  1  0.35144  0  0.091204  0.191481  0  4.061522  0
C  C77  1  0.23880902  0.65467054  0.76406174  1  -0.020073  0  -0.109997  -0.20527  0  4.044611  0
C  C78  1  0.28494416  0.61224119  0.71434766  1  -0.051879  0  -0.089945  -0.087674  0  4.032293  0
C  C79  1  0.32497371  0.64756024  0.64092989  1  0.034548  0  -0.031772  -0.055332  0  4.029356  0
C  C80  1  0.31494740  0.72629029  0.61798280  1  -0.072455  0  -0.085599  -0.135415  0  3.980388  0
C  C81  1  0.26476641  0.77123714  0.66565239  1  0.038761  0  -0.019774  -0.012603  0  3.912974  0
C  C82  1  0.25060778  0.85817061  0.63679719  1  -0.006405  0  -0.07688  -0.024891  0  3.888149  0
C  C83  1  0.32555305  0.87587240  0.60330567  1  -0.064565  0  -0.106353  -0.153371  0  3.967853  0
C  C84  1  0.33494749  0.89575522  0.64975344  1  -0.081748  0  -0.103158  -0.097574  0  3.981129  0
C  C85  1  0.26788806  0.89632924  0.72091401  1  -0.027022  0  -0.164498  -0.175613  0  3.946765  0
C  C86  1  0.20474405  0.89670312  0.69988659  1  0.01633  0  -0.075856  -0.024745  0  3.797774  0
C  C87  1  0.37649541  0.60209304  0.58778318  1  1.527595  0  0.224794  0.615941  0  4.150141  0
C  C88  1  0.11587077  0.11101743  0.87339062  1  1.56688  0  0.236683  0.613338  0  4.093148  0
C  C89  1  0.16775023  0.16076512  0.83696226  1  0.345373  0  0.013189  -0.015338  0  3.888335  0
C  C90  1  0.24999284  0.21317878  0.71545255  1  0.364865  0  0.091727  0.189309  0  4.073208  0
C  C91  1  0.25288652  0.25510265  0.64008946  1  -0.090271  0  -0.110248  -0.204964  0  4.048181  0
C  C92  1  0.29588019  0.30498948  0.59701122  1  0.032466  0  -0.088885  -0.085422  0  4.031056  0
C  C93  1  0.34013951  0.31078669  0.62746861  1  0.001912  0  -0.031078  -0.054911  0  4.027798  0
C  C94  1  0.33788056  0.26821463  0.70228148  1  0.054045  0  -0.085521  -0.138313  0  3.976168  0
C  C95  1  0.29122792  0.22130411  0.74792461  1  -0.054857  0  -0.018633  -0.010122  0  3.915293  0
C  C96  1  0.28526955  0.17967184  0.83061753  1  0.031208  0  -0.074147  -0.024106  0  3.869688  0
C  C97  1  0.36147492  0.11923526  0.84230242  1  -0.118332  0  -0.104757  -0.149925  0  3.964314  0
C  C98  1  0.35920548  0.04693835  0.87166184  1  -0.030038  0  -0.103948  -0.096716  0  3.988164  0
C  C99  1  0.28182177  0.04501710  0.88453708  1  -0.017012  0  -0.16531  -0.179181  0  3.951215  0
C  C100  1  0.22919838  0.13077550  0.87508189  1  -0.013474  0  -0.072627  -0.017453  0  3.766877  0
C  C101  1  0.38782974  0.36268032  0.57993612  1  1.531087  0  0.223347  0.611104  0  4.152394  0
C  C102  1  0.13228749  0.85073945  0.06915247  1  1.582476  0  0.240019  0.615705  0  4.098816  0
C  C103  1  0.18879479  0.78670405  0.11230856  1  0.354858  0  0.012723  -0.013997  0  3.894343  0
C  C104  1  0.24810535  0.77024211  0.19660300  1  0.346991  0  0.094285  0.198012  0  4.050497  0
C  C105  1  0.23747793  0.78723277  0.25872633  1  -0.018813  0  -0.109857  -0.20716  0  4.037584  0
C  C106  1  0.27890588  0.73436434  0.30888080  1  -0.028952  0  -0.0883  -0.081783  0  4.027537  0
C  C107  1  0.33456691  0.66466889  0.29606243  1  0.025836  0  -0.034151  -0.064556  0  4.035548  0
C  C108  1  0.34707379  0.64945440  0.23260042  1  -0.004818  0  -0.084113  -0.131727  0  3.977021  0
C  C109  1  0.30375002  0.70017602  0.18323518  1  -0.042529  0  -0.019929  -0.015465  0  3.917994  0
C  C110  1  0.31789142  0.68013207  0.11608416  1  0.033243  0  -0.07736  -0.026219  0  3.881581  0
C  C111  1  0.39852484  0.67676667  0.06163448  1  -0.074244  0  -0.105423  -0.14981  0  3.964007  0
C  C112  1  0.39722422  0.73638726  0.99817085  1  -0.07754  0  -0.104031  -0.098567  0  3.987454  0
C  C113  1  0.31622236  0.78989150  0.99791194  1  -0.009636  0  -0.164721  -0.173275  0  3.948188  0
C  C114  1  0.26525718  0.74247826  0.06581990  1  0.037046  0  -0.076574  -0.021404  0  3.790865  0
C  C115  1  0.37977260  0.60733230  0.34874728  1  1.495128  0  0.221666  0.60883  0  4.158601  0
C  C116  1  0.88355328  0.11184751  0.84567995  1  1.546334  0  0.234321  0.612421  0  4.09172  0
C  C117  1  0.84911777  0.15643192  0.78102528  1  0.354962  0  0.011623  -0.016689  0  3.884229  0
C  C118  1  0.72770526  0.21988075  0.75575562  1  0.328575  0  0.092176  0.19032  0  4.062422  0
C  C119  1  0.65274743  0.27280456  0.77458077  1  0.015027  0  -0.109654  -0.205287  0  4.042804  0
C  C120  1  0.61641888  0.32486519  0.72009689  1  -0.108469  0  -0.08775  -0.084164  0  4.025403  0
C  C121  1  0.65299893  0.32242137  0.64626615  1  0.023708  0  -0.031348  -0.055643  0  4.026915  0
C  C122  1  0.72676679  0.26829272  0.62817923  1  -0.048892  0  -0.085983  -0.138622  0  3.981189  0
C  C123  1  0.76586847  0.21824901  0.68119426  1  0.021561  0  -0.01933  -0.011815  0  3.922016  0
C  C124  1  0.84716434  0.16211311  0.65891813  1  -0.00231  0  -0.075402  -0.021902  0  3.869881  0
C  C125  1  0.84729093  0.09898486  0.64061564  1  -0.127823  0  -0.106373  -0.152381  0  3.963309  0
C  C126  1  0.86710487  0.02895220  0.69031107  1  0.009743  0  -0.104175  -0.09507  0  3.986878  0
C  C127  1  0.88354721  0.03157474  0.75130669  1  -0.011247  0  -0.168628  -0.183601  0  3.947219  0
C  C128  1  0.88687943  0.11462010  0.72213981  1  0.00598  0  -0.073462  -0.017367  0  3.765742  0
C  C129  1  0.61385221  0.37573421  0.58782459  1  1.552825  0  0.222427  0.610918  0  4.154067  0
C  C130  1  0.86131677  0.89295705  0.08580731  1  1.576296  0  0.238015  0.617488  0  4.081279  0
C  C131  1  0.79360018  0.86150401  0.13536339  1  0.346881  0  0.01287  -0.011823  0  3.87939  0
C  C132  1  0.77247741  0.73784468  0.20668085  1  0.404298  0  0.09232  0.191714  0  4.066337  0
C  C133  1  0.79604996  0.66508708  0.25908499  1  -0.017903  0  -0.110682  -0.206267  0  4.047306  0
C  C134  1  0.74405055  0.62546938  0.30981737  1  -0.078171  0  -0.089092  -0.086298  0  4.033567  0
C  C135  1  0.66825476  0.65625915  0.30648062  1  0.020954  0  -0.032214  -0.057405  0  4.033246  0
C  C136  1  0.64511380  0.72850515  0.25400781  1  0.001733  0  -0.085166  -0.136069  0  3.977057  0
C  C137  1  0.69513025  0.77147463  0.20559017  1  -0.06252  0  -0.018973  -0.010935  0  3.915246  0
C  C138  1  0.66657584  0.85246672  0.15299491  1  0.013872  0  -0.075605  -0.023912  0  3.8767  0
C  C139  1  0.63887290  0.85226618  0.09782039  1  -0.103795  0  -0.105135  -0.150636  0  3.963304  0
C  C140  1  0.68641246  0.86861234  0.02772836  1  -0.030427  0  -0.103307  -0.096652  0  3.985399  0
C  C141  1  0.75445785  0.88232630  0.02290883  1  -0.052691  0  -0.165215  -0.17631  0  3.948952  0
C  C142  1  0.73003190  0.89206002  0.09991485  1  -0.00183  0  -0.074642  -0.020705  0  3.78098  0
C  C143  1  0.61392326  0.61152681  0.35676355  1  1.520343  0  0.224038  0.613449  0  4.15266  0
C  C144  1  0.90000219  0.10674368  0.08761261  1  1.566513  0  0.234201  0.613951  0  4.089258  0
C  C145  1  0.86406404  0.15765303  0.13731611  1  0.333196  0  0.013454  -0.012805  0  3.88993  0
C  C146  1  0.74022789  0.23275316  0.20190649  1  0.379257  0  0.093849  0.192742  0  4.064641  0
C  C147  1  0.66559479  0.23196820  0.25085620  1  -0.067531  0  -0.110584  -0.207561  0  4.045918  0
C  C148  1  0.62547929  0.27439260  0.30053770  1  -0.016825  0  -0.088962  -0.084701  0  4.027686  0
C  C149  1  0.65771677  0.32182250  0.29943391  1  -0.050293  0  -0.032229  -0.059065  0  4.033688  0
C  C150  1  0.73161180  0.32307781  0.25021814  1  -0.062021  0  -0.085689  -0.135464  0  3.980233  0
C  C151  1  0.77482784  0.27718358  0.20312282  1  0.055405  0  -0.0194  -0.012349  0  3.916213  0
C  C152  1  0.85716849  0.27590542  0.15412145  1  0.01479  0  -0.075363  -0.023151  0  3.880001  0
C  C153  1  0.85997529  0.35482025  0.09773674  1  -0.037412  0  -0.106048  -0.152651  0  3.963025  0
C  C154  1  0.87744388  0.35689764  0.02776085  1  -0.098815  0  -0.103471  -0.095491  0  3.983741  0
C  C155  1  0.88990144  0.28030542  0.02430777  1  -0.026046  0  -0.165908  -0.178542  0  3.945361  0
C  C156  1  0.89723273  0.22397914  0.10261266  1  0.011812  0  -0.073873  -0.021072  0  3.78202  0
C  C157  1  0.61403660  0.36992352  0.35015835  1  1.543173  0  0.223936  0.613008  0  4.150936  0
N  N158  1  0.18196994  0.77525539  0.79205994  1  -1.150986  0  -0.441922  -0.363556  0  3.493173  0
N  N159  1  0.20605967  0.16373635  0.75848853  1  -1.137539  0  -0.442726  -0.358114  0  3.49749  0
N  N160  1  0.20326473  0.82226351  0.14864460  1  -1.155502  0  -0.441942  -0.368306  0  3.470255  0
N  N161  1  0.76576307  0.16952141  0.80977170  1  -1.148618  0  -0.440464  -0.358152  0  3.467892  0
N  N162  1  0.82558278  0.77679344  0.15576285  1  -1.17988  0  -0.44255  -0.362516  0  3.478742  0
N  N163  1  0.78019634  0.18966280  0.15238746  1  -1.139009  0  -0.441233  -0.357747  0  3.490767  0
O  O164  1  0.99813527  0.99008173  0.96649426  1  -1.229047  0  -0.579443  -1.038589  0  2.571544  0
O  O165  1  0.02612047  0.90923703  0.85023596  1  -1.149748  0  -0.313265  -0.553097  0  2.314378  0
O  O166  1  0.13930924  0.89862338  0.85445419  1  -1.169053  0  -0.299588  -0.52558  0  2.391252  0
O  O167  1  0.44232098  0.61171582  0.54711420  1  -1.172665  0  -0.324019  -0.559435  0  2.277439  0
O  O168  1  0.35067214  0.55682824  0.58694750  1  -1.167548  0  -0.32364  -0.558426  0  2.288947  0
O  O169  1  0.04528668  0.14075630  0.90832161  1  -1.176384  0  -0.315468  -0.553287  0  2.304998  0
O  O170  1  0.14676438  0.04454821  0.86435793  1  -1.174509  0  -0.307938  -0.539828  0  2.365757  0
O  O171  1  0.45570529  0.33787453  0.58529117  1  -1.166661  0  -0.322721  -0.554746  0  2.276372  0
O  O172  1  0.35747357  0.42825735  0.53635765  1  -1.171737  0  -0.323385  -0.558931  0  2.290815  0
O  O173  1  0.06138299  0.87006922  0.10911825  1  -1.175988  0  -0.32006  -0.554866  0  2.299928  0
O  O174  1  0.15961297  0.87988230  0.99904851  1  -1.182382  0  -0.297174  -0.522007  0  2.385408  0
O  O175  1  0.44726779  0.56323852  0.32168127  1  -1.181893  0  -0.327511  -0.564521  0  2.304882  0
O  O176  1  0.34796308  0.60564822  0.41748730  1  -1.163047  0  -0.320823  -0.552872  0  2.291577  0
O  O177  1  0.92019674  0.14395396  0.85126886  1  -1.157054  0  -0.319233  -0.550585  0  2.283505  0
O  O178  1  0.87345877  0.04709313  0.88907625  1  -1.182737  0  -0.311693  -0.545475  0  2.335665  0
O  O179  1  0.62415858  0.34802356  0.53939223  1  -1.177166  0  -0.328648  -0.564806  0  2.289884  0
O  O180  1  0.57280855  0.44503513  0.59002622  1  -1.174725  0  -0.31966  -0.553054  0  2.279902  0
O  O181  1  0.88054007  0.91920038  0.11655469  1  -1.157284  0  -0.318089  -0.553359  0  2.292581  0
O  O182  1  0.89454452  0.88806478  0.01973961  1  -1.179557  0  -0.306849  -0.535921  0  2.354238  0
O  O183  1  0.57000945  0.61328844  0.32787705  1  -1.174542  0  -0.325832  -0.561483  0  2.292733  0
O  O184  1  0.61555256  0.57425446  0.42444414  1  -1.173763  0  -0.320103  -0.554533  0  2.28526  0
O  O185  1  0.94274293  0.03754279  0.11262911  1  -1.176555  0  -0.320654  -0.55512  0  2.295365  0
O  O186  1  0.88507716  0.13606370  0.02587153  1  -1.170535  0  -0.311352  -0.541237  0  2.317494  0
O  O187  1  0.61923278  0.43789801  0.32367754  1  -1.175037  0  -0.324719  -0.560087  0  2.287636  0
O  O188  1  0.57438535  0.33977762  0.41649525  1  -1.175603  0  -0.321405  -0.554225  0  2.291865  0
O  O189  1  0.49922951  0.48917332  0.46670009  1  -1.205531  0  -0.584854  -1.043562  0  2.586561  0
