# generated using pymatgen
data_ZnH(CO)5
_symmetry_space_group_name_H-M   'P 1'
_cell_length_a   6.79198018
_cell_length_b   15.23498301
_cell_length_c   15.23049952
_cell_angle_alpha   117.84411916
_cell_angle_beta   98.55446431
_cell_angle_gamma   98.54380972
_symmetry_Int_Tables_number   1
_chemical_formula_structural   ZnH(CO)5
_chemical_formula_sum   'Zn6 H6 C30 O30'
_cell_volume   1334.48585162
_cell_formula_units_Z   6
loop_
 _symmetry_equiv_pos_site_id
 _symmetry_equiv_pos_as_xyz
  1  'x, y, z'
loop_
 _atom_site_type_symbol
 _atom_site_label
 _atom_site_symmetry_multiplicity
 _atom_site_fract_x
 _atom_site_fract_y
 _atom_site_fract_z
 _atom_site_occupancy
 _atom_site_hle17_bader_spin_density
 _atom_site_hle17_ddec_charge
 _atom_site_hle17_ddec_spin_density
 _atom_site_hle17_ddec_sum_bond_order
 _atom_site_hle17_magmom
 _atom_site_hse06_10hf_bader_spin_density
 _atom_site_hse06_10hf_ddec_charge
 _atom_site_hse06_10hf_ddec_spin_density
 _atom_site_hse06_10hf_ddec_sum_bond_order
 _atom_site_hse06_10hf_magmom
 _atom_site_hse06_bader_spin_density
 _atom_site_hse06_ddec_charge
 _atom_site_hse06_ddec_spin_density
 _atom_site_hse06_ddec_sum_bond_order
 _atom_site_hse06_magmom
 _atom_site_pbe_bader_spin_density
 _atom_site_pbe_cm5_charge
 _atom_site_pbe_ddec_charge
 _atom_site_pbe_ddec_spin_density
 _atom_site_pbe_ddec_sum_bond_order
 _atom_site_pbe_magmom
Zn  Zn0  1  0.47013427  0.26375379  0.58806694  1  0  1.169993  0  1.762732  0  0  1.005771  0  2.215475  0  0  1.055507  0  2.153134  0  0  0.688927  0.970417  0  2.258587  0
Zn  Zn1  1  0.20642217  0.32444572  0.73621287  1  0  1.169622  0  1.763318  0  0  1.005462  0  2.215538  0  0  1.055157  0  2.153322  0  0  0.689041  0.970145  0  2.258575  0
Zn  Zn2  1  0.88205770  0.41179281  0.67554182  1  0  1.169334  0  1.764141  0  0  1.005191  0  2.216683  0  0  1.054919  0  2.154408  0  0  0.688772  0.969859  0  2.259758  0
Zn  Zn3  1  0.52986358  0.73624563  0.41193245  1  0  1.169982  0  1.762758  0  0  1.005747  0  2.215499  0  0  1.055481  0  2.153162  0  0  0.688915  0.970395  0  2.258612  0
Zn  Zn4  1  0.79357904  0.67555447  0.26378842  1  0  1.169631  0  1.763307  0  0  1.005461  0  2.215532  0  0  1.055158  0  2.153314  0  0  0.689042  0.970147  0  2.258571  0
Zn  Zn5  1  0.11794274  0.58820585  0.32445870  1  0  1.169263  0  1.764198  0  0  1.005089  0  2.216789  0  0  1.05482  0  2.154512  0  0  0.688755  0.969758  0  2.259864  0
H  H6  1  0.81041377  0.43866981  0.46293460  1  0  0.129041  0  0.945076  0  0  0.136444  0  1.008299  0  0  0.140657  0  1.005315  0  0  0.106523  0.133442  0  1.010472  0
H  H7  1  0.37177170  0.02430722  0.56135834  1  0  0.128719  0  0.94439  0  0  0.136784  0  1.007062  0  0  0.141004  0  1.004091  0  0  0.106465  0.13378  0  1.009222  0
H  H8  1  0.34746561  0.53708575  0.97575787  1  0  0.12862  0  0.944587  0  0  0.136488  0  1.007441  0  0  0.140715  0  1.004435  0  0  0.10628  0.133476  0  1.009609  0
H  H9  1  0.18958931  0.56133115  0.53706652  1  0  0.129051  0  0.945039  0  0  0.136453  0  1.008265  0  0  0.140665  0  1.005284  0  0  0.106529  0.133452  0  1.010439  0
H  H10  1  0.62822763  0.97569220  0.43864181  1  0  0.128754  0  0.944455  0  0  0.136817  0  1.007122  0  0  0.141038  0  1.00415  0  0  0.106484  0.133812  0  1.009282  0
H  H11  1  0.65253599  0.46291520  0.02424446  1  0  0.12862  0  0.944568  0  0  0.136508  0  1.007405  0  0  0.140735  0  1.0044  0  0  0.106296  0.133496  0  1.009572  0
C  C12  1  0.24740880  0.43742349  0.60824052  1  0  0.718098  0  3.792705  0  0  0.666613  0  4.075752  0  0  0.704629  0  4.064063  0  0  0.226111  0.640614  0  4.083025  0
C  C13  1  0.80990574  0.17082209  0.56245545  1  0  0.717118  0  3.795559  0  0  0.666362  0  4.077704  0  0  0.704378  0  4.066058  0  0  0.226082  0.640379  0  4.084922  0
C  C14  1  0.63911078  0.39167742  0.82907858  1  0  0.717307  0  3.793478  0  0  0.666889  0  4.074804  0  0  0.704937  0  4.063094  0  0  0.226153  0.640878  0  4.082084  0
C  C15  1  0.75259279  0.56257746  0.39175918  1  0  0.718016  0  3.792649  0  0  0.666476  0  4.075769  0  0  0.70449  0  4.064085  0  0  0.22608  0.64048  0  4.083039  0
C  C16  1  0.19009283  0.82917580  0.43754327  1  0  0.71725  0  3.79552  0  0  0.666444  0  4.077711  0  0  0.704461  0  4.066066  0  0  0.226072  0.640458  0  4.084932  0
C  C17  1  0.36088971  0.60832430  0.17092272  1  0  0.717279  0  3.793492  0  0  0.666877  0  4.074794  0  0  0.704922  0  4.063088  0  0  0.226178  0.640866  0  4.082076  0
C  C18  1  0.38126422  0.46695862  0.55280862  1  0  -0.173574  0  3.744936  0  0  -0.158498  0  3.989342  0  0  -0.168868  0  4.012302  0  0  -0.036046  -0.151477  0  3.973784  0
C  C19  1  0.91429207  0.08586889  0.53301036  1  0  -0.172085  0  3.744963  0  0  -0.157542  0  3.989732  0  0  -0.167907  0  4.012728  0  0  -0.036216  -0.1505  0  3.974104  0
C  C20  1  0.82842633  0.44717280  0.91408937  1  0  -0.172638  0  3.744387  0  0  -0.157359  0  3.988469  0  0  -0.167782  0  4.011495  0  0  -0.03616  -0.150286  0  3.972836  0
C  C21  1  0.61873401  0.53304157  0.44719182  1  0  -0.173541  0  3.744859  0  0  -0.158437  0  3.989242  0  0  -0.168808  0  4.012206  0  0  -0.036001  -0.15142  0  3.973688  0
C  C22  1  0.08570765  0.91413129  0.46698820  1  0  -0.172248  0  3.745024  0  0  -0.157668  0  3.989779  0  0  -0.168035  0  4.012777  0  0  -0.036214  -0.150624  0  3.974148  0
C  C23  1  0.17157714  0.55282892  0.08591015  1  0  -0.172703  0  3.744449  0  0  -0.15744  0  3.988551  0  0  -0.16786  0  4.011574  0  0  -0.036225  -0.150369  0  3.972923  0
C  C24  1  0.56094129  0.43083277  0.53182737  1  0  0.326466  0  3.854317  0  0  0.308388  0  4.118692  0  0  0.319883  0  4.138685  0  0  0.066027  0.30029  0  4.104987  0
C  C25  1  0.13013638  0.10103585  0.56912818  1  0  0.324757  0  3.85469  0  0  0.306506  0  4.119588  0  0  0.317993  0  4.139606  0  0  0.065445  0.298414  0  4.105861  0
C  C26  1  0.02908432  0.46818000  0.89897889  1  0  0.326071  0  3.852826  0  0  0.30682  0  4.118702  0  0  0.318357  0  4.13868  0  0  0.065626  0.298697  0  4.105022  0
C  C27  1  0.43905882  0.56916819  0.46817355  1  0  0.326472  0  3.854346  0  0  0.308415  0  4.118684  0  0  0.319908  0  4.138681  0  0  0.066025  0.300319  0  4.10498  0
C  C28  1  0.86986185  0.89896434  0.43087225  1  0  0.324803  0  3.854733  0  0  0.306546  0  4.119618  0  0  0.318031  0  4.139639  0  0  0.065438  0.298454  0  4.105891  0
C  C29  1  0.97091728  0.53182095  0.10102147  1  0  0.326155  0  3.852601  0  0  0.306878  0  4.118521  0  0  0.318413  0  4.138499  0  0  0.065637  0.298756  0  4.104842  0
C  C30  1  0.67323289  0.46549761  0.47924285  1  0  -0.181462  0  3.727169  0  0  -0.214917  0  3.98759  0  0  -0.218158  0  4.007429  0  0  -0.108992  -0.21262  0  3.974216  0
C  C31  1  0.20773342  0.01377040  0.53449500  1  0  -0.180559  0  3.726241  0  0  -0.214391  0  3.986598  0  0  -0.217679  0  4.006528  0  0  -0.108209  -0.212072  0  3.973169  0
C  C32  1  0.19397155  0.52077412  0.98627968  1  0  -0.181239  0  3.726603  0  0  -0.214891  0  3.986984  0  0  -0.218104  0  4.006843  0  0  -0.108689  -0.212627  0  3.973611  0
C  C33  1  0.32676870  0.53450334  0.52075816  1  0  -0.181467  0  3.727151  0  0  -0.214925  0  3.987583  0  0  -0.218165  0  4.007422  0  0  -0.108984  -0.212631  0  3.97421  0
C  C34  1  0.79226631  0.98622978  0.46550356  1  0  -0.180662  0  3.726308  0  0  -0.214485  0  3.986671  0  0  -0.217774  0  4.006602  0  0  -0.108229  -0.212166  0  3.973244  0
C  C35  1  0.80603081  0.47922837  0.01372276  1  0  -0.181298  0  3.726551  0  0  -0.214974  0  3.98696  0  0  -0.218188  0  4.00682  0  0  -0.108746  -0.212709  0  3.973584  0
C  C36  1  0.23281560  0.07929002  0.34739208  1  0  0.832092  0  3.763214  0  0  0.768567  0  4.078583  0  0  0.812225  0  4.06396  0  0  0.380999  0.738793  0  4.088306  0
C  C37  1  0.15361224  0.26852892  0.92072467  1  0  0.831684  0  3.762859  0  0  0.768019  0  4.07828  0  0  0.811677  0  4.063678  0  0  0.381176  0.738243  0  4.087996  0
C  C38  1  0.88539756  0.65207509  0.73170869  1  0  0.833067  0  3.76333  0  0  0.769107  0  4.078948  0  0  0.812775  0  4.064387  0  0  0.381276  0.73933  0  4.088637  0
C  C39  1  0.76716711  0.92069100  0.65259246  1  0  0.832626  0  3.762621  0  0  0.769121  0  4.077946  0  0  0.812781  0  4.063312  0  0  0.381212  0.73935  0  4.087675  0
C  C40  1  0.84639651  0.73147740  0.07927539  1  0  0.831796  0  3.762933  0  0  0.768071  0  4.078383  0  0  0.811733  0  4.063777  0  0  0.381229  0.738297  0  4.088098  0
C  C41  1  0.11461344  0.34793276  0.26829683  1  0  0.832899  0  3.763207  0  0  0.768932  0  4.078828  0  0  0.812595  0  4.064275  0  0  0.381146  0.739153  0  4.088514  0
O  O42  1  0.28994535  0.37281905  0.63518903  1  0  -0.685694  0  2.233714  0  0  -0.601539  0  2.508674  0  0  -0.632073  0  2.490581  0  0  -0.316035  -0.58015  0  2.520453  0
O  O43  1  0.91703843  0.26235725  0.62717965  1  0  -0.684981  0  2.235096  0  0  -0.600935  0  2.509443  0  0  -0.631567  0  2.491469  0  0  -0.315921  -0.579511  0  2.521169  0
O  O44  1  0.65477625  0.36471661  0.73751142  1  0  -0.685331  0  2.235039  0  0  -0.601566  0  2.509619  0  0  -0.63209  0  2.491471  0  0  -0.315907  -0.580199  0  2.521427  0
O  O45  1  0.71005063  0.62717960  0.36480988  1  0  -0.68569  0  2.233726  0  0  -0.601511  0  2.508703  0  0  -0.632047  0  2.490614  0  0  -0.316061  -0.580124  0  2.520484  0
O  O46  1  0.08295566  0.73764064  0.37282272  1  0  -0.684953  0  2.235187  0  0  -0.600926  0  2.509598  0  0  -0.631561  0  2.491625  0  0  -0.315916  -0.579498  0  2.521324  0
O  O47  1  0.34522348  0.63528358  0.26248911  1  0  -0.685302  0  2.235063  0  0  -0.601533  0  2.509637  0  0  -0.632056  0  2.49149  0  0  -0.315915  -0.580166  0  2.521447  0
O  O48  1  0.09385673  0.47613036  0.62743535  1  0  -0.635362  0  2.023959  0  0  -0.568407  0  2.281993  0  0  -0.59745  0  2.267258  0  0  -0.308827  -0.548057  0  2.291436  0
O  O49  1  0.61774113  0.15132772  0.52356682  1  0  -0.635355  0  2.023924  0  0  -0.568876  0  2.281948  0  0  -0.597949  0  2.267229  0  0  -0.309144  -0.548514  0  2.291391  0
O  O50  1  0.46640980  0.37244172  0.84860722  1  0  -0.635317  0  2.02454  0  0  -0.568941  0  2.282317  0  0  -0.59799  0  2.267555  0  0  -0.309215  -0.548595  0  2.291784  0
O  O51  1  0.90614333  0.52386752  0.37256413  1  0  -0.635261  0  2.0239  0  0  -0.568287  0  2.281956  0  0  -0.597331  0  2.267224  0  0  -0.308789  -0.547938  0  2.291399  0
O  O52  1  0.38226047  0.84867323  0.47643157  1  0  -0.635432  0  2.023916  0  0  -0.568905  0  2.281931  0  0  -0.597977  0  2.267212  0  0  -0.309131  -0.548543  0  2.291379  0
O  O53  1  0.53358993  0.62755846  0.15139332  1  0  -0.635289  0  2.024524  0  0  -0.568922  0  2.282304  0  0  -0.597971  0  2.267542  0  0  -0.309207  -0.548576  0  2.291771  0
O  O54  1  0.63152977  0.36680192  0.55956780  1  0  -0.706022  0  2.205149  0  0  -0.619246  0  2.498286  0  0  -0.650275  0  2.485478  0  0  -0.363965  -0.597027  0  2.506302  0
O  O55  1  0.26482355  0.19283686  0.63309451  1  0  -0.706221  0  2.205793  0  0  -0.618634  0  2.497946  0  0  -0.649624  0  2.485114  0  0  -0.363515  -0.596443  0  2.505977  0
O  O56  1  0.07201023  0.44047041  0.80719668  1  0  -0.706516  0  2.205302  0  0  -0.61894  0  2.49802  0  0  -0.649987  0  2.485301  0  0  -0.363849  -0.596759  0  2.506023  0
O  O57  1  0.36847106  0.63319750  0.44043180  1  0  -0.706038  0  2.205225  0  0  -0.619259  0  2.498338  0  0  -0.650285  0  2.485526  0  0  -0.363959  -0.597038  0  2.506354  0
O  O58  1  0.73517728  0.80716256  0.36690574  1  0  -0.706215  0  2.205768  0  0  -0.618633  0  2.497939  0  0  -0.649622  0  2.485106  0  0  -0.363509  -0.596439  0  2.505971  0
O  O59  1  0.92799098  0.55952977  0.19280461  1  0  -0.706523  0  2.205163  0  0  -0.618908  0  2.497854  0  0  -0.649958  0  2.485137  0  0  -0.363803  -0.596726  0  2.505856  0
O  O60  1  0.22990973  0.99481903  0.28795670  1  0  -0.383975  0  1.95224  0  0  -0.35264  0  2.130195  0  0  -0.373609  0  2.121885  0  0  -0.168177  -0.338508  0  2.135754  0
O  O61  1  0.23438905  0.29334496  0.00525952  1  0  -0.383638  0  1.951318  0  0  -0.352273  0  2.129406  0  0  -0.373244  0  2.121116  0  0  -0.167733  -0.338139  0  2.134954  0
O  O62  1  0.94129395  0.71162718  0.70673771  1  0  -0.383529  0  1.953247  0  0  -0.352138  0  2.131498  0  0  -0.373102  0  2.123209  0  0  -0.167262  -0.338016  0  2.137047  0
O  O63  1  0.77006797  0.00517578  0.71203591  1  0  -0.384322  0  1.951353  0  0  -0.353004  0  2.12927  0  0  -0.373978  0  2.120953  0  0  -0.168352  -0.338865  0  2.134831  0
O  O64  1  0.76562311  0.70666519  0.99474059  1  0  -0.383718  0  1.951383  0  0  -0.352354  0  2.129503  0  0  -0.373326  0  2.121213  0  0  -0.167815  -0.338219  0  2.135051  0
O  O65  1  0.05872477  0.28837531  0.29327370  1  0  -0.383534  0  1.952839  0  0  -0.352145  0  2.131085  0  0  -0.373112  0  2.122806  0  0  -0.167268  -0.338018  0  2.136627  0
O  O66  1  0.23325907  0.16445549  0.40542689  1  0  -0.409175  0  2.025526  0  0  -0.370479  0  2.236123  0  0  -0.392359  0  2.223497  0  0  -0.166565  -0.355681  0  2.244703  0
O  O67  1  0.06956428  0.24150425  0.83548334  1  0  -0.408844  0  2.027501  0  0  -0.370018  0  2.238312  0  0  -0.391904  0  2.225675  0  0  -0.166974  -0.35522  0  2.246904  0
O  O68  1  0.82842627  0.59398671  0.75885768  1  0  -0.41037  0  2.026441  0  0  -0.371084  0  2.237051  0  0  -0.39299  0  2.224467  0  0  -0.167473  -0.356265  0  2.245585  0
O  O69  1  0.76672865  0.83553857  0.59457129  1  0  -0.409383  0  2.025861  0  0  -0.370698  0  2.236477  0  0  -0.392574  0  2.223842  0  0  -0.166632  -0.355908  0  2.245062  0
O  O70  1  0.93044145  0.75849900  0.16451706  1  0  -0.408918  0  2.02754  0  0  -0.37001  0  2.238318  0  0  -0.391897  0  2.225677  0  0  -0.166954  -0.355213  0  2.246909  0
O  O71  1  0.17156859  0.40601271  0.24114546  1  0  -0.410202  0  2.02668  0  0  -0.370911  0  2.237299  0  0  -0.39281  0  2.224713  0  0  -0.167358  -0.356095  0  2.24584  0
