# generated using pymatgen
data_CdH16C14(NO3)2
_symmetry_space_group_name_H-M   'P 1'
_cell_length_a   8.80536437
_cell_length_b   9.38230715
_cell_length_c   9.67589378
_cell_angle_alpha   109.51870464
_cell_angle_beta   89.99998733
_cell_angle_gamma   89.99996345
_symmetry_Int_Tables_number   1
_chemical_formula_structural   CdH16C14(NO3)2
_chemical_formula_sum   'Cd2 H32 C28 N4 O12'
_cell_volume   753.43256843
_cell_formula_units_Z   2
loop_
 _symmetry_equiv_pos_site_id
 _symmetry_equiv_pos_as_xyz
  1  'x, y, z'
loop_
 _atom_site_type_symbol
 _atom_site_label
 _atom_site_symmetry_multiplicity
 _atom_site_fract_x
 _atom_site_fract_y
 _atom_site_fract_z
 _atom_site_occupancy
 _atom_site_hle17_bader_spin_density
 _atom_site_hle17_ddec_charge
 _atom_site_hle17_ddec_spin_density
 _atom_site_hle17_ddec_sum_bond_order
 _atom_site_hle17_magmom
 _atom_site_hse06_10hf_bader_spin_density
 _atom_site_hse06_10hf_ddec_charge
 _atom_site_hse06_10hf_ddec_spin_density
 _atom_site_hse06_10hf_ddec_sum_bond_order
 _atom_site_hse06_10hf_magmom
 _atom_site_hse06_bader_spin_density
 _atom_site_hse06_ddec_charge
 _atom_site_hse06_ddec_spin_density
 _atom_site_hse06_ddec_sum_bond_order
 _atom_site_hse06_magmom
 _atom_site_pbe_bader_spin_density
 _atom_site_pbe_cm5_charge
 _atom_site_pbe_ddec_charge
 _atom_site_pbe_ddec_spin_density
 _atom_site_pbe_ddec_sum_bond_order
 _atom_site_pbe_magmom
Cd  Cd0  1  0.99999927  0.50000011  0.49999948  1  0  1.142948  0  1.726683  0  0  0.957045  0  2.18308  0  0  1.010397  0  2.130522  0  0  0.76465  0.919628  0  2.21886  0
Cd  Cd1  1  0.49999941  0.99999967  0.00000066  1  0  1.142927  0  1.726704  0  0  0.957023  0  2.183103  0  0  1.010373  0  2.130547  0  0  0.764644  0.919605  0  2.218895  0
H  H2  1  0.01563239  0.28905321  0.19940926  1  0  0.425911  0  0.87992  0  0  0.391038  0  0.949484  0  0  0.402807  0  0.93266  0  0  0.283065  0.382604  0  0.961509  0
H  H3  1  0.51563330  0.21094705  0.30058928  1  0  0.425967  0  0.879835  0  0  0.391035  0  0.949469  0  0  0.402802  0  0.932648  0  0  0.283083  0.382604  0  0.961489  0
H  H4  1  0.98436778  0.71094739  0.80059095  1  0  0.425891  0  0.879949  0  0  0.391016  0  0.949517  0  0  0.402786  0  0.932692  0  0  0.28306  0.382582  0  0.961542  0
H  H5  1  0.48436802  0.78905241  0.69940954  1  0  0.425978  0  0.879821  0  0  0.391047  0  0.949454  0  0  0.402815  0  0.93263  0  0  0.283081  0.382618  0  0.96147  0
H  H6  1  0.84856100  0.30020165  0.27947089  1  0  0.414195  0  0.880158  0  0  0.380902  0  0.954266  0  0  0.392144  0  0.937634  0  0  0.288902  0.372969  0  0.965951  0
H  H7  1  0.34856015  0.19979840  0.22052958  1  0  0.414198  0  0.880157  0  0  0.380904  0  0.954265  0  0  0.392145  0  0.937633  0  0  0.288906  0.37297  0  0.96595  0
H  H8  1  0.15143918  0.69979783  0.72052897  1  0  0.414206  0  0.880143  0  0  0.380913  0  0.954251  0  0  0.392155  0  0.937617  0  0  0.288906  0.372979  0  0.965937  0
H  H9  1  0.65144002  0.80020222  0.77947167  1  0  0.414201  0  0.880147  0  0  0.38091  0  0.954254  0  0  0.392152  0  0.937623  0  0  0.288906  0.372976  0  0.965943  0
H  H10  1  0.02654494  0.63352052  0.23272034  1  0  0.082637  0  0.947032  0  0  0.091324  0  1.01361  0  0  0.093473  0  1.012514  0  0  0.112719  0.089662  0  1.014954  0
H  H11  1  0.52654347  0.86647850  0.26728069  1  0  0.082655  0  0.947036  0  0  0.091361  0  1.013597  0  0  0.093495  0  1.012517  0  0  0.112741  0.089699  0  1.01494  0
H  H12  1  0.97345524  0.36648009  0.76727987  1  0  0.082619  0  0.947124  0  0  0.091348  0  1.013648  0  0  0.09349  0  1.012559  0  0  0.112733  0.089683  0  1.014993  0
H  H13  1  0.47345443  0.13351986  0.73271986  1  0  0.082628  0  0.947125  0  0  0.091356  0  1.013654  0  0  0.09348  0  1.012585  0  0  0.112734  0.089692  0  1.014996  0
H  H14  1  0.82414498  0.81433797  0.64023120  1  0  0.077567  0  0.973769  0  0  0.084972  0  1.04258  0  0  0.087859  0  1.03936  0  0  0.113808  0.082497  0  1.045378  0
H  H15  1  0.32414638  0.68566308  0.85976971  1  0  0.077582  0  0.973792  0  0  0.084986  0  1.042606  0  0  0.087874  0  1.039385  0  0  0.113813  0.082509  0  1.045407  0
H  H16  1  0.17585292  0.18566375  0.35976832  1  0  0.077562  0  0.973733  0  0  0.085  0  1.042514  0  0  0.087889  0  1.039289  0  0  0.113808  0.082525  0  1.045315  0
H  H17  1  0.67585379  0.31433640  0.14023015  1  0  0.077582  0  0.973756  0  0  0.084982  0  1.042571  0  0  0.087872  0  1.03935  0  0  0.1138  0.082506  0  1.045368  0
H  H18  1  0.73128936  0.03920620  0.58265444  1  0  0.101342  0  0.951974  0  0  0.112654  0  1.009764  0  0  0.115122  0  1.010362  0  0  0.104847  0.110852  0  1.009851  0
H  H19  1  0.23128942  0.46079394  0.91734540  1  0  0.101349  0  0.951979  0  0  0.112657  0  1.00977  0  0  0.115126  0  1.010367  0  0  0.104852  0.110854  0  1.009856  0
H  H20  1  0.26871082  0.96079439  0.41734474  1  0  0.101342  0  0.951992  0  0  0.112645  0  1.009781  0  0  0.115114  0  1.010379  0  0  0.104852  0.110845  0  1.00987  0
H  H21  1  0.76871076  0.53920552  0.08265342  1  0  0.101355  0  0.951997  0  0  0.112661  0  1.009786  0  0  0.115129  0  1.010384  0  0  0.104851  0.110859  0  1.009875  0
H  H22  1  0.79781019  0.06395236  0.33958245  1  0  0.112944  0  0.968957  0  0  0.119901  0  1.033516  0  0  0.123717  0  1.03029  0  0  0.105562  0.117063  0  1.036068  0
H  H23  1  0.29780920  0.43604660  0.16041769  1  0  0.11294  0  0.968961  0  0  0.119899  0  1.033515  0  0  0.123715  0  1.030287  0  0  0.105557  0.117063  0  1.036067  0
H  H24  1  0.20219112  0.93604938  0.66041811  1  0  0.112956  0  0.968957  0  0  0.119918  0  1.033504  0  0  0.123732  0  1.030279  0  0  0.105572  0.117082  0  1.036059  0
H  H25  1  0.70218984  0.56395175  0.83958182  1  0  0.112929  0  0.968972  0  0  0.119914  0  1.033497  0  0  0.123728  0  1.030271  0  0  0.105564  0.117076  0  1.036053  0
H  H26  1  0.03298872  0.75724515  0.05770248  1  0  0.106354  0  0.94983  0  0  0.119359  0  1.012135  0  0  0.121425  0  1.011739  0  0  0.098849  0.117929  0  1.012533  0
H  H27  1  0.53298616  0.74275495  0.44229682  1  0  0.106328  0  0.949909  0  0  0.119339  0  1.012217  0  0  0.121402  0  1.011821  0  0  0.098833  0.117905  0  1.012618  0
H  H28  1  0.96701260  0.24275547  0.94229877  1  0  0.106328  0  0.949877  0  0  0.119341  0  1.01219  0  0  0.121405  0  1.011793  0  0  0.098835  0.117909  0  1.012588  0
H  H29  1  0.46701289  0.25724449  0.55770097  1  0  0.106343  0  0.949894  0  0  0.119341  0  1.012203  0  0  0.121407  0  1.011805  0  0  0.098835  0.117912  0  1.012605  0
H  H30  1  0.04369348  0.95621117  0.13656719  1  0  0.125115  0  0.924983  0  0  0.141136  0  0.981897  0  0  0.142783  0  0.981753  0  0  0.10872  0.140386  0  0.981635  0
H  H31  1  0.54369448  0.54379007  0.36343349  1  0  0.125112  0  0.924945  0  0  0.141137  0  0.981872  0  0  0.142785  0  0.981727  0  0  0.108714  0.140389  0  0.981606  0
H  H32  1  0.95630670  0.04378943  0.86343302  1  0  0.125109  0  0.924951  0  0  0.141138  0  0.981874  0  0  0.142785  0  0.98173  0  0  0.108714  0.140387  0  0.981614  0
H  H33  1  0.45630684  0.45621165  0.63656603  1  0  0.125114  0  0.924949  0  0  0.141129  0  0.98187  0  0  0.142777  0  0.981726  0  0  0.108711  0.140383  0  0.981605  0
C  C34  1  0.96166236  0.72708825  0.30694262  1  0  0.059321  0  3.698905  0  0  0.022675  0  3.949629  0  0  0.028307  0  3.968825  0  0  0.038952  0.01866  0  3.936898  0
C  C35  1  0.46166147  0.77291157  0.19305857  1  0  0.059297  0  3.698977  0  0  0.022621  0  3.949709  0  0  0.028266  0  3.96891  0  0  0.038921  0.018609  0  3.936974  0
C  C36  1  0.03833668  0.27291237  0.69305863  1  0  0.059323  0  3.699039  0  0  0.02265  0  3.949739  0  0  0.028286  0  3.968938  0  0  0.038934  0.018641  0  3.936998  0
C  C37  1  0.53833643  0.22708790  0.80694129  1  0  0.059311  0  3.699033  0  0  0.022629  0  3.949752  0  0  0.028282  0  3.968956  0  0  0.038942  0.018619  0  3.937011  0
C  C38  1  0.84769541  0.82663232  0.53442698  1  0  0.116702  0  3.732264  0  0  0.082494  0  3.989085  0  0  0.089641  0  4.007033  0  0  0.039597  0.078083  0  3.976839  0
C  C39  1  0.34769566  0.67336869  0.96557288  1  0  0.116686  0  3.732254  0  0  0.082474  0  3.989075  0  0  0.089619  0  4.007021  0  0  0.039606  0.078064  0  3.97683  0
C  C40  1  0.15230363  0.17336941  0.46557358  1  0  0.116675  0  3.73207  0  0  0.082424  0  3.988911  0  0  0.08957  0  4.006857  0  0  0.039589  0.078009  0  3.97667  0
C  C41  1  0.65230339  0.32663077  0.03442594  1  0  0.116695  0  3.732273  0  0  0.082488  0  3.989098  0  0  0.089631  0  4.007049  0  0  0.03963  0.078078  0  3.976852  0
C  C42  1  0.79725907  0.95242706  0.50163968  1  0  -0.116567  0  3.753611  0  0  -0.126301  0  4.006552  0  0  -0.133254  0  4.028535  0  0  -0.086835  -0.122363  0  3.992371  0
C  C43  1  0.29725940  0.54757288  0.99836090  1  0  -0.116627  0  3.753668  0  0  -0.126359  0  4.006601  0  0  -0.133312  0  4.028585  0  0  -0.086887  -0.122414  0  3.992415  0
C  C44  1  0.20274111  0.04757356  0.49836157  1  0  -0.1166  0  3.753607  0  0  -0.126317  0  4.006545  0  0  -0.133268  0  4.028526  0  0  -0.086878  -0.122376  0  3.992368  0
C  C45  1  0.70274078  0.45242547  0.00163861  1  0  -0.116619  0  3.753688  0  0  -0.126353  0  4.006628  0  0  -0.133305  0  4.028612  0  0  -0.086889  -0.122412  0  3.992448  0
C  C46  1  0.83466696  0.96579621  0.36683798  1  0  -0.060888  0  3.684226  0  0  -0.089011  0  3.934677  0  0  -0.086401  0  3.952932  0  0  -0.071227  -0.090496  0  3.922743  0
C  C47  1  0.33466625  0.53420369  0.13316223  1  0  -0.060885  0  3.684308  0  0  -0.088999  0  3.934728  0  0  -0.086387  0  3.952984  0  0  -0.071223  -0.09049  0  3.922797  0
C  C48  1  0.16533435  0.03420440  0.63316223  1  0  -0.06088  0  3.684281  0  0  -0.088998  0  3.934706  0  0  -0.086386  0  3.952958  0  0  -0.071211  -0.090488  0  3.922782  0
C  C49  1  0.66533279  0.46579464  0.86683624  1  0  -0.060906  0  3.684229  0  0  -0.089044  0  3.934656  0  0  -0.08643  0  3.95291  0  0  -0.071235  -0.090529  0  3.922729  0
C  C50  1  0.91938810  0.85069835  0.26555054  1  0  0.072706  0  3.735729  0  0  0.097206  0  3.97285  0  0  0.093031  0  3.998636  0  0  -0.004102  0.099733  0  3.955782  0
C  C51  1  0.41938842  0.64930263  0.23445102  1  0  0.072722  0  3.735752  0  0  0.097234  0  3.972867  0  0  0.093061  0  3.998647  0  0  -0.004087  0.099762  0  3.9558  0
C  C52  1  0.08061095  0.14930338  0.73445002  1  0  0.072743  0  3.73579  0  0  0.097242  0  3.972932  0  0  0.093071  0  3.998714  0  0  -0.00408  0.09977  0  3.955863  0
C  C53  1  0.58061176  0.35069685  0.76554884  1  0  0.072761  0  3.735771  0  0  0.097256  0  3.972888  0  0  0.093084  0  3.998668  0  0  -0.004091  0.099782  0  3.955823  0
C  C54  1  0.96770752  0.85819689  0.11870264  1  0  -0.310722  0  3.681084  0  0  -0.35282  0  3.920669  0  0  -0.358171  0  3.929347  0  0  -0.161554  -0.349229  0  3.913973  0
C  C55  1  0.46770781  0.64180630  0.38129856  1  0  -0.310674  0  3.681095  0  0  -0.352817  0  3.920747  0  0  -0.358165  0  3.929424  0  0  -0.161507  -0.349226  0  3.91405  0
C  C56  1  0.03229379  0.14180484  0.88129793  1  0  -0.310682  0  3.681087  0  0  -0.352828  0  3.920741  0  0  -0.358179  0  3.929421  0  0  -0.161514  -0.349234  0  3.914041  0
C  C57  1  0.53229350  0.35819429  0.61870061  1  0  -0.310728  0  3.681182  0  0  -0.352818  0  3.920765  0  0  -0.35817  0  3.929448  0  0  -0.161505  -0.349232  0  3.914079  0
C  C58  1  0.83599236  0.88015950  0.02357732  1  0  0.708923  0  3.847927  0  0  0.657155  0  4.155448  0  0  0.690446  0  4.149103  0  0  0.212405  0.635072  0  4.158148  0
C  C59  1  0.33599264  0.61984041  0.47642392  1  0  0.709023  0  3.847815  0  0  0.657259  0  4.155346  0  0  0.69055  0  4.148999  0  0  0.21244  0.635177  0  4.158045  0
C  C60  1  0.16400668  0.11983999  0.97642358  1  0  0.708998  0  3.847813  0  0  0.657251  0  4.155325  0  0  0.69054  0  4.148979  0  0  0.212449  0.635166  0  4.158022  0
C  C61  1  0.66400754  0.38016021  0.52357733  1  0  0.709001  0  3.847845  0  0  0.65723  0  4.155368  0  0  0.690519  0  4.149023  0  0  0.212426  0.635138  0  4.158076  0
N  N62  1  0.92798969  0.71561489  0.43849276  1  0  -0.338347  0  3.280308  0  0  -0.262249  0  3.548421  0  0  -0.281403  0  3.567897  0  0  -0.332672  -0.249009  0  3.534801  0
N  N63  1  0.42798997  0.78438493  0.06150740  1  0  -0.338331  0  3.280297  0  0  -0.262231  0  3.548414  0  0  -0.281384  0  3.567884  0  0  -0.332674  -0.248995  0  3.534798  0
N  N64  1  0.07200935  0.28438570  0.56150641  1  0  -0.33835  0  3.280202  0  0  -0.26226  0  3.548353  0  0  -0.281413  0  3.567825  0  0  -0.332682  -0.249016  0  3.534725  0
N  N65  1  0.57200908  0.21561341  0.93849211  1  0  -0.338331  0  3.280286  0  0  -0.262245  0  3.548411  0  0  -0.281397  0  3.56788  0  0  -0.33268  -0.249003  0  3.534786  0
O  O66  1  0.74036084  0.98201482  0.08657115  1  0  -0.643641  0  2.009317  0  0  -0.575165  0  2.263057  0  0  -0.604113  0  2.253662  0  0  -0.327277  -0.554628  0  2.268203  0
O  O67  1  0.24036234  0.51798515  0.41342910  1  0  -0.643684  0  2.009314  0  0  -0.575205  0  2.263064  0  0  -0.604158  0  2.253668  0  0  -0.327306  -0.554673  0  2.268209  0
O  O68  1  0.25963706  0.01798352  0.91342836  1  0  -0.643667  0  2.009273  0  0  -0.575189  0  2.263003  0  0  -0.604138  0  2.253606  0  0  -0.327319  -0.554652  0  2.268146  0
O  O69  1  0.75963670  0.48201546  0.58657111  1  0  -0.643666  0  2.009296  0  0  -0.575186  0  2.263043  0  0  -0.604137  0  2.253647  0  0  -0.327308  -0.554648  0  2.268186  0
O  O70  1  0.83225479  0.79774424  0.88864983  1  0  -0.663276  0  1.985912  0  0  -0.593346  0  2.205965  0  0  -0.619804  0  2.19484  0  0  -0.314892  -0.575312  0  2.213513  0
O  O71  1  0.33225510  0.70225682  0.61135212  1  0  -0.663351  0  1.985845  0  0  -0.593393  0  2.205887  0  0  -0.619846  0  2.194757  0  0  -0.314895  -0.57536  0  2.213426  0
O  O72  1  0.16774539  0.20225639  0.11135142  1  0  -0.663319  0  1.985868  0  0  -0.593394  0  2.205925  0  0  -0.619847  0  2.194794  0  0  -0.314892  -0.575361  0  2.213469  0
O  O73  1  0.66774508  0.29774378  0.38864809  1  0  -0.663331  0  1.985841  0  0  -0.593379  0  2.205891  0  0  -0.619828  0  2.194758  0  0  -0.314884  -0.57534  0  2.213429  0
O  O74  1  0.93477207  0.35761077  0.25973085  1  0  -0.841732  0  1.876819  0  0  -0.780427  0  2.084011  0  0  -0.802791  0  2.049015  0  0  -0.591195  -0.76427  0  2.108191  0
O  O75  1  0.43477239  0.14238921  0.24026958  1  0  -0.841777  0  1.87673  0  0  -0.78042  0  2.08403  0  0  -0.802787  0  2.049043  0  0  -0.591215  -0.764259  0  2.108208  0
O  O76  1  0.06522698  0.64238983  0.74026936  1  0  -0.84172  0  1.876822  0  0  -0.78042  0  2.084025  0  0  -0.802786  0  2.04903  0  0  -0.591191  -0.764261  0  2.108202  0
O  O77  1  0.56522779  0.85761028  0.75973132  1  0  -0.841794  0  1.876711  0  0  -0.780444  0  2.084018  0  0  -0.802805  0  2.049019  0  0  -0.591212  -0.764285  0  2.108202  0
