# generated using pymatgen
data_Cd3H16C20(Br2N11)2
_symmetry_space_group_name_H-M   'P 1'
_cell_length_a   6.86206664
_cell_length_b   9.44365927
_cell_length_c   13.15651011
_cell_angle_alpha   82.09659191
_cell_angle_beta   81.95630659
_cell_angle_gamma   88.74742333
_symmetry_Int_Tables_number   1
_chemical_formula_structural   Cd3H16C20(Br2N11)2
_chemical_formula_sum   'Cd3 H16 C20 Br4 N22'
_cell_volume   836.17184483
_cell_formula_units_Z   1
loop_
 _symmetry_equiv_pos_site_id
 _symmetry_equiv_pos_as_xyz
  1  'x, y, z'
loop_
 _atom_site_type_symbol
 _atom_site_label
 _atom_site_symmetry_multiplicity
 _atom_site_fract_x
 _atom_site_fract_y
 _atom_site_fract_z
 _atom_site_occupancy
 _atom_site_hle17_bader_spin_density
 _atom_site_hle17_ddec_charge
 _atom_site_hle17_ddec_spin_density
 _atom_site_hle17_ddec_sum_bond_order
 _atom_site_hle17_magmom
 _atom_site_hse06_10hf_bader_spin_density
 _atom_site_hse06_10hf_ddec_charge
 _atom_site_hse06_10hf_ddec_spin_density
 _atom_site_hse06_10hf_ddec_sum_bond_order
 _atom_site_hse06_10hf_magmom
 _atom_site_hse06_bader_spin_density
 _atom_site_hse06_ddec_charge
 _atom_site_hse06_ddec_spin_density
 _atom_site_hse06_ddec_sum_bond_order
 _atom_site_hse06_magmom
 _atom_site_pbe_bader_spin_density
 _atom_site_pbe_cm5_charge
 _atom_site_pbe_ddec_charge
 _atom_site_pbe_ddec_spin_density
 _atom_site_pbe_ddec_sum_bond_order
 _atom_site_pbe_magmom
Cd  Cd0  1  0.00000027  0.99999944  0.99999934  1  0  1.023941  0  1.895753  0  0  0.835809  0  2.371649  0  0  0.881423  0  2.332037  0  0  0.810777  0.805275  0  2.396517  0
Cd  Cd1  1  0.25022811  0.41761928  0.97733475  1  0  1.048059  0  1.8114  0  0  0.869412  0  2.270284  0  0  0.914533  0  2.234203  0  0  0.792987  0.838265  0  2.29429  0
Cd  Cd2  1  0.74977409  0.58237879  0.02266614  1  0  1.048052  0  1.811438  0  0  0.869398  0  2.270328  0  0  0.914522  0  2.234243  0  0  0.792974  0.838248  0  2.294329  0
H  H3  1  0.00699004  0.25983711  0.80707592  1  0  0.079336  0  0.954703  0  0  0.08364  0  1.025958  0  0  0.085702  0  1.024836  0  0  0.110394  0.082049  0  1.027154  0
H  H4  1  0.99300627  0.74016097  0.19292465  1  0  0.07939  0  0.954659  0  0  0.083642  0  1.025982  0  0  0.085705  0  1.024857  0  0  0.110383  0.082051  0  1.027177  0
H  H5  1  0.09147348  0.30608010  0.61432079  1  0  0.111968  0  0.974775  0  0  0.116207  0  1.044842  0  0  0.120073  0  1.043001  0  0  0.096001  0.112869  0  1.047227  0
H  H6  1  0.90852724  0.69392118  0.38567990  1  0  0.11196  0  0.974835  0  0  0.116205  0  1.044895  0  0  0.120072  0  1.043054  0  0  0.096004  0.112868  0  1.047279  0
H  H7  1  0.28830607  0.86628059  0.62383066  1  0  0.109425  0  0.983919  0  0  0.113754  0  1.056041  0  0  0.117536  0  1.054186  0  0  0.094804  0.110785  0  1.057999  0
H  H8  1  0.71169612  0.13372390  0.37616884  1  0  0.109427  0  0.983925  0  0  0.113839  0  1.055926  0  0  0.117623  0  1.054071  0  0  0.094825  0.110867  0  1.057886  0
H  H9  1  0.20768109  0.84129937  0.81550049  1  0  0.0756  0  0.949294  0  0  0.081412  0  1.019081  0  0  0.082795  0  1.018371  0  0  0.114473  0.080495  0  1.019478  0
H  H10  1  0.79232258  0.15870083  0.18449932  1  0  0.075635  0  0.949223  0  0  0.081444  0  1.019015  0  0  0.082826  0  1.018304  0  0  0.114497  0.080528  0  1.019418  0
H  H11  1  0.46016616  0.61115783  0.78147596  1  0  0.081205  0  0.955794  0  0  0.087455  0  1.02342  0  0  0.089548  0  1.021767  0  0  0.111524  0.085808  0  1.024946  0
H  H12  1  0.53983604  0.38884237  0.21852624  1  0  0.081197  0  0.95582  0  0  0.087445  0  1.023444  0  0  0.089536  0  1.021794  0  0  0.111521  0.085797  0  1.024971  0
H  H13  1  0.64316886  0.60499145  0.60452382  1  0  0.101965  0  0.994023  0  0  0.10469  0  1.069725  0  0  0.108622  0  1.067516  0  0  0.090287  0.100945  0  1.073018  0
H  H14  1  0.35683187  0.39500769  0.39547784  1  0  0.101897  0  0.994022  0  0  0.104643  0  1.069728  0  0  0.108572  0  1.067521  0  0  0.090295  0.100902  0  1.07302  0
H  H15  1  0.64392353  0.14251932  0.67312523  1  0  0.119958  0  0.961658  0  0  0.123994  0  1.032988  0  0  0.127494  0  1.031734  0  0  0.101809  0.120812  0  1.035248  0
H  H16  1  0.35607423  0.85747983  0.32687208  1  0  0.119967  0  0.961647  0  0  0.123992  0  1.032969  0  0  0.127491  0  1.031717  0  0  0.101815  0.120809  0  1.035228  0
H  H17  1  0.45830863  0.16823627  0.84540301  1  0  0.081812  0  0.948571  0  0  0.084352  0  1.021878  0  0  0.086459  0  1.020205  0  0  0.113959  0.083099  0  1.022544  0
H  H18  1  0.54168914  0.83176502  0.15459561  1  0  0.081838  0  0.948558  0  0  0.084383  0  1.021863  0  0  0.086487  0  1.020193  0  0  0.113997  0.08313  0  1.022527  0
C  C19  1  0.07212717  0.17599506  0.76352679  1  0  0.146498  0  3.693122  0  0  0.11936  0  3.942912  0  0  0.126623  0  3.961193  0  0  0.045626  0.114448  0  3.930713  0
C  C20  1  0.92787061  0.82400408  0.23647356  1  0  0.146474  0  3.693215  0  0  0.119361  0  3.943011  0  0  0.126625  0  3.961295  0  0  0.045647  0.114449  0  3.930809  0
C  C21  1  0.11753246  0.20129287  0.65605755  1  0  -0.169694  0  3.729514  0  0  -0.186743  0  3.975802  0  0  -0.194617  0  3.997102  0  0  -0.095499  -0.181153  0  3.961448  0
C  C22  1  0.88246679  0.79870948  0.34394238  1  0  -0.169686  0  3.729544  0  0  -0.18673  0  3.975838  0  0  -0.194606  0  3.997141  0  0  -0.095517  -0.181141  0  3.961482  0
C  C23  1  0.19525001  0.08837218  0.60484166  1  0  0.13093  0  3.724205  0  0  0.140996  0  3.990797  0  0  0.14871  0  4.010766  0  0  -0.001926  0.135666  0  3.977032  0
C  C24  1  0.80475071  0.91163017  0.39515816  1  0  0.130988  0  3.72405  0  0  0.141016  0  3.990723  0  0  0.148731  0  4.010695  0  0  -0.001897  0.13569  0  3.976949  0
C  C25  1  0.22969776  0.95670189  0.66142983  1  0  -0.165253  0  3.744758  0  0  -0.184546  0  3.995855  0  0  -0.192585  0  4.017073  0  0  -0.093722  -0.178949  0  3.981356  0
C  C26  1  0.77030444  0.04330153  0.33857053  1  0  -0.165321  0  3.744664  0  0  -0.184667  0  3.995846  0  0  -0.192707  0  4.017056  0  0  -0.093774  -0.17907  0  3.981346  0
C  C27  1  0.18341279  0.94272872  0.76866222  1  0  0.1562  0  3.702845  0  0  0.12386  0  3.960185  0  0  0.131479  0  3.978657  0  0  0.049243  0.118949  0  3.947316  0
C  C28  1  0.81658940  0.05727256  0.23133760  1  0  0.156246  0  3.702715  0  0  0.123889  0  3.960088  0  0  0.131509  0  3.978562  0  0  0.049222  0.118971  0  3.947226  0
C  C29  1  0.50016463  0.50965285  0.75344301  1  0  0.142523  0  3.696222  0  0  0.113102  0  3.946016  0  0  0.120474  0  3.964071  0  0  0.040207  0.108297  0  3.933445  0
C  C30  1  0.49983167  0.49034737  0.24655659  1  0  0.142476  0  3.696355  0  0  0.113069  0  3.946168  0  0  0.120441  0  3.96423  0  0  0.040177  0.108264  0  3.933595  0
C  C31  1  0.60333091  0.50600858  0.65527633  1  0  -0.166747  0  3.770124  0  0  -0.186558  0  4.022478  0  0  -0.194008  0  4.043157  0  0  -0.099894  -0.181358  0  4.008661  0
C  C32  1  0.39666540  0.49399057  0.34472261  1  0  -0.166563  0  3.769987  0  0  -0.186424  0  4.022397  0  0  -0.193859  0  4.043051  0  0  -0.099861  -0.181232  0  4.008591  0
C  C33  1  0.65214045  0.37281198  0.62446853  1  0  0.128657  0  3.713776  0  0  0.140416  0  3.975004  0  0  0.147849  0  3.994872  0  0  -0.006226  0.135211  0  3.961229  0
C  C34  1  0.34785585  0.62718824  0.37553106  1  0  0.128585  0  3.713732  0  0  0.140323  0  3.975025  0  0  0.147757  0  3.994895  0  0  -0.006223  0.135118  0  3.961251  0
C  C35  1  0.60425703  0.24847301  0.69299518  1  0  -0.165193  0  3.720335  0  0  -0.182901  0  3.968638  0  0  -0.191037  0  3.990698  0  0  -0.093976  -0.177283  0  3.954186  0
C  C36  1  0.39573485  0.75152401  0.30700278  1  0  -0.165161  0  3.720318  0  0  -0.182832  0  3.968613  0  0  -0.19097  0  3.990677  0  0  -0.093988  -0.177216  0  3.954159  0
C  C37  1  0.50014252  0.26271351  0.78988411  1  0  0.147693  0  3.699137  0  0  0.11735  0  3.954296  0  0  0.125173  0  3.972451  0  0  0.04391  0.112185  0  3.941882  0
C  C38  1  0.49985231  0.73728671  0.21011332  1  0  0.147734  0  3.699087  0  0  0.117383  0  3.954247  0  0  0.125207  0  3.972406  0  0  0.043886  0.112217  0  3.941832  0
Br  Br39  1  0.24983255  0.11055284  0.45811752  1  0  -0.022694  0  1.342094  0  0  -0.016961  0  1.617486  0  0  -0.021996  0  1.61029  0  0  0.081813  -0.012373  0  1.623792  0
Br  Br40  1  0.75017258  0.88945271  0.54188167  1  0  -0.022695  0  1.342066  0  0  -0.016949  0  1.617487  0  0  -0.021998  0  1.610317  0  0  0.081836  -0.012365  0  1.623794  0
Br  Br41  1  0.78301953  0.36473210  0.48875307  1  0  -0.032815  0  1.438981  0  0  -0.026978  0  1.730155  0  0  -0.031847  0  1.722273  0  0  0.081226  -0.02275  0  1.737094  0
Br  Br42  1  0.21698708  0.63526596  0.51124826  1  0  -0.032823  0  1.439003  0  0  -0.026962  0  1.730169  0  0  -0.03183  0  1.722286  0  0  0.081218  -0.02274  0  1.737118  0
N  N43  1  0.10493050  0.04935719  0.81925099  1  0  -0.346759  0  3.263799  0  0  -0.270926  0  3.527362  0  0  -0.29051  0  3.546667  0  0  -0.33307  -0.25797  0  3.514342  0
N  N44  1  0.89507022  0.95064302  0.18074905  1  0  -0.346862  0  3.263877  0  0  -0.270991  0  3.52741  0  0  -0.290573  0  3.546707  0  0  -0.333087  -0.258036  0  3.514393  0
N  N45  1  0.44597236  0.39047397  0.81941566  1  0  -0.345482  0  3.251689  0  0  -0.268168  0  3.51377  0  0  -0.287575  0  3.532861  0  0  -0.336129  -0.2551  0  3.500631  0
N  N46  1  0.55402394  0.60952518  0.18058253  1  0  -0.345573  0  3.251786  0  0  -0.268246  0  3.513842  0  0  -0.287654  0  3.532932  0  0  -0.336133  -0.255179  0  3.500702  0
N  N47  1  0.97317315  0.49279610  0.89000963  1  0  -0.629274  0  2.71765  0  0  -0.582198  0  3.016353  0  0  -0.610046  0  3.025934  0  0  -0.332674  -0.563126  0  3.009778  0
N  N48  1  0.02682758  0.50720304  0.10999203  1  0  -0.629249  0  2.717746  0  0  -0.582167  0  3.016425  0  0  -0.610011  0  3.025996  0  0  -0.332624  -0.563095  0  3.009848  0
N  N49  1  0.00187323  0.56305468  0.80514981  1  0  0.395464  0  4.23192  0  0  0.430845  0  4.508453  0  0  0.44619  0  4.539446  0  0  0.07838  0.420597  0  4.487336  0
N  N50  1  0.99812749  0.43694446  0.19485108  1  0  0.395443  0  4.231882  0  0  0.430833  0  4.508402  0  0  0.44618  0  4.539398  0  0  0.078368  0.420585  0  4.487282  0
N  N51  1  0.02800114  0.62986206  0.72319993  1  0  -0.363279  0  2.446353  0  0  -0.36323  0  2.690214  0  0  -0.370025  0  2.701223  0  0  -0.190795  -0.358122  0  2.682723  0
N  N52  1  0.97199812  0.37013601  0.27680270  1  0  -0.36329  0  2.44624  0  0  -0.363249  0  2.690125  0  0  -0.370051  0  2.701137  0  0  -0.190828  -0.35814  0  2.68263  0
N  N53  1  0.19373389  0.18332136  0.04754282  1  0  -0.639901  0  2.721401  0  0  -0.590728  0  3.033675  0  0  -0.618694  0  3.04127  0  0  -0.343372  -0.571481  0  3.027502  0
N  N54  1  0.80626830  0.81667564  0.95245665  1  0  -0.63989  0  2.721322  0  0  -0.590702  0  3.033578  0  0  -0.618673  0  3.041174  0  0  -0.343374  -0.571455  0  3.027406  0
N  N55  1  0.27181472  0.13951269  0.12325652  1  0  0.409042  0  4.225178  0  0  0.439348  0  4.507612  0  0  0.454774  0  4.537879  0  0  0.080999  0.429128  0  4.486888  0
N  N56  1  0.72818453  0.86048645  0.87674221  1  0  0.409049  0  4.225332  0  0  0.439352  0  4.507764  0  0  0.454778  0  4.53803  0  0  0.08102  0.429132  0  4.487042  0
N  N57  1  0.34502543  0.09516478  0.19562591  1  0  -0.351986  0  2.384475  0  0  -0.349101  0  2.611067  0  0  -0.353932  0  2.62178  0  0  -0.178792  -0.346257  0  2.604533  0
N  N58  1  0.65497530  0.90483329  0.80437509  1  0  -0.351984  0  2.384711  0  0  -0.349086  0  2.611292  0  0  -0.353913  0  2.622004  0  0  -0.178795  -0.346246  0  2.604761  0
N  N59  1  0.74385970  0.16135307  0.96993458  1  0  -0.44334  0  2.604654  0  0  -0.422573  0  2.887622  0  0  -0.437244  0  2.894842  0  0  -0.233016  -0.412365  0  2.881474  0
N  N60  1  0.25614397  0.83864393  0.03006478  1  0  -0.443251  0  2.604672  0  0  -0.422491  0  2.887652  0  0  -0.437158  0  2.894873  0  0  -0.232953  -0.412286  0  2.881503  0
N  N61  1  0.67337665  0.25965347  0.00726027  1  0  0.423106  0  4.241574  0  0  0.448381  0  4.524742  0  0  0.465832  0  4.554525  0  0  0.089544  0.436781  0  4.505243  0
N  N62  1  0.32662407  0.74034674  0.99274052  1  0  0.423097  0  4.241524  0  0  0.448369  0  4.524692  0  0  0.46582  0  4.554475  0  0  0.08954  0.43677  0  4.50519  0
N  N63  1  0.59375895  0.35834239  0.04338407  1  0  -0.558999  0  2.707425  0  0  -0.524885  0  3.007601  0  0  -0.546479  0  3.015145  0  0  -0.283492  -0.510742  0  3.002904  0
N  N64  1  0.40624472  0.64165461  0.95661606  1  0  -0.559074  0  2.707333  0  0  -0.524976  0  3.00755  0  0  -0.546573  0  3.015094  0  0  -0.283551  -0.510831  0  3.002852  0
