# generated using pymatgen
data_ZnH3C16NCl5(O2F)2
_symmetry_space_group_name_H-M   'P 1'
_cell_length_a   9.91240914
_cell_length_b   11.00968504
_cell_length_c   17.78748488
_cell_angle_alpha   90.98951348
_cell_angle_beta   91.54463245
_cell_angle_gamma   89.93852956
_symmetry_Int_Tables_number   1
_chemical_formula_structural   ZnH3C16NCl5(O2F)2
_chemical_formula_sum   'Zn2 H6 C32 N2 Cl10 O8 F4'
_cell_volume   1940.19763175
_cell_formula_units_Z   2
loop_
 _symmetry_equiv_pos_site_id
 _symmetry_equiv_pos_as_xyz
  1  'x, y, z'
loop_
 _atom_site_type_symbol
 _atom_site_label
 _atom_site_symmetry_multiplicity
 _atom_site_fract_x
 _atom_site_fract_y
 _atom_site_fract_z
 _atom_site_occupancy
 _atom_site_pbe_bader_charge
 _atom_site_pbe_bader_spin_density
 _atom_site_pbe_cm5_charge
 _atom_site_pbe_ddec_charge
 _atom_site_pbe_ddec_spin_density
 _atom_site_pbe_ddec_sum_bond_order
 _atom_site_pbe_magmom
Zn  Zn0  1  0.36273410  0.50341344  0.50109986  1  1.296969  0  0.672679  0.857458  0  2.356884  0
Zn  Zn1  1  0.64509419  0.50168558  0.50478104  1  1.292471  0  0.673842  0.860876  0  2.334844  0
H  H2  1  0.31397285  0.33537580  0.86364396  1  0.099836  0  0.113628  0.13412  0  0.98085  0
H  H3  1  0.41470439  0.89582354  0.32041426  1  0.117188  0  0.106847  0.105684  0  0.971897  0
H  H4  1  0.63185198  0.09369649  0.33026155  1  0.098117  0  0.094597  0.057661  0  1.00271  0
H  H5  1  0.86558347  0.24853600  0.42081557  1  0.163093  0  0.11306  0.130974  0  0.977972  0
H  H6  1  0.67000802  0.55957410  0.89259792  1  0.101651  0  0.113204  0.134625  0  0.978417  0
H  H7  1  0.66139012  0.33452075  0.12986195  1  0.08545  0  0.116088  0.137754  0  0.97418  0
C  C8  1  0.50447656  0.27031150  0.49871065  1  1.567064  0  0.223981  0.636701  0  4.142522  0
C  C9  1  0.49080088  0.45452409  0.11507466  1  0.199091  0  0.000633  0.114014  0  4.106793  0
C  C10  1  0.51190179  0.06280425  0.43236412  1  0.079788  0  -0.016796  -0.019305  0  3.941942  0
C  C11  1  0.50861852  0.49463041  0.35855965  1  1.625387  0  0.211461  0.616329  0  4.171178  0
C  C12  1  0.50261125  0.13417718  0.49735855  1  0.102368  0  -0.013394  -0.132368  0  3.977424  0
C  C13  1  0.49281009  0.06841472  0.56357757  1  0.51271  0  0.101201  0.207827  0  4.027363  0
C  C14  1  0.49361659  0.94048260  0.56538872  1  0.116911  0  0.008802  0.009669  0  4.038019  0
C  C15  1  0.50113557  0.87048183  0.49875082  1  0.023236  0  -0.008539  -0.073478  0  3.942165  0
C  C16  1  0.50685904  0.93652625  0.43298988  1  -0.057874  0  -0.015486  0.011475  0  3.945131  0
C  C17  1  0.50997363  0.92395360  0.34824050  1  0.094072  0  -0.045064  -0.011824  0  3.820196  0
C  C18  1  0.53148137  0.06596030  0.34829525  1  0.549406  0  0.030015  0.151403  0  3.847622  0
C  C19  1  0.49155482  0.44583872  0.88775897  1  0.133171  0  0.006876  0.174886  0  4.118766  0
C  C20  1  0.93512681  0.39681701  0.49940924  1  0.580441  0  0.13623  0.184803  0  3.901203  0
C  C21  1  0.93404336  0.58848185  0.54136046  1  1.210869  0  0.270036  0.363567  0  3.993595  0
C  C22  1  0.07837947  0.59236404  0.54136211  1  0.765875  0  0.165394  0.136751  0  4.013786  0
C  C23  1  0.50082275  0.73414844  0.49927035  1  1.66504  0  0.217417  0.622003  0  4.1708  0
C  C24  1  0.07418864  0.39969779  0.49698293  1  0.518082  0  0.124798  0.068733  0  3.883245  0
C  C25  1  0.08322226  0.26828590  0.46826324  1  0.772921  0  0.138123  0.284701  0  3.918766  0
C  C26  1  0.92073237  0.26571651  0.47406628  1  0.108757  0  -0.040162  -0.095527  0  3.831559  0
C  C27  1  0.50295895  0.49264715  0.64646400  1  1.62378  0  0.211511  0.623078  0  4.168094  0
C  C28  1  0.39347946  0.39009836  0.84025697  1  0.082907  0  -0.087938  -0.203636  0  3.921381  0
C  C29  1  0.39748638  0.40601862  0.76280428  1  0.009255  0  0.024521  0.155494  0  4.022502  0
C  C30  1  0.48710278  0.43812142  0.96716466  1  -0.19706  0  -0.033257  -0.084178  0  4.067533  0
C  C31  1  0.49881278  0.47575544  0.72999848  1  0.084959  0  -0.01844  -0.139223  0  3.887384  0
C  C32  1  0.59674242  0.52936967  0.77882992  1  0.040619  0  0.02201  0.154092  0  4.032581  0
C  C33  1  0.59413878  0.51535962  0.85628217  1  0.010565  0  -0.0884  -0.202609  0  3.921018  0
C  C34  1  0.48723631  0.44259710  0.03568239  1  -0.178711  0  -0.04374  -0.091794  0  4.115705  0
C  C35  1  0.39859142  0.53158400  0.15226295  1  0.126591  0  0.013082  0.037235  0  3.99406  0
C  C36  1  0.40709689  0.54594180  0.23080280  1  0.112889  0  0.017087  0.080367  0  4.020192  0
C  C37  1  0.50591128  0.48411670  0.27390238  1  0.067631  0  -0.015228  -0.123735  0  3.90421  0
C  C38  1  0.59752262  0.40951039  0.23566061  1  0.074687  0  0.021089  0.146449  0  4.030511  0
C  C39  1  0.58997370  0.39379904  0.15796287  1  0.057376  0  -0.085334  -0.187531  0  3.931551  0
N  N40  1  0.86001383  0.49360567  0.51868010  1  -1.221823  0  -0.270127  -0.235249  0  3.381063  0
N  N41  1  0.14981310  0.49751646  0.51492522  1  -1.153933  0  -0.266726  -0.165859  0  3.401321  0
Cl  Cl42  1  0.48150930  0.87125561  0.65101319  1  -0.162526  0  0.001527  -0.036519  0  1.533321  0
Cl  Cl43  1  0.72401689  0.33111439  0.28354447  1  -0.208166  0  -0.002875  -0.074613  0  1.537224  0
Cl  Cl44  1  0.64045910  0.83280501  0.30891087  1  -0.246081  0  -0.072091  -0.127992  0  1.320883  0
Cl  Cl45  1  0.15462799  0.71865477  0.57622125  1  -0.034255  0  0.106151  0.069882  0  1.633819  0
Cl  Cl46  1  0.14282900  0.24885561  0.37675354  1  -0.138905  0  0.006341  -0.065702  0  1.390983  0
Cl  Cl47  1  0.27448556  0.33375438  0.70759353  1  -0.185859  0  -0.009963  -0.064608  0  1.501454  0
Cl  Cl48  1  0.86281309  0.16583891  0.54252387  1  -0.164216  0  -0.013233  -0.039224  0  1.427471  0
Cl  Cl49  1  0.72174328  0.62135040  0.74437454  1  -0.193025  0  -0.017891  -0.081293  0  1.482849  0
Cl  Cl50  1  0.27855954  0.60739249  0.10007431  1  -0.173946  0  -0.002987  -0.058373  0  1.531722  0
Cl  Cl51  1  0.29734249  0.64427248  0.27413826  1  -0.174918  0  0.004901  -0.040595  0  1.58924  0
O  O52  1  0.39727092  0.32290402  0.51885519  1  -1.146635  0  -0.308856  -0.538425  0  2.361381  0
O  O53  1  0.61329438  0.32018167  0.47923445  1  -1.156058  0  -0.30983  -0.542336  0  2.334517  0
O  O54  1  0.39958523  0.46651739  0.38985404  1  -1.156072  0  -0.315517  -0.549255  0  2.36602  0
O  O55  1  0.61848015  0.52838633  0.39074209  1  -1.148578  0  -0.316981  -0.546925  0  2.328159  0
O  O56  1  0.39187179  0.68288020  0.47709008  1  -1.154116  0  -0.315611  -0.548515  0  2.348425  0
O  O57  1  0.60902312  0.68312620  0.52129061  1  -1.150798  0  -0.310529  -0.541564  0  2.358084  0
O  O58  1  0.39760492  0.53503977  0.61427688  1  -1.154132  0  -0.321438  -0.572196  0  2.391522  0
O  O59  1  0.61184194  0.46289654  0.61486494  1  -1.148432  0  -0.316035  -0.54639  0  2.335859  0
F  F60  1  0.43577192  0.13085208  0.30565429  1  -0.632387  0  -0.150653  -0.187591  0  1.260315  0
F  F61  1  0.87007783  0.68674582  0.56495589  1  -0.596133  0  -0.036796  -0.075169  0  1.452572  0
F  F62  1  0.14719956  0.18928457  0.51558456  1  -0.613338  0  -0.102354  -0.142457  0  1.390966  0
F  F63  1  0.48643480  0.13027512  0.62978791  1  -0.623248  0  -0.09486  -0.122555  0  1.403336  0
