# generated using pymatgen
data_FeH32C50(SN3)2
_symmetry_space_group_name_H-M   'P 1'
_cell_length_a   9.47276579
_cell_length_b   15.79236527
_cell_length_c   15.81115408
_cell_angle_alpha   72.96070125
_cell_angle_beta   72.44684674
_cell_angle_gamma   72.67571955
_symmetry_Int_Tables_number   1
_chemical_formula_structural   FeH32C50(SN3)2
_chemical_formula_sum   'Fe2 H64 C100 S4 N12'
_cell_volume   2098.51883095
_cell_formula_units_Z   2
loop_
 _symmetry_equiv_pos_site_id
 _symmetry_equiv_pos_as_xyz
  1  'x, y, z'
loop_
 _atom_site_type_symbol
 _atom_site_label
 _atom_site_symmetry_multiplicity
 _atom_site_fract_x
 _atom_site_fract_y
 _atom_site_fract_z
 _atom_site_occupancy
 _atom_site_pbe_bader_charge
 _atom_site_pbe_bader_spin_density
 _atom_site_pbe_cm5_charge
 _atom_site_pbe_ddec_charge
 _atom_site_pbe_ddec_spin_density
 _atom_site_pbe_ddec_sum_bond_order
 _atom_site_pbe_magmom
Fe  Fe0  1  0.00000476  0.99999628  0.99999579  1  1.1661  0  0.676299  0.415094  0  3.456253  0
Fe  Fe1  1  0.49995445  0.49999975  0.50004821  1  1.16345  0  0.674944  0.4122  0  3.459226  0
H  H2  1  0.24877700  0.97752533  0.26284713  1  0.102165  0  0.102493  0.112734  0  1.050428  0
H  H3  1  0.51060449  0.26268818  0.97789522  1  0.089101  0  0.102489  0.113348  0  1.050743  0
H  H4  1  0.25155544  0.23583516  0.52258224  1  0.09815  0  0.102634  0.113024  0  1.05021  0
H  H5  1  0.99032289  0.52197917  0.23607195  1  0.087363  0  0.103099  0.113149  0  1.051042  0
H  H6  1  0.75122375  0.02247421  0.73715488  1  0.102192  0  0.102491  0.112749  0  1.050426  0
H  H7  1  0.48939547  0.73731341  0.02210317  1  0.089105  0  0.102495  0.113342  0  1.050813  0
H  H8  1  0.74844198  0.76416438  0.47741468  1  0.098224  0  0.102675  0.113082  0  1.050216  0
H  H9  1  0.00969361  0.47801971  0.76391602  1  0.087531  0  0.103081  0.113132  0  1.05093  0
H  H10  1  0.24054367  0.98168850  0.10689639  1  0.106353  0  0.111646  0.080968  0  1.050548  0
H  H11  1  0.67073090  0.10680280  0.98183284  1  0.093363  0  0.111842  0.081216  0  1.049462  0
H  H12  1  0.25871441  0.39215953  0.51910262  1  0.108032  0  0.111945  0.082072  0  1.05063  0
H  H13  1  0.83010928  0.51883985  0.39231629  1  0.149217  0  0.111439  0.080664  0  1.05042  0
H  H14  1  0.75945845  0.01831036  0.89310494  1  0.106381  0  0.111654  0.080977  0  1.050552  0
H  H15  1  0.32927017  0.89319878  0.01816472  1  0.093677  0  0.111836  0.081149  0  1.049508  0
H  H16  1  0.74127301  0.60783728  0.48090893  1  0.108107  0  0.112013  0.082213  0  1.050465  0
H  H17  1  0.16989584  0.48115698  0.60768067  1  0.149423  0  0.111441  0.080679  0  1.050423  0
H  H18  1  0.77256153  0.01127691  0.18095748  1  0.104007  0  0.116479  0.089269  0  1.035359  0
H  H19  1  0.03501259  0.18106059  0.01126789  1  0.129137  0  0.116838  0.090657  0  1.03583  0
H  H20  1  0.72676739  0.32008657  0.48849768  1  0.103404  0  0.117133  0.090836  0  1.03516  0
H  H21  1  0.46462808  0.48878229  0.31989239  1  0.129213  0  0.11724  0.090633  0  1.035901  0
H  H22  1  0.22744059  0.98872196  0.81904132  1  0.104267  0  0.116481  0.089293  0  1.035341  0
H  H23  1  0.96498790  0.81893964  0.98873207  1  0.129131  0  0.116877  0.090734  0  1.035841  0
H  H24  1  0.27322046  0.67991773  0.51151160  1  0.10329  0  0.117082  0.090824  0  1.035169  0
H  H25  1  0.53537820  0.51121726  0.68010798  1  0.129245  0  0.117289  0.090717  0  1.035797  0
H  H26  1  0.76094623  0.01323833  0.33932774  1  0.101427  0  0.102242  0.111039  0  1.051087  0
H  H27  1  0.88639114  0.33940829  0.01306214  1  0.088335  0  0.101758  0.111367  0  1.05186  0
H  H28  1  0.73903263  0.16140292  0.48634295  1  0.108817  0  0.101788  0.110201  0  1.052196  0
H  H29  1  0.61321438  0.48665258  0.16124385  1  0.091914  0  0.10182  0.11115  0  1.052228  0
H  H30  1  0.23905342  0.98676122  0.66067257  1  0.101442  0  0.102235  0.111016  0  1.051115  0
H  H31  1  0.11360935  0.66059193  0.98693909  1  0.088317  0  0.101774  0.111383  0  1.051847  0
H  H32  1  0.26096607  0.83860479  0.51365008  1  0.108492  0  0.101764  0.110145  0  1.052215  0
H  H33  1  0.38679496  0.51334765  0.83874692  1  0.098215  0  0.101801  0.111147  0  1.052145  0
H  H34  1  0.02028101  0.15707810  0.29006178  1  0.052377  0  0.096027  0.091493  0  1.055369  0
H  H35  1  0.53211138  0.29016255  0.15711339  1  0.057855  0  0.097049  0.092717  0  1.054152  0
H  H36  1  0.47882196  0.21013282  0.34317058  1  0.051859  0  0.096356  0.091966  0  1.055311  0
H  H37  1  0.96844133  0.34309409  0.20998894  1  0.057314  0  0.097602  0.092617  0  1.054877  0
H  H38  1  0.97971727  0.84292212  0.70993731  1  0.05237  0  0.095989  0.0914  0  1.055351  0
H  H39  1  0.46788716  0.70983699  0.84288586  1  0.057911  0  0.097062  0.092744  0  1.054115  0
H  H40  1  0.52117605  0.78986808  0.65682710  1  0.051852  0  0.096354  0.091976  0  1.055279  0
H  H41  1  0.03155752  0.65690749  0.79000902  1  0.057268  0  0.097601  0.092614  0  1.054923  0
H  H42  1  0.04140198  0.29717573  0.32170175  1  0.070212  0  0.097819  0.09352  0  1.036507  0
H  H43  1  0.33926260  0.32186909  0.29719077  1  0.071543  0  0.097026  0.093029  0  1.036715  0
H  H44  1  0.45780576  0.17821656  0.20332577  1  0.07543  0  0.09759  0.093222  0  1.03696  0
H  H45  1  0.16110899  0.20330763  0.17792201  1  0.040517  0  0.096863  0.093064  0  1.03758  0
H  H46  1  0.95859767  0.70282381  0.67829856  1  0.070213  0  0.097822  0.093536  0  1.036481  0
H  H47  1  0.66073704  0.67813046  0.70280955  1  0.07154  0  0.096985  0.09297  0  1.03681  0
H  H48  1  0.54218978  0.82178502  0.79667280  1  0.075912  0  0.097589  0.093251  0  1.036911  0
H  H49  1  0.83888902  0.79669327  0.82207757  1  0.040486  0  0.09685  0.093048  0  1.037579  0
H  H50  1  0.02739756  0.30239595  0.48029228  1  0.108997  0  0.090548  0.0918  0  1.056243  0
H  H51  1  0.18974859  0.48050787  0.30230362  1  0.099822  0  0.090789  0.092301  0  1.055789  0
H  H52  1  0.47248510  0.01926323  0.19823061  1  0.112636  0  0.09023  0.091281  0  1.056111  0
H  H53  1  0.31016103  0.19834620  0.01888747  1  0.103088  0  0.091086  0.091766  0  1.05649  0
H  H54  1  0.97260156  0.69760495  0.51970773  1  0.10901  0  0.090552  0.091818  0  1.056195  0
H  H55  1  0.81025274  0.51949303  0.69769599  1  0.099793  0  0.090783  0.092318  0  1.055758  0
H  H56  1  0.52751265  0.98073836  0.80176755  1  0.112594  0  0.090254  0.091307  0  1.056058  0
H  H57  1  0.68983861  0.80165335  0.98111284  1  0.103084  0  0.091101  0.091785  0  1.056487  0
H  H58  1  0.00753277  0.16799437  0.60398643  1  0.095182  0  0.098762  0.099573  0  1.03065  0
H  H59  1  0.22047224  0.60412156  0.16787374  1  0.059678  0  0.098565  0.099076  0  1.032284  0
H  H60  1  0.49173542  0.89571259  0.33258507  1  0.097533  0  0.098127  0.099273  0  1.031839  0
H  H61  1  0.27989863  0.33278916  0.89542523  1  0.098591  0  0.098577  0.099424  0  1.032807  0
H  H62  1  0.99246414  0.83200653  0.39601398  1  0.095187  0  0.098805  0.099635  0  1.030678  0
H  H63  1  0.77953098  0.39587731  0.83212612  1  0.059652  0  0.098565  0.099058  0  1.032257  0
H  H64  1  0.50826618  0.10428764  0.66741280  1  0.097541  0  0.098141  0.099292  0  1.031802  0
H  H65  1  0.72010544  0.66721038  0.10457302  1  0.098447  0  0.098583  0.099444  0  1.032779  0
C  C66  1  0.00463463  0.99580216  0.31563046  1  -0.053202  0  0.011391  0.119802  0  3.993418  0
C  C67  1  0.68370954  0.31560345  0.99593771  1  -0.017997  0  0.011102  0.11861  0  3.991228  0
C  C68  1  0.49552973  0.18435347  0.50403273  1  -0.059917  0  0.012405  0.120888  0  3.995735  0
C  C69  1  0.81628188  0.50382623  0.18440665  1  -0.018102  0  0.011562  0.119287  0  3.99507  0
C  C70  1  0.99536501  0.00419738  0.68436985  1  -0.053159  0  0.011362  0.119681  0  3.993428  0
C  C71  1  0.31629206  0.68439677  0.00406142  1  -0.017994  0  0.011069  0.118464  0  3.991289  0
C  C72  1  0.50446886  0.81564879  0.49596508  1  -0.059926  0  0.012364  0.1208  0  3.995858  0
C  C73  1  0.18372303  0.49617399  0.81558871  1  -0.01749  0  0.0115  0.119028  0  3.99541  0
C  C74  1  0.13991557  0.98585108  0.24797577  1  -0.02881  0  -0.082474  -0.173912  0  3.92925  0
C  C75  1  0.62603412  0.24784380  0.98615687  1  0.001913  0  -0.082927  -0.174436  0  3.927608  0
C  C76  1  0.35999277  0.25140565  0.51428578  1  -0.027016  0  -0.083888  -0.174962  0  3.932463  0
C  C77  1  0.87451929  0.51387033  0.25157282  1  0.0234  0  -0.083962  -0.174942  0  3.931352  0
C  C78  1  0.86008545  0.01414778  0.75202576  1  -0.02897  0  -0.082457  -0.173911  0  3.929275  0
C  C79  1  0.37396695  0.75215778  0.01384132  1  0.001922  0  -0.082918  -0.174402  0  3.92774  0
C  C80  1  0.64000271  0.74859321  0.48571296  1  -0.027073  0  -0.083915  -0.175009  0  3.932604  0
C  C81  1  0.12549833  0.48612855  0.74841875  1  0.022737  0  -0.083908  -0.174753  0  3.93104  0
C  C82  1  0.13625048  0.98705925  0.16029714  1  0.449337  0  0.048196  0.088717  0  3.915709  0
C  C83  1  0.71617932  0.16018825  0.98727698  1  0.463714  0  0.048647  0.089392  0  3.91132  0
C  C84  1  0.36318032  0.33917245  0.51335715  1  0.455269  0  0.048271  0.088583  0  3.913731  0
C  C85  1  0.78440330  0.51312991  0.33929835  1  0.390355  0  0.049655  0.091205  0  3.910589  0
C  C86  1  0.86375080  0.01293893  0.83970390  1  0.449941  0  0.048194  0.088738  0  3.915624  0
C  C87  1  0.28382064  0.83981334  0.01272015  1  0.463404  0  0.048597  0.08944  0  3.911506  0
C  C88  1  0.63680709  0.66082436  0.48665503  1  0.455385  0  0.048339  0.088514  0  3.913757  0
C  C89  1  0.21561321  0.48686896  0.66069152  1  0.390209  0  0.049605  0.091119  0  3.910035  0
C  C90  1  0.87548635  0.00473191  0.20163743  1  0.485803  0  0.049505  0.094965  0  3.901824  0
C  C91  1  0.91792199  0.20164758  0.00479527  1  0.447448  0  0.04908  0.093353  0  3.903797  0
C  C92  1  0.62415353  0.29882892  0.49516173  1  0.484327  0  0.048893  0.093144  0  3.905993  0
C  C93  1  0.58192489  0.49527657  0.29876710  1  0.446888  0  0.048955  0.094033  0  3.906629  0
C  C94  1  0.12451714  0.99526627  0.79836258  1  0.485412  0  0.049504  0.094974  0  3.901976  0
C  C95  1  0.08207823  0.79835333  0.99520328  1  0.447463  0  0.049022  0.093217  0  3.903775  0
C  C96  1  0.37583347  0.70117470  0.50484663  1  0.48445  0  0.048835  0.092947  0  3.906253  0
C  C97  1  0.41808439  0.50472094  0.70122701  1  0.447169  0  0.048939  0.094141  0  3.906141  0
C  C98  1  0.87026382  0.00515458  0.29036662  1  0.009596  0  -0.083622  -0.175307  0  3.932212  0
C  C99  1  0.83404016  0.29036931  0.00517009  1  -0.015598  0  -0.082596  -0.174377  0  3.931458  0
C  C100  1  0.62971515  0.21004167  0.49461592  1  0.008335  0  -0.083736  -0.174269  0  3.93445  0
C  C101  1  0.66571199  0.49465067  0.20999743  1  -0.018491  0  -0.08295  -0.174254  0  3.933524  0
C  C102  1  0.12973582  0.99484496  0.70963369  1  0.009599  0  -0.083614  -0.175255  0  3.932301  0
C  C103  1  0.16595948  0.70963024  0.99483022  1  -0.015567  0  -0.08256  -0.174265  0  3.931368  0
C  C104  1  0.37027880  0.78996400  0.50538300  1  0.009082  0  -0.08367  -0.174114  0  3.934401  0
C  C105  1  0.33429293  0.50534955  0.78999351  1  -0.02497  0  -0.082999  -0.174366  0  3.933579  0
C  C106  1  0.00274453  0.99766400  0.40972909  1  0.002073  0  -0.000774  -0.028228  0  3.917584  0
C  C107  1  0.58969537  0.40968360  0.99770840  1  -0.027356  0  -0.000506  -0.028332  0  3.918581  0
C  C108  1  0.49754653  0.09025387  0.50217222  1  -0.009888  0  -0.001548  -0.029629  0  3.922478  0
C  C109  1  0.91020040  0.50206963  0.09031270  1  -0.034835  0  -0.001112  -0.029901  0  3.923424  0
C  C110  1  0.99725264  0.00233622  0.59027084  1  0.002101  0  -0.000734  -0.028074  0  3.917533  0
C  C111  1  0.41030596  0.59031731  0.00229058  1  -0.027159  0  -0.000464  -0.028223  0  3.91858  0
C  C112  1  0.50245649  0.90974840  0.49782415  1  -0.010169  0  -0.001503  -0.029548  0  3.922474  0
C  C113  1  0.08980399  0.49793196  0.90968362  1  -0.034686  0  -0.001094  -0.029853  0  3.923246  0
C  C114  1  0.02291441  0.15844141  0.35793897  1  -0.048213  0  -0.092057  -0.129587  0  3.989801  0
C  C115  1  0.46013530  0.35801335  0.15839289  1  -0.112397  0  -0.09539  -0.13407  0  3.993933  0
C  C116  1  0.47614292  0.14215931  0.34187050  1  -0.045573  0  -0.092678  -0.130854  0  3.990677  0
C  C117  1  0.04033153  0.34185416  0.14199199  1  -0.110419  0  -0.094893  -0.133452  0  3.99283  0
C  C118  1  0.97708386  0.84155881  0.64205823  1  -0.051496  0  -0.091989  -0.129434  0  3.989817  0
C  C119  1  0.53986350  0.64198551  0.84160714  1  -0.112467  0  -0.095378  -0.13406  0  3.993942  0
C  C120  1  0.52385731  0.85784159  0.65812741  1  -0.045518  0  -0.09273  -0.130951  0  3.990581  0
C  C121  1  0.95966928  0.65814811  0.85800541  1  -0.110496  0  -0.094883  -0.133419  0  3.992886  0
C  C122  1  0.03193450  0.23638918  0.37578793  1  -0.083258  0  -0.093963  -0.08009  0  4.014798  0
C  C123  1  0.35545556  0.37591314  0.23636254  1  -0.00934  0  -0.092806  -0.077929  0  4.016618  0
C  C124  1  0.46724778  0.12415712  0.26407129  1  -0.082419  0  -0.093268  -0.078711  0  4.014207  0
C  C125  1  0.14498715  0.26408307  0.12390162  1  0.024367  0  -0.092882  -0.078048  0  4.016927  0
C  C126  1  0.96806488  0.76361104  0.62421160  1  -0.083271  0  -0.093974  -0.080114  0  4.014807  0
C  C127  1  0.64454271  0.62408709  0.76363656  1  -0.009313  0  -0.092808  -0.0779  0  4.016618  0
C  C128  1  0.53274997  0.87584447  0.73592751  1  -0.082668  0  -0.093236  -0.078733  0  4.014154  0
C  C129  1  0.85501307  0.73591784  0.87609756  1  0.024421  0  -0.092885  -0.078083  0  4.017014  0
C  C130  1  0.02676636  0.23929496  0.46537165  1  -0.042987  0  -0.095246  -0.081394  0  4.023229  0
C  C131  1  0.26841846  0.46552732  0.23922517  1  -0.03247  0  -0.095071  -0.082555  0  4.025888  0
C  C132  1  0.47266216  0.03439889  0.26125359  1  -0.040533  0  -0.09523  -0.081983  0  4.023654  0
C  C133  1  0.23193252  0.26136838  0.03409462  1  -0.030579  0  -0.095692  -0.082311  0  4.027549  0
C  C134  1  0.97323498  0.76070594  0.53462732  1  -0.043097  0  -0.095291  -0.081461  0  4.023269  0
C  C135  1  0.73158450  0.53447223  0.76077328  1  -0.032375  0  -0.095014  -0.082534  0  4.025805  0
C  C136  1  0.52733781  0.96560269  0.73874353  1  -0.040752  0  -0.095226  -0.081968  0  4.023679  0
C  C137  1  0.76806770  0.73863253  0.96590456  1  -0.030587  0  -0.095684  -0.082272  0  4.027573  0
C  C138  1  0.01550247  0.16368926  0.53505231  1  -0.076896  0  -0.091613  -0.129112  0  3.966718  0
C  C139  1  0.28553455  0.53515857  0.16357332  1  -0.074979  0  -0.090765  -0.126833  0  3.970298  0
C  C140  1  0.48361436  0.96475144  0.33682974  1  -0.084787  0  -0.090532  -0.128289  0  3.966209  0
C  C141  1  0.21500492  0.33699396  0.96452223  1  -0.0844  0  -0.090606  -0.128354  0  3.969112  0
C  C142  1  0.98449470  0.83631096  0.46494825  1  -0.07682  0  -0.091614  -0.129134  0  3.966887  0
C  C143  1  0.71446704  0.46484166  0.83642580  1  -0.075074  0  -0.09079  -0.12684  0  3.970289  0
C  C144  1  0.51638724  0.03524878  0.66316749  1  -0.084692  0  -0.090571  -0.128325  0  3.966354  0
C  C145  1  0.78499915  0.66300559  0.03547602  1  -0.084464  0  -0.090599  -0.128338  0  3.969192  0
C  C146  1  0.01056007  0.08022544  0.51917901  1  -0.039278  0  -0.004757  0.032564  0  3.986685  0
C  C147  1  0.38978754  0.51922203  0.08013632  1  0.008072  0  -0.007264  0.029689  0  3.99123  0
C  C148  1  0.48861127  0.98079596  0.42009171  1  -0.038332  0  -0.0058  0.031726  0  3.988507  0
C  C149  1  0.11068215  0.42019732  0.98069452  1  -0.023402  0  -0.007157  0.031187  0  3.990611  0
C  C150  1  0.98943573  0.91977546  0.48082096  1  -0.039156  0  -0.004745  0.032601  0  3.986678  0
C  C151  1  0.61021431  0.48077751  0.91986233  1  0.008246  0  -0.007228  0.029775  0  3.991298  0
C  C152  1  0.51139338  0.01920495  0.57990476  1  -0.038676  0  -0.00575  0.03176  0  3.988567  0
C  C153  1  0.88932251  0.57980358  0.01930259  1  -0.022971  0  -0.007163  0.031053  0  3.990812  0
C  C154  1  0.01345035  0.07767983  0.42772084  1  -0.012893  0  -0.008407  0.02892  0  3.991934  0
C  C155  1  0.48070760  0.42774823  0.07763516  1  -0.03915  0  -0.005166  0.032012  0  3.993028  0
C  C156  1  0.48593574  0.07232619  0.42247673  1  -0.011392  0  -0.007529  0.030249  0  3.994267  0
C  C157  1  0.01963112  0.42248674  0.07224266  1  -0.041763  0  -0.005497  0.032503  0  3.994001  0
C  C158  1  0.98654597  0.92231971  0.57228007  1  -0.009669  0  -0.00841  0.028851  0  3.991983  0
C  C159  1  0.51929178  0.57225199  0.92236310  1  -0.03911  0  -0.005176  0.031934  0  3.993139  0
C  C160  1  0.51406780  0.92767471  0.57751995  1  -0.011324  0  -0.007484  0.030391  0  3.994128  0
C  C161  1  0.98037132  0.57751417  0.92775422  1  -0.041662  0  -0.005484  0.032539  0  3.993937  0
C  C162  1  0.28796952  0.07926899  0.92076705  1  0.534544  0  0.134366  0.23773  0  4.319233  0
C  C163  1  0.71203396  0.92072920  0.07923044  1  0.534169  0  0.134373  0.237638  0  4.319392  0
C  C164  1  0.21150403  0.57775922  0.42222224  1  0.540938  0  0.135478  0.237883  0  4.312718  0
C  C165  1  0.78848618  0.42223896  0.57779536  1  0.541838  0  0.135735  0.238261  0  4.312987  0
S  S166  1  0.43675385  0.12259303  0.87728934  1  0.02034  0  -0.193179  -0.369401  0  2.265892  0
S  S167  1  0.56324801  0.87740652  0.12270994  1  0.020366  0  -0.193242  -0.369451  0  2.26593  0
S  S168  1  0.06262554  0.62055612  0.37953375  1  0.011048  0  -0.193353  -0.370217  0  2.270124  0
S  S169  1  0.93738849  0.37944344  0.62046270  1  0.010971  0  -0.193376  -0.370313  0  2.270047  0
N  N170  1  0.00617844  0.99603879  0.13662143  1  -1.208731  0  -0.297878  -0.151198  0  3.510291  0
N  N171  1  0.86102314  0.13658486  0.99613473  1  -1.184688  0  -0.29849  -0.151465  0  3.506039  0
N  N172  1  0.49319616  0.36322851  0.50420472  1  -1.21018  0  -0.297724  -0.151367  0  3.511098  0
N  N173  1  0.63937257  0.50420669  0.36325591  1  -1.184047  0  -0.299657  -0.153101  0  3.507789  0
N  N174  1  0.99382531  0.00395872  0.86338064  1  -1.20909  0  -0.297876  -0.151211  0  3.510429  0
N  N175  1  0.13897740  0.86341808  0.00386190  1  -1.184709  0  -0.298464  -0.151395  0  3.506114  0
N  N176  1  0.50678377  0.63676762  0.49582167  1  -1.210675  0  -0.297768  -0.151257  0  3.51154  0
N  N177  1  0.36065611  0.49579219  0.63672417  1  -1.184673  0  -0.299836  -0.153041  0  3.508494  0
N  N178  1  0.17906826  0.04745144  0.95258000  1  -1.327283  0  -0.427662  -0.448713  0  3.557557  0
N  N179  1  0.82093549  0.95254606  0.04741638  1  -1.326932  0  -0.427592  -0.448503  0  3.557534  0
N  N180  1  0.32071734  0.54663306  0.45338969  1  -1.32366  0  -0.4267  -0.447156  0  3.553075  0
N  N181  1  0.67925569  0.45336375  0.54664660  1  -1.324571  0  -0.427004  -0.447588  0  3.553768  0
