# generated using pymatgen
data_MnH10C14SO7
_symmetry_space_group_name_H-M   'P 1'
_cell_length_a   4.75445637
_cell_length_b   12.22172249
_cell_length_c   14.19121402
_cell_angle_alpha   110.57592654
_cell_angle_beta   97.40127351
_cell_angle_gamma   104.04666968
_symmetry_Int_Tables_number   1
_chemical_formula_structural   MnH10C14SO7
_chemical_formula_sum   'Mn2 H20 C28 S2 O14'
_cell_volume   727.81800055
_cell_formula_units_Z   2
loop_
 _symmetry_equiv_pos_site_id
 _symmetry_equiv_pos_as_xyz
  1  'x, y, z'
loop_
 _atom_site_type_symbol
 _atom_site_label
 _atom_site_symmetry_multiplicity
 _atom_site_fract_x
 _atom_site_fract_y
 _atom_site_fract_z
 _atom_site_occupancy
 _atom_site_pbe_cm5_charge
 _atom_site_pbe_ddec_charge
 _atom_site_pbe_ddec_spin_density
 _atom_site_pbe_ddec_sum_bond_order
 _atom_site_pbe_magmom
Mn  Mn0  1  0.91454085  0.47913030  0.10451483  1  0.631455  1.125924  4.630262  2.275266  4.451
Mn  Mn1  1  0.08542726  0.52088980  0.89547200  1  0.631495  1.125942  4.630215  2.275361  4.451
H  H2  1  0.81434808  0.31463854  0.19000472  1  0.303736  0.38533  0.000559  0.946618  0.001
H  H3  1  0.18566101  0.68539077  0.80998295  1  0.303744  0.385275  0.000559  0.946758  0.001
H  H4  1  0.15343492  0.32417184  0.19422374  1  0.306335  0.403972  0.001154  0.917216  0.002
H  H5  1  0.84660638  0.67593377  0.80578405  1  0.306439  0.404134  0.001154  0.916926  0.002
H  H6  1  0.28080220  0.76360118  0.34500203  1  0.107105  0.108809  -0.000243  1.021305  0.0
H  H7  1  0.71921692  0.23639421  0.65498299  1  0.107075  0.10885  -0.000242  1.021389  0.0
H  H8  1  0.26296315  0.85393291  0.53072437  1  0.108995  0.114784  6.2e-05  0.996153  0.0
H  H9  1  0.73699150  0.14605797  0.46926471  1  0.109002  0.114823  6.2e-05  0.996284  0.0
H  H10  1  0.74689617  0.62280127  0.59647753  1  0.107557  0.1112  2.5e-05  1.015356  0.0
H  H11  1  0.25312028  0.37721146  0.40353706  1  0.107489  0.111074  2.5e-05  1.015174  0.0
H  H12  1  0.78053224  0.53953406  0.41119080  1  0.107389  0.115443  -0.0001  0.996389  0.0
H  H13  1  0.21948834  0.46045496  0.58883256  1  0.107385  0.11535  -0.0001  0.996587  0.0
H  H14  1  0.43583015  0.03030921  0.70646222  1  0.107142  0.111548  2.1e-05  0.998646  0.0
H  H15  1  0.56412223  0.96968637  0.29355161  1  0.107095  0.111427  2.1e-05  0.998681  0.0
H  H16  1  0.74625036  0.24551718  0.81977829  1  0.110231  0.118437  -0.000539  1.060018  0.0
H  H17  1  0.25376164  0.75449824  0.18023617  1  0.110263  0.118497  -0.000537  1.060446  0.0
H  H18  1  0.33337324  0.11130612  0.97473543  1  0.110054  0.118283  -0.000149  0.986906  0.0
H  H19  1  0.66676609  0.88867237  0.02522459  1  0.11007  0.11827  -0.000149  0.986977  0.0
H  H20  1  0.01271485  0.89458644  0.86613329  1  0.107743  0.110523  0.000196  1.029301  0.0
H  H21  1  0.98734668  0.10539433  0.13383566  1  0.10787  0.110782  0.000196  1.029301  0.0
C  C22  1  0.55341668  0.59524577  0.25637818  1  0.226658  0.596055  0.028273  4.182339  0.025
C  C23  1  0.44656871  0.40473180  0.74361216  1  0.22676  0.596171  0.028261  4.182049  0.025
C  C24  1  0.53810793  0.64840179  0.36788618  1  -0.004157  -0.015778  0.000893  3.932677  0.0
C  C25  1  0.46190578  0.35158298  0.63211623  1  -0.004102  -0.015703  0.000887  3.932786  0.0
C  C26  1  0.39188978  0.73690273  0.40146867  1  -0.078295  -0.082832  0.002976  3.954033  0.003
C  C27  1  0.60809425  0.26308820  0.59854223  1  -0.078485  -0.083215  0.002977  3.954924  0.003
C  C28  1  0.38190728  0.78723564  0.50497688  1  -0.086204  -0.099885  0.00029  3.996968  0.0
C  C29  1  0.61806331  0.21275437  0.49504273  1  -0.086119  -0.0998  0.000288  3.997461  0.0
C  C30  1  0.51353473  0.74593361  0.57453357  1  -0.022104  -0.080628  0.004578  3.969418  0.003
C  C31  1  0.48641483  0.25406911  0.42549655  1  -0.021847  -0.080312  0.004581  3.968444  0.003
C  C32  1  0.65316937  0.65564244  0.54180801  1  -0.079902  -0.071451  -0.000367  3.990151  -0.001
C  C33  1  0.34680428  0.34437207  0.45822053  1  -0.080149  -0.071681  -0.000368  3.990736  -0.001
C  C34  1  0.66910498  0.60869005  0.43867794  1  -0.079896  -0.090307  0.004155  3.951374  0.003
C  C35  1  0.33088020  0.39129989  0.56133414  1  -0.079742  -0.089908  0.004153  3.951983  0.003
C  C36  1  0.71459789  0.95059695  0.77757180  1  -0.020718  -0.077699  0.007279  3.975241  0.006
C  C37  1  0.28536959  0.04936530  0.22241939  1  -0.02074  -0.077545  0.007277  3.97496  0.006
C  C38  1  0.63670175  0.04813611  0.76331097  1  -0.08554  -0.099568  -0.000205  3.998066  -0.001
C  C39  1  0.36326150  0.95184392  0.23669000  1  -0.085624  -0.099626  -0.000206  3.998611  -0.001
C  C40  1  0.80953902  0.16815358  0.82664937  1  -0.076897  -0.088101  0.00543  3.932717  0.004
C  C41  1  0.19046445  0.83183621  0.17335752  1  -0.076909  -0.08812  0.005429  3.933663  0.004
C  C42  1  0.06249827  0.19061075  0.90199551  1  -0.000458  -0.015853  0.000221  3.926106  0.0
C  C43  1  0.93755783  0.80938565  0.09800013  1  -0.000497  -0.015817  0.000219  3.926252  0.0
C  C44  1  0.13713247  0.09195529  0.91531801  1  -0.074525  -0.080806  0.007014  3.933099  0.006
C  C45  1  0.86291591  0.90801773  0.08466450  1  -0.074386  -0.080523  0.007005  3.933162  0.006
C  C46  1  0.96100333  0.97141570  0.85434974  1  -0.080827  -0.076723  -0.00175  3.976959  -0.001
C  C47  1  0.03901081  0.02855781  0.14561503  1  -0.081068  -0.077251  -0.00175  3.977437  -0.001
C  C48  1  0.24778929  0.31992523  0.97051754  1  0.243981  0.617098  0.044285  4.12051  0.039
C  C49  1  0.75220497  0.68008747  0.02949058  1  0.244016  0.617074  0.044261  4.120699  0.039
S  S50  1  0.46783043  0.80011343  0.70343376  1  0.485853  0.975486  0.00225  5.664182  0.0
S  S51  1  0.53220377  0.19988884  0.29656374  1  0.485918  0.975182  0.002249  5.662178  0.0
O  O52  1  0.97667539  0.33172269  0.15593520  1  -0.563659  -0.757426  0.037781  2.102188  0.023
O  O53  1  0.02332401  0.66832302  0.84405365  1  -0.563875  -0.757559  0.037776  2.101856  0.023
O  O54  1  0.35864520  0.59857952  0.18809142  1  -0.304076  -0.578186  0.036671  2.355592  0.019
O  O55  1  0.64129908  0.40144867  0.81193113  1  -0.304085  -0.578055  0.036666  2.355559  0.019
O  O56  1  0.76793569  0.55155689  0.23913592  1  -0.308785  -0.574971  0.056457  2.349752  0.04
O  O57  1  0.23203445  0.44841548  0.76085735  1  -0.308937  -0.575259  0.056459  2.349546  0.04
O  O58  1  0.12719065  0.40548559  0.97540710  1  -0.307871  -0.617114  0.071086  2.467912  0.031
O  O59  1  0.87270415  0.59448297  0.02453735  1  -0.308104  -0.61724  0.071117  2.468253  0.031
O  O60  1  0.50343902  0.33689902  0.02112175  1  -0.285708  -0.531091  0.06039  2.314079  0.047
O  O61  1  0.49657144  0.66313102  0.97890871  1  -0.285615  -0.531075  0.060387  2.314274  0.047
O  O62  1  0.53547046  0.71733092  0.75045178  1  -0.299923  -0.53562  0.00026  2.255427  0.001
O  O63  1  0.46452515  0.28268062  0.24954685  1  -0.299872  -0.535572  0.00026  2.255082  0.001
O  O64  1  0.16961263  0.81123343  0.69613895  1  -0.304627  -0.538863  0.000824  2.316175  0.001
O  O65  1  0.83041833  0.18874650  0.30388497  1  -0.304528  -0.53858  0.000825  2.315773  0.001
