# generated using pymatgen
data_ZnH24C18NO4
_symmetry_space_group_name_H-M   'P 1'
_cell_length_a   9.51351038
_cell_length_b   10.82669000
_cell_length_c   16.07133678
_cell_angle_alpha   90.55516569
_cell_angle_beta   89.95793802
_cell_angle_gamma   89.56796461
_symmetry_Int_Tables_number   1
_chemical_formula_structural   ZnH24C18NO4
_chemical_formula_sum   'Zn2 H48 C36 N2 O8'
_cell_volume   1655.21961656
_cell_formula_units_Z   2
loop_
 _symmetry_equiv_pos_site_id
 _symmetry_equiv_pos_as_xyz
  1  'x, y, z'
loop_
 _atom_site_type_symbol
 _atom_site_label
 _atom_site_symmetry_multiplicity
 _atom_site_fract_x
 _atom_site_fract_y
 _atom_site_fract_z
 _atom_site_occupancy
 _atom_site_pbe_bader_charge
 _atom_site_pbe_bader_spin_density
 _atom_site_pbe_cm5_charge
 _atom_site_pbe_ddec_charge
 _atom_site_pbe_ddec_spin_density
 _atom_site_pbe_ddec_sum_bond_order
 _atom_site_pbe_magmom
Zn  Zn0  1  0.35310189  0.49971088  0.50240197  1  1.253237  0  0.671944  0.807613  0  2.391843  0
Zn  Zn1  1  0.64562789  0.50085499  0.50124705  1  1.255001  0  0.671518  0.806292  0  2.378673  0
H  H2  1  0.46566558  0.69063595  0.07423517  1  0.023643  0  0.092893  0.090736  0  0.978472  0
H  H3  1  0.12447682  0.68707803  0.54132846  1  0.080382  0  0.111856  0.099664  0  0.979292  0
H  H4  1  0.87525248  0.36640883  0.59432871  1  0.072159  0  0.114069  0.101683  0  0.98034  0
H  H5  1  0.12489591  0.36104651  0.59255809  1  0.052693  0  0.114476  0.101918  0  0.963701  0
H  H6  1  0.87651905  0.45446522  0.37662925  1  0.072537  0  0.114985  0.105325  0  0.95843  0
H  H7  1  0.12605295  0.45767117  0.37604942  1  0.100672  0  0.113429  0.106342  0  0.972716  0
H  H8  1  0.87365833  0.61467349  0.39724971  1  0.046843  0  0.114679  0.103495  0  0.960008  0
H  H9  1  0.12324379  0.61713784  0.40004411  1  0.08086  0  0.115439  0.10406  0  0.958254  0
H  H10  1  0.87358339  0.31009244  0.49069892  1  0.073564  0  0.111986  0.101977  0  0.986106  0
H  H11  1  0.12297826  0.30919090  0.48796387  1  0.07008  0  0.113253  0.101321  0  0.972618  0
H  H12  1  0.46714600  0.68766805  0.92860780  1  -0.002435  0  0.093234  0.091467  0  0.977965  0
H  H13  1  0.70470244  0.58628442  0.07441976  1  0.005297  0  0.09247  0.090414  0  0.979434  0
H  H14  1  0.70668314  0.58152592  0.92867089  1  0.065455  0  0.09236  0.090284  0  0.979471  0
H  H15  1  0.71784719  0.41879167  0.92971610  1  0.013545  0  0.092185  0.089338  0  0.983775  0
H  H16  1  0.31281065  0.59826934  0.92839694  1  0.040296  0  0.093192  0.09124  0  0.979195  0
H  H17  1  0.71804905  0.42366767  0.07551582  1  0.044108  0  0.092278  0.090043  0  0.979296  0
H  H18  1  0.31157973  0.60082225  0.07411037  1  0.031895  0  0.092829  0.090501  0  0.979036  0
H  H19  1  0.32972301  0.36416017  0.92911835  1  0.012424  0  0.093393  0.090705  0  0.984597  0
H  H20  1  0.49580997  0.29072035  0.92930701  1  0.030636  0  0.093467  0.092129  0  0.981276  0
H  H21  1  0.32950979  0.36685871  0.07482316  1  0.009595  0  0.093245  0.091592  0  0.978968  0
H  H22  1  0.49599154  0.29384839  0.07497769  1  0.025518  0  0.093008  0.090816  0  0.97805  0
H  H23  1  0.27640205  0.91064520  0.53415884  1  -0.010347  0  0.084068  0.07735  0  0.998865  0
H  H24  1  0.27524671  0.12363385  0.50463223  1  0.01722  0  0.088165  0.08497  0  1.023838  0
H  H25  1  0.69743664  0.87496980  0.44032699  1  0.043606  0  0.087237  0.084791  0  0.996805  0
H  H26  1  0.30517243  0.88892544  0.42670773  1  0.018714  0  0.087072  0.086044  0  0.992294  0
H  H27  1  0.55470995  0.90004654  0.37202004  1  0.026912  0  0.088924  0.086786  0  0.975063  0
H  H28  1  0.35023490  0.09881878  0.40586898  1  -0.001427  0  0.088318  0.087018  0  0.974204  0
H  H29  1  0.60712639  0.11113094  0.38275072  1  0.011304  0  0.089517  0.08852  0  0.982428  0
H  H30  1  0.26882600  0.21842288  0.78656281  1  0.015811  0  0.081922  0.107747  0  1.013158  0
H  H31  1  0.20146910  0.06716026  0.77232491  1  0.012304  0  0.079987  0.103512  0  1.020681  0
H  H32  1  0.30595087  0.10234138  0.86094849  1  -0.002177  0  0.079515  0.102589  0  1.013831  0
H  H33  1  0.45100795  0.98557421  0.75644486  1  0.00157  0  0.082544  0.066388  0  0.994684  0
H  H34  1  0.51448467  0.13745410  0.76956205  1  0.005061  0  0.086376  0.07543  0  0.999027  0
H  H35  1  0.72211723  0.08658936  0.46617854  1  0.021316  0  0.086436  0.082135  0  1.012017  0
H  H36  1  0.38339583  0.20564114  0.64381441  1  0.044456  0  0.088686  0.095462  0  1.011311  0
H  H37  1  0.31385360  0.05649540  0.63102488  1  -0.005031  0  0.085322  0.08057  0  1.009828  0
H  H38  1  0.93086657  0.18857170  0.69810696  1  -0.004486  0  0.08087  0.107193  0  1.01078  0
H  H39  1  0.80059266  0.21389595  0.77546097  1  0.008429  0  0.081416  0.105365  0  1.015316  0
H  H40  1  0.92215196  0.08901074  0.78491713  1  0.009293  0  0.081247  0.104555  0  1.016582  0
H  H41  1  0.68838733  0.01049575  0.73683843  1  0.018653  0  0.085909  0.072059  0  1.009679  0
H  H42  1  0.81697699  0.98518085  0.66023238  1  -0.009506  0  0.082116  0.067723  0  0.989719  0
H  H43  1  0.73962019  0.15578225  0.57771915  1  0.006514  0  0.084991  0.07849  0  1.036334  0
H  H44  1  0.63976525  0.22180327  0.65758257  1  0.038394  0  0.088242  0.094069  0  1.000814  0
H  H45  1  0.48683818  0.88448325  0.63636772  1  0.004696  0  0.091153  0.093422  0  0.990613  0
H  H46  1  0.65600941  0.89738319  0.59346255  1  0.063005  0  0.091199  0.094063  0  1.015927  0
H  H47  1  0.87250940  0.58285860  0.62233783  1  0.091328  0  0.11421  0.104451  0  0.961197  0
H  H48  1  0.12284125  0.57923759  0.62349395  1  0.08002  0  0.112774  0.10472  0  0.971627  0
H  H49  1  0.87423994  0.68931113  0.53946204  1  0.039177  0  0.111204  0.098788  0  0.98047  0
C  C50  1  0.49447092  0.73879603  0.50248186  1  1.532937  0  0.223365  0.59209  0  4.093687  0
C  C51  1  0.61634421  0.06528444  0.44322340  1  0.005465  0  -0.16466  -0.174707  0  3.896187  0
C  C52  1  0.54675419  0.92845308  0.58619712  1  -0.068737  0  -0.157334  -0.228827  0  3.799653  0
C  C53  1  0.49413907  0.87946708  0.50127851  1  0.069761  0  -0.018399  0.029418  0  3.813208  0
C  C54  1  0.50425472  0.12017701  0.50275987  1  0.060181  0  -0.011369  -0.028819  0  3.720601  0
C  C55  1  0.50057171  0.49569779  0.66459848  1  1.711307  0  0.216623  0.671726  0  4.242435  0
C  C56  1  0.53335164  0.07194907  0.59443646  1  0.053002  0  -0.001633  0.135458  0  3.625328  0
C  C57  1  0.91732361  0.60080282  0.56068846  1  0.29377  0  -0.067443  -0.087346  0  3.8113  0
C  C58  1  0.08009586  0.59906072  0.56162203  1  0.178841  0  -0.068549  -0.091218  0  3.811317  0
C  C59  1  0.91811038  0.38106617  0.53181004  1  0.294608  0  -0.071048  -0.100082  0  3.824687  0
C  C60  1  0.08046850  0.37949193  0.53087744  1  0.18887  0  -0.066793  -0.087865  0  3.823932  0
C  C61  1  0.43693334  0.37292142  0.05010427  1  0.008641  0  -0.153556  -0.184887  0  3.848726  0
C  C62  1  0.91856849  0.52652801  0.41786391  1  0.320167  0  -0.067107  -0.087226  0  3.822334  0
C  C63  1  0.08088171  0.52737088  0.41834873  1  0.137568  0  -0.068979  -0.091906  0  3.820337  0
C  C64  1  0.50630502  0.26124281  0.50058821  1  1.529419  0  0.224173  0.592831  0  4.087105  0
C  C65  1  0.49755114  0.49887816  0.33928964  1  1.72448  0  0.214807  0.671704  0  4.245373  0
C  C66  1  0.42010530  0.60320875  0.95338769  1  -0.019521  0  -0.153526  -0.184205  0  3.848843  0
C  C67  1  0.65745525  0.49832320  0.95387926  1  -0.057069  0  -0.154988  -0.186559  0  3.85558  0
C  C68  1  0.65688075  0.50115952  0.05016027  1  -0.020745  0  -0.155445  -0.186092  0  3.852679  0
C  C69  1  0.41929559  0.60510609  0.04963728  1  0.000841  0  -0.152767  -0.182473  0  3.847224  0
C  C70  1  0.49921416  0.49727312  0.24927641  1  0.220322  0  -0.067229  -0.225011  0  4.018355  0
C  C71  1  0.50515252  0.49025417  0.92035087  1  0.191533  0  -0.000546  0.169533  0  3.904518  0
C  C72  1  0.43708535  0.37096624  0.95381996  1  0.004551  0  -0.15246  -0.183221  0  3.843533  0
C  C73  1  0.50429826  0.49360121  0.08335547  1  0.192754  0  -0.000604  0.172315  0  3.899214  0
C  C74  1  0.40776961  0.10697132  0.65196014  1  -0.023655  0  -0.169636  -0.213026  0  3.882903  0
C  C75  1  0.42561414  0.08358840  0.74520630  1  -0.000391  0  -0.169035  -0.091069  0  3.965982  0
C  C76  1  0.29323482  0.11962435  0.79402901  1  -0.044515  0  -0.247835  -0.355729  0  3.993226  0
C  C77  1  0.66934798  0.13207204  0.62939415  1  -0.035431  0  -0.169462  -0.213841  0  3.862749  0
C  C78  1  0.75655600  0.05843452  0.69255607  1  0.015239  0  -0.170721  -0.092315  0  3.971501  0
C  C79  1  0.85813636  0.14162406  0.74048712  1  -0.040586  0  -0.246382  -0.351873  0  3.986611  0
C  C80  1  0.50222407  0.49562267  0.17363678  1  -0.659008  0  -0.033786  -0.056233  0  4.06301  0
C  C81  1  0.50421761  0.48907407  0.83008142  1  -0.637399  0  -0.030807  -0.05175  0  4.054959  0
C  C82  1  0.50227398  0.49056628  0.75446173  1  0.205276  0  -0.06535  -0.224654  0  4.013935  0
C  C83  1  0.34810802  0.93331521  0.48281981  1  0.012484  0  -0.168022  -0.182467  0  3.917238  0
C  C84  1  0.59683025  0.92435790  0.43377404  1  -0.065963  0  -0.160542  -0.171185  0  3.868401  0
C  C85  1  0.35983271  0.07403023  0.47194993  1  -0.005728  0  -0.166521  -0.178622  0  3.896246  0
N  N86  1  0.86453631  0.50300814  0.50314522  1  -0.995245  0  -0.341999  -0.102898  0  3.460639  0
N  N87  1  0.13403490  0.50142498  0.50363115  1  -0.96341  0  -0.341529  -0.103512  0  3.457855  0
O  O88  1  0.38045690  0.68348575  0.48471747  1  -1.173821  0  -0.314981  -0.545911  0  2.359237  0
O  O89  1  0.60992222  0.68569384  0.52127275  1  -1.178394  0  -0.317651  -0.554086  0  2.354726  0
O  O90  1  0.38432259  0.52525375  0.63064435  1  -1.15722  0  -0.315645  -0.551321  0  2.259798  0
O  O91  1  0.61604145  0.47014454  0.62760553  1  -1.156334  0  -0.312499  -0.550623  0  2.283292  0
O  O92  1  0.39296707  0.31763840  0.52061493  1  -1.178867  0  -0.313777  -0.551731  0  2.407306  0
O  O93  1  0.61966983  0.31435023  0.47953154  1  -1.166653  0  -0.312495  -0.545295  0  2.353303  0
O  O94  1  0.38310003  0.46876655  0.37455779  1  -1.154641  0  -0.313938  -0.549692  0  2.272107  0
O  O95  1  0.61131197  0.53040632  0.37517465  1  -1.151493  0  -0.313534  -0.549967  0  2.283575  0
