# generated using pymatgen
data_AlH5C14ClO5F2
_symmetry_space_group_name_H-M   'P 1'
_cell_length_a   6.60867817
_cell_length_b   11.20170168
_cell_length_c   17.62404225
_cell_angle_alpha   83.48751507
_cell_angle_beta   81.31578916
_cell_angle_gamma   71.44265698
_symmetry_Int_Tables_number   1
_chemical_formula_structural   AlH5C14ClO5F2
_chemical_formula_sum   'Al2 H10 C28 Cl2 O10 F4'
_cell_volume   1219.68660278
_cell_formula_units_Z   2
loop_
 _symmetry_equiv_pos_site_id
 _symmetry_equiv_pos_as_xyz
  1  'x, y, z'
loop_
 _atom_site_type_symbol
 _atom_site_label
 _atom_site_symmetry_multiplicity
 _atom_site_fract_x
 _atom_site_fract_y
 _atom_site_fract_z
 _atom_site_occupancy
 _atom_site_pbe_bader_charge
 _atom_site_pbe_bader_spin_density
 _atom_site_pbe_cm5_charge
 _atom_site_pbe_ddec_charge
 _atom_site_pbe_ddec_spin_density
 _atom_site_pbe_ddec_sum_bond_order
 _atom_site_pbe_magmom
Al  Al0  1  0.49354471  0.50212973  0.50244815  1  2.50257  0  0.395366  1.644229  0  2.581589  0
Al  Al1  1  0.99577608  0.49887738  0.50158545  1  2.502092  0  0.397212  1.634398  0  2.579846  0
H  H2  1  0.30024599  0.35604900  0.56023900  1  0.640005  0  0.356565  0.438824  0  0.843786  0
H  H3  1  0.68672892  0.65422777  0.46114327  1  0.596545  0  0.34522  0.420158  0  0.879298  0
H  H4  1  0.60473796  0.57675036  0.27503570  1  0.089963  0  0.11285  0.123218  0  0.989162  0
H  H5  1  0.68852157  0.57659696  0.13174560  1  0.102403  0  0.106488  0.112736  0  0.998089  0
H  H6  1  0.10054990  0.41380707  0.26630742  1  0.110277  0  0.11333  0.131551  0  0.991298  0
H  H7  1  0.89571573  0.59155524  0.73258746  1  0.116014  0  0.115434  0.136604  0  0.984037  0
H  H8  1  0.40228897  0.41641033  0.73384477  1  0.088523  0  0.112876  0.122509  0  0.985131  0
H  H9  1  0.33724017  0.41395841  0.87773100  1  0.103747  0  0.107223  0.113616  0  0.994332  0
H  H10  1  0.20930293  0.23768212  0.39430143  1  0.093485  0  0.11998  0.152621  0  1.007276  0
H  H11  1  0.41560674  0.76808825  0.39434388  1  0.142608  0  0.120509  0.146944  0  1.012468  0
C  C12  1  0.85686374  0.27630610  0.49296538  1  1.628321  0  0.276663  0.672145  0  4.081607  0
C  C13  1  0.69882364  0.49879924  0.64004772  1  1.565524  0  0.269165  0.641193  0  4.098431  0
C  C14  1  0.12959208  0.72682274  0.50393248  1  1.678055  0  0.276983  0.675076  0  4.078695  0
C  C15  1  0.29310506  0.50158804  0.36374278  1  1.5557  0  0.267073  0.635462  0  4.098405  0
C  C16  1  0.34629640  0.49679557  0.27890697  1  -0.015997  0  -0.012935  -0.029835  0  3.980464  0
C  C17  1  0.51395318  0.54137633  0.24117434  1  0.086295  0  -0.080194  -0.091691  0  3.972901  0
C  C18  1  0.56079302  0.54091100  0.16189982  1  -0.102729  0  -0.077005  -0.104849  0  3.945002  0
C  C19  1  0.44508649  0.49344644  0.11794976  1  0.090087  0  0.002197  0.087279  0  4.083968  0
C  C20  1  0.28038188  0.44555692  0.15735565  1  0.11028  0  0.022868  0.110205  0  3.997503  0
C  C21  1  0.22973293  0.44877256  0.23672996  1  -0.000924  0  -0.084173  -0.157887  0  3.962786  0
C  C22  1  0.49304944  0.49544056  0.03727855  1  -0.362602  0  -0.040851  -0.086895  0  4.122289  0
C  C23  1  0.53593937  0.50067232  0.96739914  1  0.044255  0  -0.039447  -0.083381  0  4.1232  0
C  C24  1  0.57661952  0.50303476  0.88654004  1  0.142048  0  0.001275  0.083959  0  4.088483  0
C  C25  1  0.73319917  0.55476687  0.84433596  1  0.051061  0  0.020653  0.107853  0  4.00173  0
C  C26  1  0.77345606  0.55313318  0.76465443  1  0.032086  0  -0.082698  -0.157199  0  3.953147  0
C  C27  1  0.65433122  0.50253904  0.72517729  1  0.015495  0  -0.012033  -0.025871  0  3.975859  0
C  C28  1  0.49478599  0.45386599  0.76573117  1  -0.025015  0  -0.080069  -0.093355  0  3.980989  0
C  C29  1  0.45841802  0.45288130  0.84524713  1  -0.038312  0  -0.077537  -0.106582  0  3.950435  0
C  C30  1  0.92991487  0.13587261  0.49082126  1  0.053991  0  -0.012144  -0.172498  0  3.951776  0
C  C31  1  0.12305343  0.06999028  0.44519160  1  0.012207  0  0.00204  0.084259  0  3.973659  0
C  C32  1  0.80640092  0.06829324  0.53456073  1  0.551231  0  0.100185  0.16211  0  4.081372  0
C  C33  1  0.25078230  0.13528823  0.39638942  1  0.09303  0  -0.094543  -0.235054  0  3.94876  0
C  C34  1  0.43042956  0.06906218  0.35121250  1  0.496069  0  0.095077  0.188885  0  4.11005  0
C  C35  1  0.05847336  0.86805416  0.49597934  1  0.020344  0  -0.01321  -0.175401  0  3.954365  0
C  C36  1  0.87101298  0.93537399  0.53767933  1  0.459202  0  0.10131  0.164669  0  4.090236  0
C  C37  1  0.18568693  0.93457952  0.44682474  1  0.055583  0  0.002148  0.088228  0  3.976842  0
C  C38  1  0.36974408  0.86990663  0.39770691  1  0.016357  0  -0.097791  -0.247044  0  3.970707  0
C  C39  1  0.48891791  0.93626874  0.35138927  1  0.460088  0  0.093147  0.186987  0  4.111339  0
Cl  Cl40  1  0.13990343  0.38309858  0.10599760  1  -0.197801  0  -0.000556  -0.075393  0  1.485848  0
Cl  Cl41  1  0.87631921  0.62019033  0.89266011  1  -0.197466  0  -0.003195  -0.077577  0  1.479619  0
O  O42  1  0.66495855  0.33345267  0.48025959  1  -1.251979  0  -0.225623  -0.573937  0  2.328983  0
O  O43  1  0.87232482  0.51819678  0.60730492  1  -1.261062  0  -0.237706  -0.588488  0  2.335105  0
O  O44  1  0.99740715  0.67223192  0.49162295  1  -1.247007  0  -0.22542  -0.582399  0  2.337977  0
O  O45  1  0.42111846  0.53347556  0.39900370  1  -1.269118  0  -0.240442  -0.607001  0  2.382018  0
O  O46  1  0.31918177  0.67302243  0.52085872  1  -1.248578  0  -0.228408  -0.57549  0  2.312607  0
O  O47  1  0.12351298  0.47607969  0.39563978  1  -1.258299  0  -0.237381  -0.585264  0  2.325909  0
O  O48  1  0.99157077  0.32696387  0.50838221  1  -1.253003  0  -0.226401  -0.581692  0  2.3275  0
O  O49  1  0.56091773  0.47383257  0.60608570  1  -1.265593  0  -0.240307  -0.608693  0  2.356743  0
O  O50  1  0.26387090  0.44046187  0.53527340  1  -1.437662  0  -0.448488  -0.995218  0  2.20866  0
O  O51  1  0.72525900  0.56289013  0.46849688  1  -1.399473  0  -0.449864  -0.988107  0  2.196403  0
F  F52  1  0.74730515  0.87635772  0.58556493  1  -0.610726  0  -0.085422  -0.103897  0  1.355098  0
F  F53  1  0.62375743  0.12639954  0.57944582  1  -0.618152  0  -0.086218  -0.109973  0  1.360555  0
F  F54  1  0.55440239  0.12977005  0.30462081  1  -0.62015  0  -0.095522  -0.12157  0  1.337175  0
F  F55  1  0.66472541  0.87550388  0.30426082  1  -0.623899  0  -0.098256  -0.123477  0  1.323523  0
