# generated using pymatgen
data_TmH7(C3O4)2
_symmetry_space_group_name_H-M   'P 1'
_cell_length_a   8.01450498
_cell_length_b   9.43729264
_cell_length_c   12.23280766
_cell_angle_alpha   91.31562667
_cell_angle_beta   90.00000579
_cell_angle_gamma   89.99995382
_symmetry_Int_Tables_number   1
_chemical_formula_structural   TmH7(C3O4)2
_chemical_formula_sum   'Tm4 H28 C24 O32'
_cell_volume   924.98730183
_cell_formula_units_Z   4
loop_
 _symmetry_equiv_pos_site_id
 _symmetry_equiv_pos_as_xyz
  1  'x, y, z'
loop_
 _atom_site_type_symbol
 _atom_site_label
 _atom_site_symmetry_multiplicity
 _atom_site_fract_x
 _atom_site_fract_y
 _atom_site_fract_z
 _atom_site_occupancy
 _atom_site_hle17_bader_spin_density
 _atom_site_hle17_ddec_charge
 _atom_site_hle17_ddec_spin_density
 _atom_site_hle17_ddec_sum_bond_order
 _atom_site_hle17_magmom
 _atom_site_hse06_10hf_bader_spin_density
 _atom_site_hse06_10hf_ddec_charge
 _atom_site_hse06_10hf_ddec_spin_density
 _atom_site_hse06_10hf_ddec_sum_bond_order
 _atom_site_hse06_10hf_magmom
 _atom_site_hse06_bader_spin_density
 _atom_site_hse06_ddec_charge
 _atom_site_hse06_ddec_spin_density
 _atom_site_hse06_ddec_sum_bond_order
 _atom_site_hse06_magmom
 _atom_site_pbe_bader_spin_density
 _atom_site_pbe_cm5_charge
 _atom_site_pbe_ddec_charge
 _atom_site_pbe_ddec_spin_density
 _atom_site_pbe_ddec_sum_bond_order
 _atom_site_pbe_magmom
Tm  Tm0  1  0.44254876  0.30747871  0.58320813  1  0  2.281038  0  1.596639  0  0  2.219923  0  1.913361  0  0  2.267811  0  1.871841  0  0  1.540129  2.096242  0  2.108837  0
Tm  Tm1  1  0.94254977  0.19252119  0.91679322  1  0  2.281038  0  1.596629  0  0  2.21993  0  1.913349  0  0  2.267813  0  1.871831  0  0  1.540113  2.096245  0  2.108834  0
Tm  Tm2  1  0.55745148  0.69252063  0.41679160  1  0  2.281035  0  1.596615  0  0  2.219934  0  1.913331  0  0  2.267815  0  1.871815  0  0  1.540125  2.096232  0  2.10885  0
Tm  Tm3  1  0.05744922  0.80747815  0.08320733  1  0  2.281066  0  1.596597  0  0  2.219959  0  1.913316  0  0  2.267841  0  1.871798  0  0  1.540121  2.096283  0  2.108784  0
H  H4  1  0.19202783  0.67065197  0.79233356  1  0  0.128674  0  0.94127  0  0  0.13524  0  1.002713  0  0  0.139361  0  1.000909  0  0  0.113622  0.13184  0  1.005364  0
H  H5  1  0.69202494  0.82935043  0.70766404  1  0  0.128685  0  0.941272  0  0  0.135217  0  1.002732  0  0  0.139338  0  1.000929  0  0  0.113595  0.131817  0  1.005384  0
H  H6  1  0.80797366  0.32934842  0.20766701  1  0  0.128707  0  0.941245  0  0  0.135289  0  1.002662  0  0  0.13941  0  1.000858  0  0  0.113624  0.131887  0  1.005316  0
H  H7  1  0.30797155  0.17064997  0.29233571  1  0  0.128697  0  0.941248  0  0  0.135241  0  1.0027  0  0  0.139362  0  1.000897  0  0  0.113621  0.13184  0  1.005352  0
H  H8  1  0.33629238  0.93585311  0.68212430  1  0  0.136784  0  0.94512  0  0  0.140743  0  1.011412  0  0  0.145406  0  1.0088  0  0  0.115657  0.137347  0  1.013968  0
H  H9  1  0.83628975  0.56415025  0.81787578  1  0  0.136829  0  0.945035  0  0  0.140809  0  1.011302  0  0  0.145471  0  1.008691  0  0  0.115678  0.137412  0  1.013859  0
H  H10  1  0.66370911  0.06414729  0.31787545  1  0  0.136781  0  0.945114  0  0  0.140747  0  1.011411  0  0  0.145408  0  1.008801  0  0  0.115662  0.13735  0  1.013967  0
H  H11  1  0.16370799  0.43585015  0.18212397  1  0  0.13681  0  0.945092  0  0  0.140784  0  1.011373  0  0  0.145447  0  1.008761  0  0  0.115669  0.137387  0  1.013929  0
H  H12  1  0.69440185  0.81685982  0.21912173  1  0  0.434759  0  0.872918  0  0  0.404666  0  0.935535  0  0  0.415458  0  0.919894  0  0  0.303987  0.396826  0  0.946439  0
H  H13  1  0.19440223  0.68313992  0.28087805  1  0  0.434758  0  0.87294  0  0  0.40467  0  0.935546  0  0  0.415462  0  0.919905  0  0  0.303996  0.39683  0  0.94645  0
H  H14  1  0.30559714  0.18313952  0.78087883  1  0  0.434745  0  0.872961  0  0  0.404654  0  0.935573  0  0  0.415445  0  0.919932  0  0  0.303982  0.396814  0  0.946477  0
H  H15  1  0.80559551  0.31686048  0.71912252  1  0  0.434743  0  0.872959  0  0  0.404649  0  0.935578  0  0  0.415441  0  0.919935  0  0  0.303986  0.396808  0  0.946481  0
H  H16  1  0.51806410  0.75193506  0.18320803  1  0  0.443691  0  0.852284  0  0  0.415782  0  0.909561  0  0  0.426395  0  0.89431  0  0  0.303326  0.407522  0  0.921304  0
H  H17  1  0.01806442  0.74806481  0.31679010  1  0  0.443715  0  0.852252  0  0  0.41581  0  0.909522  0  0  0.426422  0  0.894272  0  0  0.303344  0.40755  0  0.921266  0
H  H18  1  0.48193489  0.24806534  0.81679173  1  0  0.443726  0  0.85223  0  0  0.415819  0  0.909505  0  0  0.426431  0  0.894254  0  0  0.303337  0.407559  0  0.921248  0
H  H19  1  0.98193457  0.25193347  0.68320961  1  0  0.443708  0  0.852265  0  0  0.415799  0  0.909542  0  0  0.426411  0  0.894292  0  0  0.303328  0.407538  0  0.921287  0
H  H20  1  0.35995444  0.96311568  0.42361972  1  0  0.443574  0  0.850328  0  0  0.415374  0  0.909513  0  0  0.426247  0  0.893524  0  0  0.301769  0.406937  0  0.921721  0
H  H21  1  0.85995181  0.53688289  0.07637842  1  0  0.44353  0  0.85039  0  0  0.415325  0  0.909585  0  0  0.426199  0  0.893595  0  0  0.301765  0.406887  0  0.921795  0
H  H22  1  0.64004704  0.03688472  0.57638004  1  0  0.443552  0  0.850358  0  0  0.415344  0  0.909559  0  0  0.426219  0  0.893566  0  0  0.301759  0.406906  0  0.921769  0
H  H23  1  0.14004718  0.46311645  0.92362214  1  0  0.443549  0  0.85037  0  0  0.415339  0  0.909575  0  0  0.426212  0  0.893585  0  0  0.301778  0.4069  0  0.921786  0
H  H24  1  0.29320675  0.87568392  0.32127381  1  0  0.439961  0  0.846966  0  0  0.413758  0  0.905948  0  0  0.424057  0  0.890645  0  0  0.307041  0.405804  0  0.917475  0
H  H25  1  0.79320405  0.62431681  0.17872599  1  0  0.439944  0  0.846981  0  0  0.413744  0  0.905962  0  0  0.424041  0  0.890661  0  0  0.307033  0.40579  0  0.917488  0
H  H26  1  0.70679599  0.12431648  0.67872676  1  0  0.439926  0  0.847006  0  0  0.413724  0  0.905991  0  0  0.424022  0  0.89069  0  0  0.307021  0.405769  0  0.917519  0
H  H27  1  0.20679494  0.37568252  0.82127538  1  0  0.439964  0  0.846954  0  0  0.413759  0  0.905942  0  0  0.424058  0  0.89064  0  0  0.307051  0.405805  0  0.917469  0
H  H28  1  0.10969075  0.86459555  0.49762003  1  0  0.137513  0  0.945245  0  0  0.144825  0  1.004648  0  0  0.148842  0  1.003102  0  0  0.119989  0.14145  0  1.007024  0
H  H29  1  0.60969176  0.63540425  0.00237893  1  0  0.137506  0  0.945252  0  0  0.144824  0  1.004646  0  0  0.14884  0  1.0031  0  0  0.119975  0.141445  0  1.007035  0
H  H30  1  0.89030824  0.13540379  0.50237971  1  0  0.137506  0  0.945251  0  0  0.144819  0  1.00465  0  0  0.148836  0  1.003103  0  0  0.119983  0.141441  0  1.007037  0
H  H31  1  0.39030723  0.36459721  0.99762003  1  0  0.137505  0  0.945266  0  0  0.14482  0  1.004661  0  0  0.148837  0  1.003114  0  0  0.119982  0.141439  0  1.007053  0
C  C32  1  0.32069079  0.65171515  0.63346190  1  0  0.761471  0  3.847865  0  0  0.724689  0  4.131984  0  0  0.760217  0  4.118743  0  0  0.231929  0.699288  0  4.136069  0
C  C33  1  0.82068667  0.84829140  0.86653661  1  0  0.761593  0  3.847541  0  0  0.724766  0  4.131706  0  0  0.760305  0  4.118439  0  0  0.231904  0.699365  0  4.135794  0
C  C34  1  0.67931319  0.34828736  0.36653953  1  0  0.76143  0  3.84794  0  0  0.72459  0  4.132163  0  0  0.760114  0  4.118931  0  0  0.231867  0.69919  0  4.136247  0
C  C35  1  0.17931108  0.15171006  0.13346316  1  0  0.761637  0  3.847502  0  0  0.724816  0  4.131663  0  0  0.760367  0  4.118374  0  0  0.231937  0.699415  0  4.135751  0
C  C36  1  0.25411897  0.73252097  0.72999921  1  0  -0.14754  0  3.595063  0  0  -0.164484  0  3.837344  0  0  -0.170548  0  3.853424  0  0  -0.073056  -0.161616  0  3.83058  0
C  C37  1  0.75411490  0.76748245  0.77000005  1  0  -0.147638  0  3.594946  0  0  -0.164481  0  3.83719  0  0  -0.17055  0  3.853266  0  0  -0.073013  -0.161614  0  3.830427  0
C  C38  1  0.74588377  0.26747942  0.27000218  1  0  -0.14764  0  3.595054  0  0  -0.164562  0  3.83735  0  0  -0.170626  0  3.853433  0  0  -0.073062  -0.161694  0  3.830586  0
C  C39  1  0.24588160  0.23251901  0.22999972  1  0  -0.147559  0  3.594961  0  0  -0.164437  0  3.837233  0  0  -0.170508  0  3.853304  0  0  -0.07303  -0.161569  0  3.830469  0
C  C40  1  0.27489872  0.87295008  0.74428815  1  0  -0.166044  0  3.60129  0  0  -0.183439  0  3.84732  0  0  -0.190231  0  3.862267  0  0  -0.07641  -0.180508  0  3.841182  0
C  C41  1  0.77489479  0.62705332  0.75571194  1  0  -0.166013  0  3.601161  0  0  -0.183478  0  3.847214  0  0  -0.190273  0  3.862167  0  0  -0.07643  -0.180547  0  3.841078  0
C  C42  1  0.72510276  0.12705137  0.25571245  1  0  -0.165956  0  3.601222  0  0  -0.183394  0  3.847268  0  0  -0.190187  0  3.862219  0  0  -0.076401  -0.180463  0  3.84113  0
C  C43  1  0.22510296  0.37294814  0.24428784  1  0  -0.166095  0  3.601281  0  0  -0.183551  0  3.847315  0  0  -0.190346  0  3.862268  0  0  -0.076436  -0.18062  0  3.841178  0
C  C44  1  0.20147931  0.94946306  0.84009296  1  0  0.767679  0  3.826134  0  0  0.727933  0  4.108393  0  0  0.764257  0  4.094213  0  0  0.239642  0.702311  0  4.112512  0
C  C45  1  0.70147543  0.55053933  0.65990792  1  0  0.767707  0  3.826131  0  0  0.727993  0  4.108358  0  0  0.764316  0  4.094177  0  0  0.239677  0.702372  0  4.112475  0
C  C46  1  0.79852217  0.05053734  0.15990762  1  0  0.767642  0  3.826036  0  0  0.727942  0  4.10823  0  0  0.764267  0  4.094053  0  0  0.23967  0.702321  0  4.112349  0
C  C47  1  0.29852356  0.44946106  0.34009184  1  0  0.767784  0  3.826117  0  0  0.728104  0  4.108288  0  0  0.764429  0  4.094105  0  0  0.2397  0.702482  0  4.112409  0
C  C48  1  0.84230618  0.85534086  0.45910467  1  0  0.688844  0  3.898548  0  0  0.638871  0  4.201081  0  0  0.673671  0  4.190964  0  0  0.206583  0.61642  0  4.198425  0
C  C49  1  0.34230531  0.64465984  0.04089350  1  0  0.688892  0  3.898429  0  0  0.638898  0  4.200995  0  0  0.673696  0  4.190877  0  0  0.206542  0.616447  0  4.19834  0
C  C50  1  0.15769530  0.14466061  0.54089265  1  0  0.688802  0  3.898458  0  0  0.638806  0  4.201029  0  0  0.673605  0  4.190908  0  0  0.206545  0.616355  0  4.198373  0
C  C51  1  0.65769368  0.35533950  0.95910623  1  0  0.688931  0  3.898456  0  0  0.638942  0  4.201005  0  0  0.673742  0  4.190887  0  0  0.206565  0.616492  0  4.19835  0
C  C52  1  0.99736626  0.92964849  0.49169292  1  0  -0.14656  0  3.614069  0  0  -0.162232  0  3.86076  0  0  -0.168122  0  3.875662  0  0  -0.069366  -0.159572  0  3.853676  0
C  C53  1  0.49736795  0.57035105  0.00830524  1  0  -0.146602  0  3.614026  0  0  -0.162277  0  3.860738  0  0  -0.168169  0  3.875646  0  0  -0.069368  -0.15962  0  3.853653  0
C  C54  1  0.00263273  0.07035085  0.50830600  1  0  -0.146543  0  3.614027  0  0  -0.162211  0  3.860736  0  0  -0.1681  0  3.875638  0  0  -0.069345  -0.159555  0  3.853653  0
C  C55  1  0.50263229  0.42964936  0.99169370  1  0  -0.146561  0  3.614082  0  0  -0.162217  0  3.860769  0  0  -0.168111  0  3.875676  0  0  -0.06934  -0.159559  0  3.853682  0
O  O56  1  0.33697758  0.51897845  0.64510156  1  0  -0.737908  0  2.040567  0  0  -0.70231  0  2.289032  0  0  -0.726944  0  2.276037  0  0  -0.393781  -0.671197  0  2.30014  0
O  O57  1  0.83697457  0.98102598  0.85489446  1  0  -0.737928  0  2.040326  0  0  -0.70232  0  2.288817  0  0  -0.726957  0  2.275816  0  0  -0.39377  -0.671207  0  2.299925  0
O  O58  1  0.66302890  0.48102300  0.35490067  1  0  -0.737928  0  2.04062  0  0  -0.702303  0  2.289104  0  0  -0.726935  0  2.276114  0  0  -0.393777  -0.671187  0  2.300213  0
O  O59  1  0.16302317  0.01897442  0.14510448  1  0  -0.737962  0  2.040345  0  0  -0.702353  0  2.288834  0  0  -0.726993  0  2.275825  0  0  -0.39378  -0.671241  0  2.299941  0
O  O60  1  0.36048361  0.71977429  0.54842310  1  0  -0.758275  0  2.039247  0  0  -0.724058  0  2.294311  0  0  -0.748925  0  2.280697  0  0  -0.410009  -0.69254  0  2.306227  0
O  O61  1  0.86047831  0.78023330  0.95157707  1  0  -0.758364  0  2.03922  0  0  -0.724152  0  2.294329  0  0  -0.749025  0  2.280707  0  0  -0.410016  -0.692635  0  2.306248  0
O  O62  1  0.63952038  0.28022823  0.45157833  1  0  -0.758196  0  2.039224  0  0  -0.723963  0  2.294322  0  0  -0.74883  0  2.280715  0  0  -0.409966  -0.692447  0  2.306233  0
O  O63  1  0.13952193  0.21976922  0.04842273  1  0  -0.758391  0  2.039198  0  0  -0.724185  0  2.294318  0  0  -0.749063  0  2.280692  0  0  -0.410027  -0.692667  0  2.306236  0
O  O64  1  0.33610535  0.58108239  0.32671626  1  0  -0.747129  0  2.062737  0  0  -0.694284  0  2.297765  0  0  -0.721333  0  2.28543  0  0  -0.385859  -0.663668  0  2.308405  0
O  O65  1  0.83610487  0.91891619  0.17328514  1  0  -0.747051  0  2.062674  0  0  -0.694177  0  2.297697  0  0  -0.721228  0  2.285365  0  0  -0.385812  -0.663564  0  2.308333  0
O  O66  1  0.66389239  0.41891801  0.67328431  1  0  -0.747087  0  2.062719  0  0  -0.694223  0  2.297762  0  0  -0.721274  0  2.28543  0  0  -0.385832  -0.663611  0  2.308401  0
O  O67  1  0.16389536  0.08108315  0.82671623  1  0  -0.747103  0  2.062693  0  0  -0.694226  0  2.297746  0  0  -0.721275  0  2.285409  0  0  -0.385844  -0.663614  0  2.308384  0
O  O68  1  0.67151971  0.61480880  0.57314989  1  0  -0.756899  0  2.145168  0  0  -0.723303  0  2.403654  0  0  -0.748238  0  2.391483  0  0  -0.390505  -0.689262  0  2.410959  0
O  O69  1  0.17152366  0.88519255  0.92685178  1  0  -0.756837  0  2.145165  0  0  -0.723241  0  2.403684  0  0  -0.748181  0  2.39152  0  0  -0.39047  -0.689204  0  2.410985  0
O  O70  1  0.32848427  0.38519054  0.42684903  1  0  -0.756909  0  2.14517  0  0  -0.723325  0  2.403643  0  0  -0.748262  0  2.391474  0  0  -0.390486  -0.689287  0  2.410945  0
O  O71  1  0.82847907  0.11480678  0.07314959  1  0  -0.756892  0  2.145114  0  0  -0.723303  0  2.403601  0  0  -0.748243  0  2.391434  0  0  -0.390518  -0.689266  0  2.410904  0
O  O72  1  0.61456789  0.73734550  0.23385816  1  0  -0.93054  0  1.920124  0  0  -0.889497  0  2.115247  0  0  -0.910699  0  2.08376  0  0  -0.645303  -0.862774  0  2.14386  0
O  O73  1  0.11456944  0.76265112  0.26614155  1  0  -0.930594  0  1.920184  0  0  -0.88952  0  2.115242  0  0  -0.910729  0  2.08377  0  0  -0.64532  -0.862802  0  2.143853  0
O  O74  1  0.38542861  0.26265172  0.76614235  1  0  -0.93058  0  1.920182  0  0  -0.889499  0  2.115238  0  0  -0.910708  0  2.083766  0  0  -0.645289  -0.86278  0  2.143847  0
O  O75  1  0.88542955  0.23734822  0.73385900  1  0  -0.930552  0  1.920195  0  0  -0.889478  0  2.115267  0  0  -0.910683  0  2.083781  0  0  -0.645291  -0.862759  0  2.14388  0
O  O76  1  0.39457170  0.89395750  0.36530013  1  0  -0.907705  0  1.84718  0  0  -0.876114  0  2.036208  0  0  -0.893606  0  2.003216  0  0  -0.639213  -0.852356  0  2.066854  0
O  O77  1  0.89456901  0.60604422  0.13469889  1  0  -0.907643  0  1.847192  0  0  -0.87606  0  2.036246  0  0  -0.893542  0  2.003233  0  0  -0.639203  -0.852304  0  2.066888  0
O  O78  1  0.60543103  0.10604395  0.63470047  1  0  -0.907656  0  1.847231  0  0  -0.87606  0  2.036257  0  0  -0.893553  0  2.003267  0  0  -0.639194  -0.852304  0  2.066899  0
O  O79  1  0.10542873  0.39395618  0.86530169  1  0  -0.907691  0  1.8472  0  0  -0.8761  0  2.036241  0  0  -0.893589  0  2.003237  0  0  -0.639248  -0.852343  0  2.066886  0
O  O80  1  0.85497451  0.74094789  0.40146495  1  0  -0.667731  0  1.988911  0  0  -0.615616  0  2.207776  0  0  -0.640483  0  2.197262  0  0  -0.346848  -0.589942  0  2.215408  0
O  O81  1  0.35497479  0.75905174  0.09853239  1  0  -0.667746  0  1.988892  0  0  -0.61561  0  2.207762  0  0  -0.640474  0  2.197246  0  0  -0.346825  -0.589936  0  2.215387  0
O  O82  1  0.14502323  0.25905251  0.59853317  1  0  -0.667692  0  1.988893  0  0  -0.615566  0  2.207766  0  0  -0.640432  0  2.197253  0  0  -0.346804  -0.589891  0  2.215388  0
O  O83  1  0.64502420  0.24094866  0.90146737  1  0  -0.667757  0  1.988961  0  0  -0.615638  0  2.207839  0  0  -0.640504  0  2.197323  0  0  -0.346824  -0.589961  0  2.21546  0
O  O84  1  0.69750870  0.90201426  0.48584965  1  0  -0.697726  0  2.002199  0  0  -0.646609  0  2.23693  0  0  -0.672717  0  2.225776  0  0  -0.353391  -0.618669  0  2.244515  0
O  O85  1  0.19751286  0.59798867  0.01414856  1  0  -0.697747  0  2.002268  0  0  -0.64661  0  2.236996  0  0  -0.672724  0  2.225849  0  0  -0.353371  -0.618675  0  2.244581  0
O  O86  1  0.30249154  0.09798934  0.51414527  1  0  -0.69772  0  2.002234  0  0  -0.646578  0  2.236927  0  0  -0.672698  0  2.225797  0  0  -0.353386  -0.618643  0  2.24451  0
O  O87  1  0.80248738  0.40200961  0.98585197  1  0  -0.697742  0  2.00221  0  0  -0.646624  0  2.236955  0  0  -0.672729  0  2.225788  0  0  -0.353391  -0.618687  0  2.244541  0
