# generated using pymatgen
data_Li2H7(C2O3)2
_symmetry_space_group_name_H-M   'P 1'
_cell_length_a   8.17376546
_cell_length_b   7.79995775
_cell_length_c   11.04967053
_cell_angle_alpha   110.66656181
_cell_angle_beta   95.58699739
_cell_angle_gamma   89.99679070
_symmetry_Int_Tables_number   1
_chemical_formula_structural   Li2H7(C2O3)2
_chemical_formula_sum   'Li8 H28 C16 O24'
_cell_volume   655.56285938
_cell_formula_units_Z   4
loop_
 _symmetry_equiv_pos_site_id
 _symmetry_equiv_pos_as_xyz
  1  'x, y, z'
loop_
 _atom_site_type_symbol
 _atom_site_label
 _atom_site_symmetry_multiplicity
 _atom_site_fract_x
 _atom_site_fract_y
 _atom_site_fract_z
 _atom_site_occupancy
 _atom_site_hle17_bader_spin_density
 _atom_site_hle17_ddec_charge
 _atom_site_hle17_ddec_spin_density
 _atom_site_hle17_ddec_sum_bond_order
 _atom_site_hle17_magmom
 _atom_site_hse06_10hf_bader_spin_density
 _atom_site_hse06_10hf_ddec_charge
 _atom_site_hse06_10hf_ddec_spin_density
 _atom_site_hse06_10hf_ddec_sum_bond_order
 _atom_site_hse06_10hf_magmom
 _atom_site_hse06_bader_spin_density
 _atom_site_hse06_ddec_charge
 _atom_site_hse06_ddec_spin_density
 _atom_site_hse06_ddec_sum_bond_order
 _atom_site_hse06_magmom
 _atom_site_pbe_bader_spin_density
 _atom_site_pbe_cm5_charge
 _atom_site_pbe_ddec_charge
 _atom_site_pbe_ddec_spin_density
 _atom_site_pbe_ddec_sum_bond_order
 _atom_site_pbe_magmom
Li  Li0  1  0.05612360  0.52356335  0.38550177  1  0  0.854082  0  0.407155  0  0  0.817012  0  0.507283  0  0  0.826262  0  0.491316  0  0  0.51101  0.810169  0  0.519017  0
Li  Li1  1  0.44402916  0.13781790  0.61450192  1  0  0.853779  0  0.407589  0  0  0.816513  0  0.508142  0  0  0.825752  0  0.49216  0  0  0.511236  0.809637  0  0.519909  0
Li  Li2  1  0.94387670  0.47643059  0.61449984  1  0  0.854122  0  0.407089  0  0  0.817018  0  0.507276  0  0  0.826267  0  0.491311  0  0  0.511008  0.810169  0  0.519017  0
Li  Li3  1  0.55596314  0.86218848  0.38549850  1  0  0.853773  0  0.407591  0  0  0.816486  0  0.508177  0  0  0.82573  0  0.492195  0  0  0.511242  0.809611  0  0.519944  0
Li  Li4  1  0.93893841  0.27785970  0.13501359  1  0  0.85592  0  0.372264  0  0  0.811905  0  0.48043  0  0  0.822388  0  0.462345  0  0  0.482471  0.804356  0  0.493395  0
Li  Li5  1  0.56105391  0.14245010  0.86480994  1  0  0.856322  0  0.371936  0  0  0.812023  0  0.480463  0  0  0.822546  0  0.462314  0  0  0.482416  0.804468  0  0.493437  0
Li  Li6  1  0.06106346  0.72213836  0.86498194  1  0  0.855939  0  0.372244  0  0  0.811928  0  0.480408  0  0  0.822409  0  0.462328  0  0  0.482492  0.80438  0  0.493371  0
Li  Li7  1  0.43893926  0.85754394  0.13518113  1  0  0.856352  0  0.371972  0  0  0.812064  0  0.480463  0  0  0.822581  0  0.462323  0  0  0.482459  0.804511  0  0.493434  0
H  H8  1  0.76950937  0.58407147  0.24145329  1  0  0.427072  0  0.881874  0  0  0.393169  0  0.951319  0  0  0.404961  0  0.933934  0  0  0.305669  0.384794  0  0.963658  0
H  H9  1  0.73046675  0.34219589  0.75837873  1  0  0.426964  0  0.882221  0  0  0.392854  0  0.951764  0  0  0.404662  0  0.934377  0  0  0.305394  0.384501  0  0.964051  0
H  H10  1  0.23048753  0.41592664  0.75854454  1  0  0.427041  0  0.881924  0  0  0.393129  0  0.951384  0  0  0.404919  0  0.934002  0  0  0.305647  0.384753  0  0.963725  0
H  H11  1  0.26953726  0.65779802  0.24162229  1  0  0.426974  0  0.882211  0  0  0.392867  0  0.95174  0  0  0.404675  0  0.934355  0  0  0.305408  0.384515  0  0.964025  0
H  H12  1  0.87638013  0.62176260  0.13844201  1  0  0.441066  0  0.821072  0  0  0.419455  0  0.877529  0  0  0.427941  0  0.865014  0  0  0.324769  0.413385  0  0.886506  0
H  H13  1  0.62362341  0.48292808  0.86139405  1  0  0.441267  0  0.821944  0  0  0.41965  0  0.877538  0  0  0.428121  0  0.865052  0  0  0.324611  0.413559  0  0.886548  0
H  H14  1  0.12362297  0.37823681  0.86155668  1  0  0.441  0  0.821151  0  0  0.41939  0  0.877615  0  0  0.427875  0  0.8651  0  0  0.324742  0.413318  0  0.886594  0
H  H15  1  0.37637822  0.51706723  0.13860621  1  0  0.441256  0  0.821887  0  0  0.419651  0  0.877512  0  0  0.42812  0  0.865031  0  0  0.324633  0.413563  0  0.886515  0
H  H16  1  0.86426901  0.30945197  0.92571638  1  0  0.41486  0  0.883059  0  0  0.390208  0  0.940877  0  0  0.399907  0  0.926463  0  0  0.306227  0.383311  0  0.951133  0
H  H17  1  0.63562098  0.38383224  0.07401765  1  0  0.414391  0  0.882777  0  0  0.389232  0  0.942173  0  0  0.398926  0  0.92776  0  0  0.305936  0.382336  0  0.952428  0
H  H18  1  0.13573141  0.69054336  0.07428287  1  0  0.414826  0  0.883102  0  0  0.390166  0  0.940941  0  0  0.399867  0  0.926524  0  0  0.306222  0.383268  0  0.951198  0
H  H19  1  0.36437479  0.61616999  0.92598383  1  0  0.414433  0  0.882769  0  0  0.389293  0  0.942085  0  0  0.398987  0  0.927672  0  0  0.305971  0.382402  0  0.952331  0
H  H20  1  0.89507946  0.10703213  0.90159506  1  0  0.423639  0  0.879017  0  0  0.393593  0  0.942526  0  0  0.404948  0  0.925687  0  0  0.304917  0.385506  0  0.95452  0
H  H21  1  0.60496401  0.20572962  0.09843694  1  0  0.423158  0  0.879698  0  0  0.393111  0  0.943408  0  0  0.404494  0  0.926514  0  0  0.304527  0.385031  0  0.955394  0
H  H22  1  0.10491474  0.89296189  0.09840424  1  0  0.423631  0  0.879009  0  0  0.393579  0  0.942531  0  0  0.404937  0  0.925687  0  0  0.304921  0.385491  0  0.954526  0
H  H23  1  0.39503041  0.79426714  0.90155854  1  0  0.423177  0  0.879712  0  0  0.393148  0  0.943386  0  0  0.404534  0  0.926486  0  0  0.304538  0.385067  0  0.955373  0
H  H24  1  0.51057798  0.30992187  0.28680255  1  0  0.114651  0  0.956577  0  0  0.129298  0  1.018475  0  0  0.131699  0  1.017842  0  0  0.113892  0.127566  0  1.019068  0
H  H25  1  0.98908292  0.02151418  0.71275992  1  0  0.115584  0  0.956435  0  0  0.130712  0  1.017522  0  0  0.133093  0  1.016945  0  0  0.114699  0.129004  0  1.018112  0
H  H26  1  0.48943143  0.69008022  0.71319463  1  0  0.114651  0  0.956603  0  0  0.129305  0  1.01848  0  0  0.131701  0  1.017857  0  0  0.113895  0.12757  0  1.019071  0
H  H27  1  0.01089821  0.97849231  0.28724410  1  0  0.115564  0  0.956446  0  0  0.130697  0  1.01755  0  0  0.133076  0  1.016974  0  0  0.114683  0.128991  0  1.018129  0
H  H28  1  0.46405425  0.18004484  0.38096017  1  0  0.106568  0  0.980297  0  0  0.115117  0  1.052825  0  0  0.118418  0  1.051455  0  0  0.119226  0.112746  0  1.053914  0
H  H29  1  0.03654160  0.79810504  0.61833377  1  0  0.106623  0  0.97963  0  0  0.114836  0  1.052674  0  0  0.118123  0  1.051391  0  0  0.11922  0.112494  0  1.053726  0
H  H30  1  0.53594701  0.81994908  0.61905237  1  0  0.106505  0  0.980381  0  0  0.115082  0  1.052874  0  0  0.118367  0  1.051541  0  0  0.119218  0.112711  0  1.05396  0
H  H31  1  0.96345357  0.20190818  0.38166316  1  0  0.106638  0  0.979524  0  0  0.114846  0  1.052614  0  0  0.118139  0  1.051316  0  0  0.119214  0.112501  0  1.053669  0
H  H32  1  0.36407137  0.57613818  0.42990472  1  0  0.077461  0  0.967534  0  0  0.083476  0  1.037397  0  0  0.086731  0  1.035255  0  0  0.117039  0.081102  0  1.039089  0
H  H33  1  0.13570124  0.14635306  0.57043085  1  0  0.077962  0  0.967282  0  0  0.084308  0  1.036587  0  0  0.087505  0  1.034484  0  0  0.117318  0.081984  0  1.038228  0
H  H34  1  0.63592111  0.42386958  0.57009062  1  0  0.077474  0  0.967557  0  0  0.08361  0  1.03733  0  0  0.086868  0  1.035185  0  0  0.117116  0.081234  0  1.039037  0
H  H35  1  0.86428760  0.85365885  0.42957065  1  0  0.077925  0  0.967458  0  0  0.084277  0  1.036724  0  0  0.087468  0  1.034633  0  0  0.117307  0.081957  0  1.038356  0
C  C36  1  0.26477424  0.21420394  0.25370674  1  0  0.776921  0  3.783095  0  0  0.734719  0  4.07924  0  0  0.767437  0  4.069983  0  0  0.24322  0.712483  0  4.084902  0
C  C37  1  0.23530679  0.95999463  0.74621778  1  0  0.775657  0  3.785534  0  0  0.734189  0  4.080685  0  0  0.766909  0  4.071403  0  0  0.243336  0.711981  0  4.086358  0
C  C38  1  0.73521760  0.78578874  0.74628569  1  0  0.777037  0  3.782966  0  0  0.734773  0  4.079237  0  0  0.767486  0  4.069972  0  0  0.243323  0.712539  0  4.084895  0
C  C39  1  0.76469173  0.04001716  0.25379085  1  0  0.775745  0  3.785715  0  0  0.734377  0  4.080725  0  0  0.767093  0  4.071444  0  0  0.243409  0.712171  0  4.086396  0
C  C40  1  0.41903810  0.28985220  0.34778601  1  0  -0.301074  0  3.632998  0  0  -0.342988  0  3.874406  0  0  -0.349472  0  3.882162  0  0  -0.150381  -0.338451  0  3.869023  0
C  C41  1  0.08111946  0.94126974  0.65195187  1  0  -0.30114  0  3.630609  0  0  -0.343108  0  3.87146  0  0  -0.349633  0  3.879264  0  0  -0.150585  -0.338674  0  3.866233  0
C  C42  1  0.58097360  0.71014713  0.65221339  1  0  -0.300924  0  3.633279  0  0  -0.342824  0  3.874881  0  0  -0.349308  0  3.882633  0  0  -0.15024  -0.338276  0  3.869481  0
C  C43  1  0.91887256  0.05873526  0.34805722  1  0  -0.301161  0  3.630455  0  0  -0.343261  0  3.871477  0  0  -0.349775  0  3.879265  0  0  -0.150602  -0.338821  0  3.866241  0
C  C44  1  0.41302361  0.46903333  0.46474177  1  0  -0.118535  0  3.633842  0  0  -0.127003  0  3.86568  0  0  -0.131805  0  3.879133  0  0  -0.078451  -0.123687  0  3.856378  0
C  C45  1  0.08698132  0.00430289  0.53526621  1  0  -0.120472  0  3.634628  0  0  -0.12859  0  3.867063  0  0  -0.133349  0  3.880519  0  0  -0.078894  -0.125266  0  3.85779  0
C  C46  1  0.58699363  0.53098650  0.53527226  1  0  -0.118278  0  3.633999  0  0  -0.127081  0  3.866098  0  0  -0.13188  0  3.879549  0  0  -0.078647  -0.123771  0  3.856797  0
C  C47  1  0.91302291  0.99569651  0.46473619  1  0  -0.120523  0  3.634963  0  0  -0.128592  0  3.867363  0  0  -0.133344  0  3.880797  0  0  -0.078877  -0.125264  0  3.858088  0
C  C48  1  0.29807341  0.44472333  0.55838774  1  0  0.728721  0  3.793643  0  0  0.688978  0  4.080642  0  0  0.720351  0  4.072915  0  0  0.243449  0.667698  0  4.085276  0
C  C49  1  0.20202610  0.88680972  0.44153956  1  0  0.729191  0  3.792954  0  0  0.687067  0  4.083405  0  0  0.718471  0  4.075632  0  0  0.242582  0.665748  0  4.088059  0
C  C50  1  0.70190255  0.55526542  0.44159149  1  0  0.728735  0  3.793614  0  0  0.689126  0  4.080535  0  0  0.720496  0  4.072798  0  0  0.243614  0.66784  0  4.085176  0
C  C51  1  0.79798405  0.11318412  0.55846195  1  0  0.729227  0  3.79307  0  0  0.687084  0  4.083534  0  0  0.718488  0  4.075755  0  0  0.242583  0.665764  0  4.088189  0
O  O52  1  0.14254782  0.31572359  0.25274298  1  0  -0.800152  0  1.952492  0  0  -0.75095  0  2.194404  0  0  -0.77217  0  2.179249  0  0  -0.445415  -0.736164  0  2.204561  0
O  O53  1  0.35754832  0.06238037  0.74710388  1  0  -0.799724  0  1.954365  0  0  -0.750444  0  2.195777  0  0  -0.771723  0  2.180689  0  0  -0.445229  -0.735621  0  2.205879  0
O  O54  1  0.85746000  0.68430321  0.74726656  1  0  -0.800363  0  1.95243  0  0  -0.751127  0  2.19436  0  0  -0.77234  0  2.179202  0  0  -0.445581  -0.736332  0  2.2045  0
O  O55  1  0.64245398  0.93762592  0.25289012  1  0  -0.799731  0  1.954476  0  0  -0.750454  0  2.195784  0  0  -0.77173  0  2.180699  0  0  -0.445197  -0.735633  0  2.205886  0
O  O56  1  0.26930156  0.04878921  0.17660006  1  0  -0.729556  0  1.93528  0  0  -0.676921  0  2.165686  0  0  -0.700647  0  2.152259  0  0  -0.358164  -0.660395  0  2.174608  0
O  O57  1  0.23089882  0.87193303  0.82347530  1  0  -0.72873  0  1.935863  0  0  -0.676445  0  2.165971  0  0  -0.700154  0  2.152534  0  0  -0.357837  -0.659937  0  2.17488  0
O  O58  1  0.73073953  0.95118099  0.82340000  1  0  -0.729505  0  1.935296  0  0  -0.67687  0  2.165785  0  0  -0.700585  0  2.152354  0  0  -0.358162  -0.66035  0  2.174708  0
O  O59  1  0.76911014  0.12806220  0.17652737  1  0  -0.728832  0  1.935988  0  0  -0.676545  0  2.166039  0  0  -0.700254  0  2.152603  0  0  -0.357912  -0.660037  0  2.174947  0
O  O60  1  0.15211548  0.49787517  0.55017818  1  0  -0.767946  0  2.014932  0  0  -0.727078  0  2.266424  0  0  -0.747418  0  2.253302  0  0  -0.432037  -0.712891  0  2.275111  0
O  O61  1  0.34775528  0.94864193  0.44946960  1  0  -0.767809  0  2.01309  0  0  -0.726115  0  2.265644  0  0  -0.746492  0  2.252654  0  0  -0.431929  -0.7119  0  2.2743  0
O  O62  1  0.84788808  0.50213932  0.44983064  1  0  -0.768219  0  2.014506  0  0  -0.727318  0  2.265819  0  0  -0.747729  0  2.252833  0  0  -0.432222  -0.713128  0  2.27451  0
O  O63  1  0.65224047  0.05135346  0.55051932  1  0  -0.767838  0  2.012815  0  0  -0.726169  0  2.265416  0  0  -0.746572  0  2.252472  0  0  -0.432018  -0.711953  0  2.274074  0
O  O64  1  0.35127727  0.37034629  0.63976819  1  0  -0.719596  0  2.014585  0  0  -0.66692  0  2.249753  0  0  -0.689888  0  2.236718  0  0  -0.378117  -0.650787  0  2.258241  0
O  O65  1  0.14912127  0.73081343  0.36036015  1  0  -0.718704  0  2.014127  0  0  -0.665296  0  2.250378  0  0  -0.688321  0  2.237397  0  0  -0.377726  -0.649229  0  2.259015  0
O  O66  1  0.64871723  0.62965185  0.36022674  1  0  -0.719499  0  2.015126  0  0  -0.666868  0  2.250245  0  0  -0.68984  0  2.237221  0  0  -0.378087  -0.650739  0  2.258738  0
O  O67  1  0.85088648  0.26917498  0.63962804  1  0  -0.718675  0  2.014341  0  0  -0.665272  0  2.250621  0  0  -0.688289  0  2.237628  0  0  -0.377703  -0.649207  0  2.259262  0
O  O68  1  0.83083442  0.52417852  0.16312155  1  0  -0.901398  0  1.811264  0  0  -0.849846  0  1.987162  0  0  -0.867202  0  1.954099  0  0  -0.599539  -0.837601  0  2.010499  0
O  O69  1  0.66926046  0.36071101  0.83680413  1  0  -0.901898  0  1.812447  0  0  -0.85013  0  1.988265  0  0  -0.867507  0  1.955135  0  0  -0.599118  -0.837876  0  2.011613  0
O  O70  1  0.16916748  0.47582227  0.83687828  1  0  -0.901334  0  1.811386  0  0  -0.849776  0  1.987275  0  0  -0.867139  0  1.954216  0  0  -0.599504  -0.837534  0  2.010611  0
O  O71  1  0.33074113  0.63928429  0.16319793  1  0  -0.901874  0  1.812334  0  0  -0.850104  0  1.988206  0  0  -0.867481  0  1.955079  0  0  -0.599184  -0.837851  0  2.011553  0
O  O72  1  0.94879358  0.23136203  0.94745982  1  0  -0.883049  0  1.753806  0  0  -0.835548  0  1.903242  0  0  -0.852653  0  1.871078  0  0  -0.630308  -0.82342  0  1.925889  0
O  O73  1  0.55114405  0.28403430  0.05245990  1  0  -0.882136  0  1.753493  0  0  -0.834047  0  1.903499  0  0  -0.851168  0  1.871358  0  0  -0.629375  -0.821959  0  1.926179  0
O  O74  1  0.05120188  0.76863334  0.05254083  1  0  -0.882974  0  1.753815  0  0  -0.835472  0  1.90325  0  0  -0.85258  0  1.871085  0  0  -0.630289  -0.82336  0  1.925927  0
O  O75  1  0.44884447  0.71597349  0.94754688  1  0  -0.882238  0  1.753568  0  0  -0.834157  0  1.903518  0  0  -0.851279  0  1.871374  0  0  -0.629474  -0.82207  0  1.926198  0
