# generated using pymatgen
data_CuH30C24(NO2)4
_symmetry_space_group_name_H-M   'P 1'
_cell_length_a   6.75447280
_cell_length_b   10.89210627
_cell_length_c   11.19498013
_cell_angle_alpha   114.76468167
_cell_angle_beta   98.97407170
_cell_angle_gamma   103.10261024
_symmetry_Int_Tables_number   1
_chemical_formula_structural   CuH30C24(NO2)4
_chemical_formula_sum   'Cu1 H30 C24 N4 O8'
_cell_volume   698.46659658
_cell_formula_units_Z   1
loop_
 _symmetry_equiv_pos_site_id
 _symmetry_equiv_pos_as_xyz
  1  'x, y, z'
loop_
 _atom_site_type_symbol
 _atom_site_label
 _atom_site_symmetry_multiplicity
 _atom_site_fract_x
 _atom_site_fract_y
 _atom_site_fract_z
 _atom_site_occupancy
 _atom_site_hle17_ddec_charge
 _atom_site_hle17_ddec_spin_density
 _atom_site_hle17_ddec_sum_bond_order
 _atom_site_hle17_magmom
 _atom_site_hse06_10hf_ddec_charge
 _atom_site_hse06_10hf_ddec_spin_density
 _atom_site_hse06_10hf_ddec_sum_bond_order
 _atom_site_hse06_10hf_magmom
 _atom_site_hse06_ddec_charge
 _atom_site_hse06_ddec_spin_density
 _atom_site_hse06_ddec_sum_bond_order
 _atom_site_hse06_magmom
 _atom_site_pbe_cm5_charge
 _atom_site_pbe_ddec_charge
 _atom_site_pbe_ddec_spin_density
 _atom_site_pbe_ddec_sum_bond_order
 _atom_site_pbe_magmom
Cu  Cu0  1  0.50002465  0.00000243  0.00001931  1  0.846056  -0.694193  1.783908  -0.511  0.82632  -0.780651  2.159526  -0.629  0.917637  -0.848409  2.094016  -0.717  0.731724  0.771578  -0.733195  2.203843  -0.572
H  H1  1  0.19960028  0.54987488  0.72632593  1  0.089833  0.000126  0.952993  0.0  0.10314  7.3e-05  1.019437  0.0  0.104331  6.8e-05  1.018543  0.0  0.11655  0.10214  7.7e-05  1.02024  0.0
H  H2  1  0.80039830  0.45014847  0.27368060  1  0.089772  0.000128  0.952992  0.0  0.103095  7.3e-05  1.01942  0.0  0.104285  6.8e-05  1.018526  0.0  0.116506  0.102087  7.7e-05  1.020233  0.0
H  H3  1  0.92143018  0.46130381  0.65057945  1  0.067466  -2e-06  0.918635  0.0  0.084167  -1.4e-05  0.982425  0.0  0.0848  -8e-06  0.981211  0.0  0.106476  0.083499  -1.8e-05  0.983623  0.0
H  H4  1  0.07856974  0.53871548  0.34942833  1  0.067409  2e-06  0.918563  0.0  0.084096  -1.4e-05  0.982419  0.0  0.08473  -8e-06  0.981199  0.0  0.106439  0.083423  -1.8e-05  0.983621  0.0
H  H5  1  0.33606114  0.42003200  0.32621645  1  0.111979  -0.000295  0.959373  0.0  0.119257  -0.000361  1.026304  0.0  0.12244  -0.000255  1.025318  0.0  0.11233  0.116983  -0.000447  1.027098  0.0
H  H6  1  0.66390735  0.57994943  0.67375368  1  0.111883  -0.000297  0.959526  0.0  0.119253  -0.000361  1.026357  0.0  0.122439  -0.000255  1.025363  0.0  0.112332  0.116982  -0.000447  1.027153  0.0
H  H7  1  0.24632669  0.36585881  0.01920967  1  0.074312  0.000105  0.941379  0.0  0.093285  5e-05  0.99939  0.0  0.09407  3.3e-05  0.999502  0.0  0.093098  0.092243  5.1e-05  1.000172  0.0
H  H8  1  0.75368254  0.63413027  0.98078023  1  0.074285  0.0001  0.941559  0.0  0.093275  5e-05  0.999515  0.0  0.094076  3.3e-05  0.999591  0.0  0.09306  0.0922  5.1e-05  1.000331  0.0
H  H9  1  0.17631521  0.48592417  0.15544830  1  0.05733  3.4e-05  0.946009  0.0  0.075467  -1.4e-05  1.01201  0.0  0.076003  -8e-06  1.01222  0.0  0.08384  0.075084  -1.9e-05  1.011792  0.0
H  H10  1  0.82368843  0.51406034  0.84455118  1  0.05744  3.5e-05  0.946102  0.0  0.075514  -1.4e-05  1.012161  0.0  0.076055  -8e-06  1.012358  0.0  0.083845  0.075134  -1.9e-05  1.011945  0.0
H  H11  1  0.89429133  0.29347661  0.85962530  1  0.07222  0.000171  0.894918  0.0  0.088989  -7.2e-05  0.943436  0.0  0.089679  -4e-06  0.944408  0.0  0.103648  0.08848  -0.000135  0.942914  0.0
H  H12  1  0.10572230  0.70652688  0.14037834  1  0.072191  0.000167  0.89498  0.0  0.088951  -7.1e-05  0.943488  0.0  0.089639  -4e-06  0.944462  0.0  0.103631  0.088443  -0.000135  0.942955  0.0
H  H13  1  0.36202983  0.10646816  0.46377759  1  0.117028  -0.000477  0.926771  0.0  0.129664  -0.000533  0.977521  0.0  0.132804  -0.00038  0.976845  0.0  0.1164  0.127182  -0.000613  0.978522  -0.001
H  H14  1  0.63795538  0.89354167  0.53624454  1  0.117118  -0.000474  0.92702  0.0  0.129756  -0.000532  0.977742  0.0  0.132896  -0.00038  0.977066  0.0  0.116403  0.12727  -0.000613  0.978747  -0.001
H  H15  1  0.79862778  0.30498915  0.39370566  1  0.067839  0.000101  0.942258  0.0  0.08196  5.2e-05  1.007911  0.0  0.080967  4.9e-05  1.010502  0.0  0.103726  0.082614  5.4e-05  1.006215  0.0
H  H16  1  0.20135815  0.69502493  0.60628675  1  0.067831  9.3e-05  0.942145  0.0  0.081956  5.1e-05  1.007798  0.0  0.080964  4.9e-05  1.010393  0.0  0.103775  0.082608  5.4e-05  1.006105  0.0
H  H17  1  0.98894292  0.28339604  0.30151112  1  0.095356  3e-06  0.959885  0.0  0.111874  2e-05  1.017936  0.0  0.111658  1.6e-05  1.019723  0.0  0.116349  0.111853  2.1e-05  1.016954  0.0
H  H18  1  0.01103783  0.71661606  0.69848291  1  0.095257  -2e-06  0.959875  0.0  0.111771  1.9e-05  1.017918  0.0  0.111555  1.6e-05  1.019707  0.0  0.116306  0.111756  2.1e-05  1.016929  0.0
H  H19  1  0.43730859  0.27316769  0.12292468  1  0.096449  -0.000722  0.949863  -0.002  0.103633  -0.000556  1.014444  -0.001  0.106817  -0.000384  1.010672  -0.001  0.12759  0.100985  -0.00071  1.0177  -0.002
H  H20  1  0.56268969  0.72679952  0.87706440  1  0.096559  -0.000722  0.950031  -0.002  0.103866  -0.000556  1.014501  -0.001  0.106969  -0.000384  1.010825  -0.001  0.127672  0.101217  -0.000709  1.017757  -0.002
H  H21  1  0.46830438  0.97190195  0.25145266  1  0.099508  -0.000681  0.923499  -0.001  0.110202  -0.00062  0.977917  -0.001  0.112768  -0.000448  0.975738  -0.001  0.127228  0.108024  -0.000738  0.979894  -0.001
H  H22  1  0.53170290  0.02810144  0.74858100  1  0.099542  -0.000684  0.923298  -0.001  0.110128  -0.00062  0.977831  -0.001  0.112691  -0.000448  0.975646  -0.001  0.12713  0.107958  -0.000739  0.979803  -0.001
H  H23  1  0.78117161  0.49677664  0.10587631  1  0.064774  -1.3e-05  0.945751  0.0  0.082056  -2.5e-05  1.010811  0.0  0.08276  -1e-05  1.010798  0.0  0.086402  0.08151  -3.1e-05  1.010816  0.0
H  H24  1  0.21884251  0.50321433  0.89412626  1  0.064875  -1.4e-05  0.945596  0.0  0.082135  -2.4e-05  1.010675  0.0  0.082838  -1e-05  1.010663  0.0  0.086458  0.081589  -3.1e-05  1.010685  0.0
H  H25  1  0.60915889  0.38268855  0.93918245  1  0.084449  -0.000384  0.924666  0.0  0.10336  -0.000248  0.979311  0.0  0.104646  -0.000136  0.979086  0.0  0.094166  0.102354  -0.000363  0.979638  0.0
H  H26  1  0.39085200  0.61730547  0.06081925  1  0.084496  -0.000381  0.924665  0.0  0.103425  -0.000247  0.979293  0.0  0.104714  -0.000136  0.979046  0.0  0.094193  0.102415  -0.000363  0.97962  0.0
H  H27  1  0.10271709  0.93409672  0.89264232  1  0.3906  0.000223  0.932685  0.0  0.357229  0.000232  1.004372  0.0  0.368405  0.000251  0.988007  0.0  0.26649  0.34913  0.000187  1.016234  0.0
H  H28  1  0.89731371  0.06590948  0.10732309  1  0.39061  0.000223  0.932717  0.0  0.357102  0.000232  1.004629  0.0  0.368277  0.000251  0.988272  0.0  0.266432  0.349008  0.000187  1.016481  0.0
H  H29  1  0.12411605  0.08672695  0.91804055  1  0.40365  6.7e-05  0.894837  0.0  0.382675  7.1e-05  0.946271  0.0  0.392733  4.3e-05  0.931665  0.0  0.279095  0.375378  8.3e-05  0.957023  0.0
H  H30  1  0.87589025  0.91328129  0.08194110  1  0.403668  6.9e-05  0.894785  0.0  0.382664  7.1e-05  0.946282  0.0  0.392725  4.4e-05  0.931671  0.0  0.279139  0.375364  8.3e-05  0.957041  0.0
C  C31  1  0.06871134  0.51345764  0.63536645  1  -0.011384  3.5e-05  3.637808  0.0  -0.078487  5.9e-05  3.906437  0.0  -0.073229  5.9e-05  3.916098  0.0  -0.057623  -0.081933  5.2e-05  3.899893  0.0
C  C32  1  0.93127951  0.48656554  0.36463773  1  -0.010965  3.3e-05  3.637685  0.0  -0.078125  5.8e-05  3.90644  0.0  -0.072861  6e-05  3.916092  0.0  -0.057462  -0.081572  5.2e-05  3.899877  0.0
C  C33  1  0.35855837  0.32017412  0.31417135  1  -0.126252  -0.010197  3.698548  -0.011  -0.151477  -0.003554  3.954586  -0.004  -0.156672  -0.003292  3.971861  -0.004  -0.07662  -0.148305  -0.003716  3.943266  -0.004
C  C34  1  0.64142614  0.67981603  0.68582008  1  -0.126317  -0.01019  3.698447  -0.011  -0.151567  -0.003553  3.95448  -0.004  -0.15676  -0.003294  3.971731  -0.004  -0.076646  -0.148398  -0.003717  3.943167  -0.004
C  C35  1  0.14973989  0.43672016  0.04340638  1  -0.109312  -0.00106  3.679232  -0.001  -0.15685  -0.000656  3.942934  -0.001  -0.157186  -0.000352  3.957743  0.0  -0.166408  -0.156244  -0.00094  3.932592  -0.001
C  C36  1  0.85026257  0.56326930  0.95658950  1  -0.109507  -0.001049  3.679658  -0.001  -0.157032  -0.000655  3.943273  -0.001  -0.157359  -0.000353  3.958047  0.0  -0.166363  -0.156414  -0.000942  3.932949  -0.001
C  C37  1  0.33005656  0.27075670  0.40890840  1  0.016107  0.013325  3.746101  0.009  0.031539  0.004608  3.985363  0.003  0.033223  0.005084  4.002123  0.003  0.008934  0.030089  0.004242  3.974421  0.003
C  C38  1  0.66993367  0.72924137  0.59109262  1  0.016249  0.013305  3.745797  0.009  0.031701  0.004607  3.985013  0.003  0.033384  0.005087  4.001779  0.003  0.008901  0.030255  0.004241  3.974063  0.003
C  C39  1  0.91427150  0.34949694  0.97165608  1  -0.110103  -0.010964  3.64033  -0.012  -0.111718  -0.006231  3.885438  -0.007  -0.118385  -0.004126  3.900871  -0.005  -0.087759  -0.107082  -0.007884  3.874571  -0.009
C  C40  1  0.08574525  0.65050344  0.02834748  1  -0.110048  -0.010991  3.640181  -0.012  -0.111562  -0.006238  3.885179  -0.007  -0.118236  -0.004126  3.900616  -0.005  -0.08776  -0.106923  -0.007887  3.874306  -0.009
C  C41  1  0.37489754  0.14533678  0.38920984  1  -0.126901  -0.010017  3.71095  -0.011  -0.148223  -0.003524  3.95609  -0.004  -0.153823  -0.003305  3.973736  -0.004  -0.072413  -0.144688  -0.003671  3.944634  -0.004
C  C42  1  0.62508388  0.85467334  0.61080141  1  -0.127145  -0.010027  3.710986  -0.011  -0.148494  -0.003524  3.956073  -0.004  -0.154094  -0.003308  3.973715  -0.004  -0.072511  -0.144952  -0.003672  3.944616  -0.004
C  C43  1  0.26950056  0.35504460  0.53454358  1  0.47032  -0.000452  3.8518  -0.001  0.422288  -4.7e-05  4.141581  0.0  0.450608  -2.2e-05  4.141091  0.0  0.236542  0.403247  -7e-05  4.141256  0.0
C  C44  1  0.73047226  0.64495127  0.46545642  1  0.470377  -0.000449  3.852359  -0.001  0.422299  -4.7e-05  4.142168  0.0  0.450613  -2.3e-05  4.141688  0.0  0.236649  0.403256  -7e-05  4.141837  0.0
C  C45  1  0.95171226  0.36067804  0.38762713  1  -0.019125  0.000139  3.635301  0.0  -0.0797  0.000125  3.893208  0.0  -0.075625  0.00012  3.906012  0.0  -0.057921  -0.082241  0.000118  3.884332  0.0
C  C46  1  0.04828212  0.63933984  0.61237530  1  -0.018833  0.000173  3.635352  0.0  -0.079436  0.000127  3.89329  0.0  -0.075364  0.000119  3.906102  0.0  -0.057906  -0.081982  0.000118  3.88442  0.0
C  C47  1  0.41648912  0.23954038  0.20017584  1  0.149239  0.013224  3.664387  0.009  0.117826  0.003271  3.925404  0.002  0.128634  0.004837  3.939014  0.003  0.05737  0.110743  0.002008  3.916997  0.001
C  C48  1  0.58348172  0.76043763  0.79982093  1  0.149079  0.013229  3.664244  0.009  0.117466  0.003272  3.925411  0.002  0.128331  0.004841  3.93905  0.003  0.057383  0.110379  0.002009  3.917013  0.001
C  C49  1  0.43313850  0.07056448  0.27288428  1  0.125906  0.011466  3.680416  0.008  0.097014  0.002172  3.936999  0.001  0.106167  0.003693  3.954268  0.002  0.05  0.091003  0.001049  3.925833  0.0
C  C50  1  0.56685021  0.92943284  0.72713698  1  0.125704  0.011475  3.680432  0.008  0.09692  0.002169  3.936969  0.001  0.106078  0.003696  3.95424  0.002  0.050093  0.090912  0.001048  3.925789  0.0
C  C51  1  0.84264705  0.22893198  0.00797253  1  0.649351  0.007263  3.82452  0.008  0.600998  0.001324  4.139533  0.002  0.637539  0.001919  4.134193  0.002  0.212412  0.576397  0.000661  4.141835  0.002
C  C52  1  0.15735022  0.77105783  0.99201331  1  0.649264  0.007286  3.824604  0.008  0.600823  0.001326  4.139738  0.002  0.637361  0.001916  4.134406  0.002  0.212255  0.576221  0.000659  4.142049  0.002
C  C53  1  0.77561648  0.44640992  0.99649404  1  -0.117829  -0.000834  3.672248  -0.001  -0.162783  -0.00075  3.933502  -0.001  -0.162574  -0.000394  3.946754  0.0  -0.167742  -0.162654  -0.001091  3.923981  -0.001
C  C54  1  0.22440287  0.55357908  0.00350991  1  -0.117957  -0.000831  3.671951  -0.001  -0.162938  -0.00075  3.933224  -0.001  -0.162711  -0.000393  3.946465  0.0  -0.167722  -0.162812  -0.001091  3.923717  -0.001
N  N55  1  0.11132083  0.41017499  0.51673453  1  -0.215219  0.000318  3.387997  0.0  -0.128052  0.000154  3.626353  0.0  -0.149743  0.000158  3.648217  0.0  -0.279225  -0.113165  8.3e-05  3.610879  0.0
N  N56  1  0.88868899  0.58983763  0.48326601  1  -0.21537  0.00031  3.388259  0.0  -0.128157  0.000152  3.626617  0.0  -0.149851  0.000158  3.648489  0.0  -0.279204  -0.113263  8.3e-05  3.611135  0.0
N  N57  1  0.44896015  0.11576258  0.17834059  1  -0.283774  -0.071476  3.319462  -0.091  -0.234498  -0.048586  3.608882  -0.066  -0.264011  -0.039725  3.629673  -0.058  -0.345216  -0.217268  -0.053545  3.597015  -0.069
N  N58  1  0.55104526  0.88422694  0.82167163  1  -0.283359  -0.071477  3.319283  -0.091  -0.23402  -0.048587  3.608625  -0.066  -0.263534  -0.039726  3.629412  -0.058  -0.345157  -0.216789  -0.053547  3.596754  -0.069
O  O59  1  0.97904598  0.17936024  0.04423902  1  -0.635047  -0.000827  2.044291  -0.003  -0.574617  -3.8e-05  2.269956  -0.001  -0.603113  0.000844  2.263388  0.0  -0.306706  -0.554358  -0.000809  2.273928  -0.002
O  O60  1  0.02098526  0.82062466  0.95573368  1  -0.63489  -0.000824  2.04432  -0.003  -0.574453  -3.6e-05  2.269969  -0.001  -0.602947  0.000845  2.263402  0.0  -0.306597  -0.554171  -0.000807  2.273906  -0.002
O  O61  1  0.37114989  0.37861103  0.64893140  1  -0.530849  0.001184  1.882091  0.001  -0.495913  0.000525  2.091661  0.0  -0.515227  0.000528  2.085788  0.0  -0.30359  -0.482467  0.000376  2.095284  0.0
O  O62  1  0.62882322  0.62138749  0.35109290  1  -0.530787  0.001188  1.882895  0.001  -0.495821  0.000525  2.092458  0.0  -0.515126  0.000527  2.086589  0.0  -0.303598  -0.48238  0.000377  2.096076  0.0
O  O63  1  0.64413387  0.18328197  0.99642837  1  -0.599425  -0.09331  2.085783  -0.127  -0.577479  -0.057714  2.375657  -0.087  -0.622213  -0.042173  2.370793  -0.069  -0.318005  -0.547446  -0.068362  2.378638  -0.097
O  O64  1  0.35588222  0.81671732  0.00358997  1  -0.599413  -0.093375  2.085569  -0.127  -0.577577  -0.057742  2.375618  -0.087  -0.622303  -0.042191  2.370719  -0.069  -0.318003  -0.547538  -0.068398  2.378597  -0.097
O  O65  1  0.16699419  0.00502387  0.86337704  1  -0.84177  0.001047  1.781184  0.0  -0.810115  0.00115  1.939121  0.0  -0.828209  0.001534  1.907152  0.0  -0.625417  -0.797018  0.00072  1.962376  0.0
O  O66  1  0.83303681  0.99500008  0.13660579  1  -0.841802  0.001046  1.781128  0.0  -0.810048  0.001149  1.93926  0.0  -0.82815  0.001534  1.907279  0.0  -0.625402  -0.796929  0.00072  1.962462  0.0
