# generated using pymatgen
data_MnCuH6C14(NO4)2
_symmetry_space_group_name_H-M   'P 1'
_cell_length_a   4.78975414
_cell_length_b   9.47044412
_cell_length_c   14.92851756
_cell_angle_alpha   89.92043111
_cell_angle_beta   89.89861933
_cell_angle_gamma   103.09845060
_symmetry_Int_Tables_number   1
_chemical_formula_structural   MnCuH6C14(NO4)2
_chemical_formula_sum   'Mn2 Cu2 H12 C28 N4 O16'
_cell_volume   659.55316873
_cell_formula_units_Z   2
loop_
 _symmetry_equiv_pos_site_id
 _symmetry_equiv_pos_as_xyz
  1  'x, y, z'
loop_
 _atom_site_type_symbol
 _atom_site_label
 _atom_site_symmetry_multiplicity
 _atom_site_fract_x
 _atom_site_fract_y
 _atom_site_fract_z
 _atom_site_occupancy
 _atom_site_pbe_cm5_charge
 _atom_site_pbe_ddec_charge
 _atom_site_pbe_ddec_spin_density
 _atom_site_pbe_ddec_sum_bond_order
 _atom_site_pbe_magmom
Mn  Mn0  1  0.00000004  0.49999941  0.50000027  1  0.663508  1.175521  -4.1958  2.399806  -4.305
Mn  Mn1  1  0.99999777  0.99999935  0.99999968  1  0.6682  1.181638  4.461495  2.419156  4.286
Cu  Cu2  1  0.50000066  0.00000048  0.49999932  1  0.734006  0.711607  -0.746829  2.235057  -0.506
Cu  Cu3  1  0.50000021  0.50000045  0.00000063  1  0.727547  0.703766  -0.722855  2.225552  -0.489
H  H4  1  0.97163668  0.69335771  0.68288187  1  0.118142  0.133491  -0.000578  0.999824  -0.001
H  H5  1  0.02697134  0.80624684  0.18365658  1  0.118001  0.133421  -0.000943  0.998817  -0.001
H  H6  1  0.02835956  0.30664155  0.31711767  1  0.11813  0.133455  -0.000578  0.99987  -0.001
H  H7  1  0.97303116  0.19375242  0.81634497  1  0.117993  0.133422  -0.000943  0.998766  -0.001
H  H8  1  0.80908968  0.76620562  0.83518336  1  0.119448  0.125178  -0.000346  0.997107  0.0
H  H9  1  0.19214746  0.73383448  0.33560027  1  0.119509  0.124994  0.000431  0.998522  0.0
H  H10  1  0.19090657  0.23379365  0.16481619  1  0.119432  0.125182  -0.000346  0.997091  0.0
H  H11  1  0.80785505  0.26616478  0.66440128  1  0.119495  0.124985  0.000431  0.998564  0.0
H  H12  1  0.32857632  0.03264669  0.69635300  1  0.124072  0.105443  -0.000972  0.996213  -0.001
H  H13  1  0.66963534  0.46669569  0.19605809  1  0.123831  0.104806  -0.000817  0.996297  -0.001
H  H14  1  0.67142765  0.96735584  0.30364520  1  0.124105  0.10545  -0.000972  0.996207  -0.001
H  H15  1  0.33036508  0.53330358  0.80394213  1  0.123837  0.104797  -0.000817  0.996303  -0.001
C  C16  1  0.74431654  0.83084087  0.61324620  1  0.115646  0.107551  0.001252  3.941843  0.002
C  C17  1  0.25407631  0.66904802  0.11351329  1  0.115338  0.106364  -0.001463  3.941448  -0.002
C  C18  1  0.25568325  0.16916165  0.38675267  1  0.115702  0.107649  0.001253  3.941701  0.002
C  C19  1  0.74592765  0.33095450  0.88648692  1  0.115325  0.106366  -0.001462  3.941473  -0.002
C  C20  1  0.83049658  0.76834886  0.68978731  1  -0.069229  -0.126661  -0.004638  3.924525  -0.004
C  C21  1  0.16823770  0.73124676  0.19019250  1  -0.068925  -0.126098  0.001245  3.921105  0.001
C  C22  1  0.16950016  0.23165150  0.31021022  1  -0.069278  -0.126674  -0.004639  3.924607  -0.004
C  C23  1  0.83176786  0.26875467  0.80980904  1  -0.068874  -0.125967  0.001244  3.921043  0.001
C  C24  1  0.73871177  0.80714635  0.77291928  1  -0.048123  -0.021763  0.003224  3.886691  0.003
C  C25  1  0.26107278  0.69251879  0.27323558  1  -0.047646  -0.021053  0.000903  3.883865  0.0
C  C26  1  0.26128126  0.19285508  0.22708093  1  -0.048122  -0.021821  0.003224  3.886809  0.003
C  C27  1  0.73893279  0.30748265  0.72676463  1  -0.047694  -0.021168  0.000903  3.884032  0.0
C  C28  1  0.55496012  0.90293997  0.77705919  1  -0.001405  -0.068129  -0.006226  3.913751  -0.006
C  C29  1  0.44441612  0.59649088  0.27712684  1  -0.000851  -0.067873  -0.000769  3.91392  -0.001
C  C30  1  0.44503614  0.09705930  0.22293835  1  -0.001354  -0.068088  -0.006229  3.913798  -0.006
C  C31  1  0.55559056  0.40350839  0.72287404  1  -0.000828  -0.067867  -0.000769  3.914045  -0.001
C  C32  1  0.47094159  0.95779070  0.69706570  1  0.061496  0.087917  0.002896  3.90046  0.003
C  C33  1  0.52741670  0.54161480  0.19701418  1  0.061129  0.088233  -0.002683  3.901074  -0.002
C  C34  1  0.52905611  0.04221181  0.30293384  1  0.061429  0.087859  0.002897  3.900427  0.003
C  C35  1  0.47258581  0.45838447  0.80298603  1  0.061131  0.08829  -0.002683  3.901006  -0.002
C  C36  1  0.84688603  0.80694578  0.52067829  1  0.219052  0.550784  -0.019657  4.205139  -0.017
C  C37  1  0.15243970  0.69348253  0.02098113  1  0.218922  0.552495  0.021224  4.201492  0.02
C  C38  1  0.15311022  0.19305348  0.47932193  1  0.219022  0.550736  -0.01966  4.20517  -0.017
C  C39  1  0.84756169  0.30651890  0.97901975  1  0.218842  0.552311  0.021223  4.201526  0.02
C  C40  1  0.46477999  0.95054816  0.86660740  1  0.2294  0.603238  0.019712  4.186316  0.018
C  C41  1  0.53540322  0.54932860  0.36667248  1  0.229386  0.602215  -0.019872  4.18481  -0.019
C  C42  1  0.53521626  0.04945111  0.13339281  1  0.22939  0.603225  0.019712  4.186366  0.018
C  C43  1  0.46460137  0.45067067  0.63332840  1  0.229286  0.602068  -0.019872  4.184998  -0.019
N  N44  1  0.56905003  0.92412328  0.61770565  1  -0.35545  -0.24463  -0.051728  3.644448  -0.058
N  N45  1  0.42948192  0.57568134  0.11773187  1  -0.354523  -0.243964  -0.044087  3.64267  -0.049
N  N46  1  0.43095039  0.07587599  0.38229389  1  -0.355426  -0.244608  -0.051727  3.644427  -0.058
N  N47  1  0.57052316  0.42431901  0.88226901  1  -0.354532  -0.244024  -0.044086  3.642701  -0.049
O  O48  1  0.75873592  0.87608926  0.45664777  1  -0.317931  -0.517212  -0.078127  2.325459  -0.095
O  O49  1  0.23764317  0.62306454  0.95719078  1  -0.316468  -0.516603  -0.052528  2.326694  -0.066
O  O50  1  0.24126402  0.12390893  0.54335178  1  -0.317912  -0.517197  -0.078127  2.325472  -0.095
O  O51  1  0.76235515  0.37693472  0.04281077  1  -0.316396  -0.516477  -0.052531  2.326617  -0.066
O  O52  1  0.02229380  0.72693752  0.51064135  1  -0.296153  -0.559073  -0.041244  2.387071  -0.026
O  O53  1  0.98007814  0.77518209  0.01057702  1  -0.29473  -0.556956  0.022709  2.38999  0.001
O  O54  1  0.97770293  0.27306283  0.48935819  1  -0.296159  -0.559072  -0.041243  2.387052  -0.026
O  O55  1  0.01992067  0.22481825  0.98942453  1  -0.294707  -0.556897  0.022708  2.390016  0.001
O  O56  1  0.23699321  0.99779940  0.87137824  1  -0.294541  -0.560939  0.037062  2.261226  0.025
O  O57  1  0.76259611  0.50149187  0.37135713  1  -0.293673  -0.559005  -0.033396  2.256451  -0.024
O  O58  1  0.76300095  0.00219987  0.12862130  1  -0.29452  -0.5609  0.037061  2.261234  0.025
O  O59  1  0.23740639  0.49850740  0.62864375  1  -0.293656  -0.558981  -0.033397  2.256483  -0.024
O  O60  1  0.62644823  0.93718771  0.93154472  1  -0.305146  -0.56166  0.044824  2.436166  0.026
O  O61  1  0.37494033  0.56372334  0.43190144  1  -0.305193  -0.560765  -0.042471  2.437114  -0.027
O  O62  1  0.37355060  0.06281264  0.06845415  1  -0.305175  -0.561668  0.044823  2.436113  0.026
O  O63  1  0.62505961  0.43627484  0.56809945  1  -0.305131  -0.56067  -0.042469  2.437201  -0.027
