# generated using pymatgen
data_Lu2MnH28(C8O9)2
_symmetry_space_group_name_H-M   'P 1'
_cell_length_a   8.76810622
_cell_length_b   8.91862173
_cell_length_c   10.48504020
_cell_angle_alpha   83.93067365
_cell_angle_beta   70.54935339
_cell_angle_gamma   80.27443135
_symmetry_Int_Tables_number   1
_chemical_formula_structural   Lu2MnH28(C8O9)2
_chemical_formula_sum   'Lu2 Mn1 H28 C16 O18'
_cell_volume   760.93795401
_cell_formula_units_Z   1
loop_
 _symmetry_equiv_pos_site_id
 _symmetry_equiv_pos_as_xyz
  1  'x, y, z'
loop_
 _atom_site_type_symbol
 _atom_site_label
 _atom_site_symmetry_multiplicity
 _atom_site_fract_x
 _atom_site_fract_y
 _atom_site_fract_z
 _atom_site_occupancy
 _atom_site_hle17_ddec_charge
 _atom_site_hle17_ddec_spin_density
 _atom_site_hle17_ddec_sum_bond_order
 _atom_site_hle17_magmom
 _atom_site_hse06_10hf_ddec_charge
 _atom_site_hse06_10hf_ddec_spin_density
 _atom_site_hse06_10hf_ddec_sum_bond_order
 _atom_site_hse06_10hf_magmom
 _atom_site_hse06_ddec_charge
 _atom_site_hse06_ddec_spin_density
 _atom_site_hse06_ddec_sum_bond_order
 _atom_site_hse06_magmom
 _atom_site_pbe_cm5_charge
 _atom_site_pbe_ddec_charge
 _atom_site_pbe_ddec_spin_density
 _atom_site_pbe_ddec_sum_bond_order
 _atom_site_pbe_magmom
Lu  Lu0  1  0.92089905  0.07832257  0.68392374  1  1.779758  -0.001135  2.294219  0.0  1.613757  -0.000642  2.755579  0.001  1.677869  -0.001342  2.701883  0.0  1.313488  1.568463  -0.000108  2.792455  0.002
Lu  Lu1  1  0.07912565  0.92167518  0.31606687  1  1.77981  -0.001133  2.29415  0.0  1.613688  -0.000653  2.755558  0.001  1.677856  -0.001207  2.701818  0.001  1.313467  1.568402  -0.000108  2.792423  0.002
Mn  Mn2  1  0.00000082  0.00000297  0.99999384  1  1.256063  4.770628  1.810061  4.671  1.103963  4.687267  2.313907  4.528  1.157798  4.735952  2.242289  4.594  0.629218  1.062656  4.635062  2.36661  4.458
H  H3  1  0.82925460  0.36016268  0.07161400  1  0.145521  -0.000139  0.93212  0.0  0.163806  -8.9e-05  0.989532  0.0  0.166789  -0.000142  0.987986  0.0  0.105317  0.161509  -2.1e-05  0.990878  0.0
H  H4  1  0.17068315  0.63982528  0.92840601  1  0.145522  -0.000137  0.931764  0.0  0.163774  -9e-05  0.989256  0.0  0.166759  -0.000142  0.987703  0.0  0.105282  0.161461  -2.1e-05  0.99062  0.0
H  H5  1  0.64615444  0.43352404  0.02993258  1  0.136246  0.000155  0.937373  0.0  0.156416  0.000255  0.994438  0.0  0.158897  0.000185  0.993191  0.0  0.101841  0.154535  0.000351  0.995465  0.0
H  H6  1  0.35376462  0.56642762  0.97010578  1  0.136263  0.000158  0.937253  0.0  0.156454  0.000255  0.994284  0.0  0.158935  0.000184  0.993037  0.0  0.101848  0.154574  0.000351  0.995308  0.0
H  H7  1  0.83249240  0.50570121  0.94159569  1  0.141703  0.000182  0.936636  0.0  0.163902  0.000365  0.992502  0.0  0.165572  0.000226  0.992829  0.0  0.107149  0.162577  0.000548  0.99243  0.001
H  H8  1  0.16738143  0.49429586  0.05845536  1  0.141681  0.000186  0.936815  0.0  0.163953  0.000365  0.992556  0.0  0.165632  0.000227  0.992869  0.0  0.107142  0.16263  0.000548  0.992481  0.001
H  H9  1  0.72372815  0.73819998  0.06813889  1  0.142036  -0.000161  0.930524  0.0  0.161642  -0.000173  0.986182  0.0  0.164496  -0.000177  0.984455  0.0  0.102076  0.159442  -0.000155  0.987689  0.0
H  H10  1  0.27624686  0.26179949  0.93181037  1  0.142247  -0.000166  0.930711  0.0  0.161805  -0.000172  0.986361  0.0  0.164658  -0.000176  0.984645  0.0  0.102114  0.159613  -0.000155  0.987859  0.0
H  H11  1  0.57570251  0.73656373  0.98335490  1  0.140578  0.000108  0.936893  0.0  0.159728  0.000225  0.997457  0.0  0.16181  0.000135  0.997052  0.0  0.102645  0.158124  0.000352  0.997903  0.0
H  H12  1  0.42426715  0.26346778  0.01656908  1  0.140922  0.000108  0.936758  0.0  0.160009  0.000225  0.997323  0.0  0.162094  0.000136  0.996917  0.0  0.102762  0.158405  0.000352  0.997769  0.0
H  H13  1  0.55557220  0.88855810  0.08436206  1  0.16791  0.000207  0.952522  0.0  0.182745  0.000424  1.015165  0.001  0.186943  0.000255  1.0127  0.0  0.108836  0.179598  0.000655  1.017136  0.001
H  H14  1  0.44439407  0.11144743  0.91559919  1  0.167997  0.000201  0.952521  0.0  0.18283  0.000424  1.015113  0.001  0.187036  0.000256  1.012647  0.0  0.108842  0.179682  0.000655  1.017087  0.001
H  H15  1  0.49672878  0.87003833  0.55618537  1  0.126969  0.000259  0.953562  0.0  0.144628  0.000398  1.015241  0.0  0.147225  0.000319  1.013962  0.0  0.094421  0.142855  0.000491  1.016102  0.0
H  H16  1  0.50327680  0.12997090  0.44381535  1  0.126981  0.000249  0.953462  0.0  0.144643  0.000398  1.01515  0.0  0.14723  0.000319  1.013883  0.0  0.094461  0.142871  0.000491  1.016013  0.0
H  H17  1  0.45022763  0.72159371  0.68422381  1  0.140672  9.6e-05  0.926166  0.0  0.163444  0.000281  0.978642  0.0  0.165319  0.000208  0.978555  0.0  0.106129  0.162234  0.000369  0.978665  0.0
H  H18  1  0.54978894  0.27840464  0.31578499  1  0.140654  9.4e-05  0.926106  0.0  0.16343  0.000281  0.978592  0.0  0.165301  0.000208  0.978509  0.0  0.106134  0.16222  0.00037  0.978616  0.0
H  H19  1  0.53217497  0.87806359  0.71449608  1  0.15757  -5.3e-05  0.967488  0.0  0.171301  5.9e-05  1.032954  0.0  0.174913  2.2e-05  1.03122  0.0  0.102136  0.16878  0.000109  1.03418  0.0
H  H20  1  0.46784337  0.12192842  0.28549772  1  0.157556  -5.7e-05  0.967555  0.0  0.17132  5.9e-05  1.032985  0.0  0.174932  1.9e-05  1.03125  0.0  0.102162  0.168802  0.000109  1.034204  0.0
H  H21  1  0.20355226  0.32060576  0.25211711  1  0.128572  3e-06  0.977776  0.0  0.146466  9.7e-05  1.041062  0.0  0.147955  3.8e-05  1.041509  0.0  0.096557  0.145346  0.000175  1.040873  0.0
H  H22  1  0.79651364  0.67940800  0.74790537  1  0.128557  0.0  0.977814  0.0  0.14646  9.7e-05  1.041128  0.0  0.147925  3.7e-05  1.041601  0.0  0.096537  0.145339  0.000175  1.040939  0.0
H  H23  1  0.25226158  0.41816894  0.37177522  1  0.148683  1.7e-05  0.922451  0.0  0.16941  4.4e-05  0.976898  0.0  0.172311  3.5e-05  0.975208  0.0  0.107885  0.167349  5.4e-05  0.978148  0.0
H  H24  1  0.74779045  0.58185204  0.62826229  1  0.148666  1e-05  0.92217  0.0  0.169444  4.4e-05  0.976615  0.0  0.172335  3.5e-05  0.974933  0.0  0.107946  0.167383  5.4e-05  0.977865  0.0
H  H25  1  0.05926046  0.46610528  0.35202051  1  0.167894  -4e-06  0.934544  0.0  0.184292  4e-06  0.994446  0.0  0.18795  -0.0  0.992353  0.0  0.111951  0.181722  1.4e-05  0.995957  0.0
H  H26  1  0.94078400  0.53389121  0.64801119  1  0.167831  -5e-06  0.934689  0.0  0.184404  5e-06  0.994398  0.0  0.188061  -0.0  0.992305  0.0  0.112015  0.18183  1.4e-05  0.995909  0.0
H  H27  1  0.62211097  0.17563132  0.63270578  1  0.436762  -1e-06  0.801067  0.0  0.423141  2.2e-05  0.846879  0.0  0.430699  9e-06  0.838999  0.0  0.338977  0.417687  6.3e-05  0.852709  0.0
H  H28  1  0.37792383  0.82439876  0.36728529  1  0.436683  -1e-06  0.801185  0.0  0.423167  2.2e-05  0.846812  0.0  0.43073  9e-06  0.838932  0.0  0.339024  0.417706  6.3e-05  0.852645  0.0
H  H29  1  0.74843691  0.11932217  0.48908858  1  0.424476  -0.0  0.884945  0.0  0.387428  1.3e-05  0.958756  0.0  0.399521  3e-06  0.941335  0.0  0.299877  0.37883  2.1e-05  0.971115  0.0
H  H30  1  0.25159026  0.88068346  0.51089765  1  0.424436  -1e-06  0.884997  0.0  0.387376  1.3e-05  0.958828  0.0  0.399469  4e-06  0.941408  0.0  0.299848  0.37878  2e-05  0.971178  0.0
C  C31  1  0.27871775  0.92405181  0.72991976  1  0.786121  0.004034  3.769914  0.005  0.741492  0.007326  4.06354  0.007  0.777133  0.005631  4.054712  0.006  0.239666  0.716889  0.008982  4.068551  0.009
C  C32  1  0.72129578  0.07593522  0.27006721  1  0.785649  0.004005  3.770607  0.005  0.741091  0.007329  4.064151  0.007  0.776733  0.00563  4.055327  0.006  0.239541  0.716491  0.008985  4.069161  0.009
C  C33  1  0.77913639  0.40262612  0.98977376  1  -0.451319  -0.000645  3.659722  0.0  -0.530426  -0.000123  3.893538  0.0  -0.53711  -0.000354  3.895442  0.0  -0.234967  -0.52558  5.4e-05  3.892542  0.0
C  C34  1  0.22078243  0.59734945  0.01026095  1  -0.451519  -0.000713  3.659517  0.0  -0.530569  -0.000119  3.89342  0.0  -0.537264  -0.000361  3.895325  0.0  -0.234956  -0.525706  5.4e-05  3.892434  0.0
C  C35  1  0.64583514  0.80767565  0.01510451  1  -0.465964  -0.00071  3.652022  0.0  -0.546467  -1.8e-05  3.893805  0.0  -0.553707  -0.000323  3.893916  0.0  -0.242792  -0.541256  0.000245  3.894162  0.0
C  C36  1  0.35413053  0.19232641  0.98485632  1  -0.46672  -0.000665  3.652151  0.0  -0.547056  -1.9e-05  3.893874  0.0  -0.554308  -0.000317  3.893975  0.0  -0.242925  -0.541845  0.000245  3.894224  0.0
C  C37  1  0.82426466  0.28712132  0.88430976  1  0.763476  0.007213  3.781956  0.007  0.719785  0.011523  4.079131  0.011  0.754971  0.008097  4.071  0.008  0.216733  0.695029  0.015331  4.084564  0.014
C  C38  1  0.17569604  0.71287576  0.11569777  1  0.763907  0.007249  3.781221  0.007  0.719788  0.011522  4.079106  0.011  0.755002  0.008107  4.070952  0.008  0.216627  0.695037  0.015332  4.084524  0.014
C  C39  1  0.74431271  0.89582674  0.89570316  1  0.756642  0.007246  3.792239  0.007  0.71132  0.011695  4.091527  0.011  0.746706  0.008331  4.082781  0.008  0.214319  0.68642  0.015532  4.097418  0.014
C  C40  1  0.25566828  0.10417672  0.10428237  1  0.756873  0.007232  3.791971  0.007  0.711499  0.011695  4.091315  0.011  0.746896  0.008334  4.082552  0.008  0.214324  0.686601  0.015532  4.097212  0.014
C  C41  1  0.45059098  0.84532939  0.66581795  1  -0.474839  0.000951  3.656277  0.001  -0.551653  0.001308  3.890643  0.001  -0.559393  0.000919  3.89221  0.001  -0.246575  -0.54624  0.001655  3.889235  0.001
C  C42  1  0.54942382  0.15466152  0.33417876  1  -0.474679  0.000992  3.656194  0.001  -0.55153  0.001309  3.890522  0.001  -0.559257  0.000924  3.892105  0.001  -0.246576  -0.546118  0.001655  3.889108  0.001
C  C43  1  0.15645064  0.36989810  0.35107542  1  -0.461561  4.7e-05  3.642004  0.0  -0.540007  0.000138  3.876701  0.0  -0.547292  7.2e-05  3.878275  0.0  -0.23958  -0.534845  0.000192  3.875449  0.0
C  C44  1  0.84361732  0.63010905  0.64895208  1  -0.461604  6.8e-05  3.641286  0.0  -0.540196  0.000137  3.876127  0.0  -0.547469  7.2e-05  3.877728  0.0  -0.239648  -0.535034  0.000192  3.874884  0.0
C  C45  1  0.08800995  0.25623277  0.46220796  1  0.784891  6.5e-05  3.755726  0.0  0.741635  0.000124  4.048057  0.0  0.777009  6.5e-05  4.038748  0.0  0.227198  0.717509  0.000149  4.053742  0.0
C  C46  1  0.91203879  0.74377016  0.53781142  1  0.785403  5.4e-05  3.754574  0.0  0.741829  0.000124  4.047324  0.0  0.77722  6.2e-05  4.038008  0.0  0.227109  0.717697  0.00015  4.053007  0.0
O  O47  1  0.18877145  0.96731614  0.65365688  1  -0.693501  0.001354  2.072483  0.002  -0.621985  0.002962  2.302205  0.004  -0.651947  0.00214  2.292014  0.003  -0.356346  -0.600787  0.003779  2.308593  0.005
O  O48  1  0.81124818  0.03267682  0.34633172  1  -0.693352  0.00136  2.072546  0.002  -0.621861  0.002962  2.302242  0.004  -0.65182  0.002139  2.29204  0.003  -0.356346  -0.600656  0.00378  2.308619  0.005
O  O49  1  0.04914318  0.28863259  0.58482288  1  -0.638947  -9.3e-05  1.961872  0.0  -0.585118  4.1e-05  2.183719  0.0  -0.61204  -2e-05  2.175508  0.0  -0.356508  -0.56663  8.9e-05  2.189102  0.0
O  O50  1  0.95090518  0.71136472  0.41519916  1  -0.639339  -8.7e-05  1.961705  0.0  -0.585159  4.1e-05  2.183475  0.0  -0.612086  -1.5e-05  2.175253  0.0  -0.356439  -0.56667  9e-05  2.188858  0.0
O  O51  1  0.89924197  0.89481971  0.87362513  1  -0.719345  0.026085  2.060319  0.012  -0.653053  0.032764  2.324886  0.015  -0.683768  0.030086  2.310862  0.013  -0.357501  -0.630776  0.035646  2.3343  0.017
O  O52  1  0.10074017  0.10518474  0.12638291  1  -0.719331  0.026078  2.060176  0.012  -0.653081  0.032764  2.324817  0.015  -0.683816  0.030074  2.310801  0.013  -0.357545  -0.630809  0.035645  2.334227  0.017
O  O53  1  0.95766546  0.19078656  0.86734107  1  -0.72178  0.027928  2.065589  0.013  -0.652998  0.034486  2.328996  0.016  -0.684299  0.031564  2.314267  0.014  -0.364078  -0.630268  0.037574  2.338824  0.019
O  O54  1  0.04230106  0.80921568  0.13267683  1  -0.721879  0.027914  2.065132  0.013  -0.652928  0.034471  2.328702  0.016  -0.684332  0.031549  2.314067  0.014  -0.363993  -0.630227  0.037555  2.33856  0.019
O  O55  1  0.67987124  0.97440755  0.81364975  1  -0.654726  0.004837  2.009053  0.006  -0.596054  0.007845  2.235845  0.009  -0.623521  0.006081  2.228639  0.007  -0.34711  -0.577255  0.00979  2.240839  0.011
O  O56  1  0.32013021  0.02560407  0.18632880  1  -0.654891  0.004838  2.00912  0.006  -0.596124  0.007844  2.235845  0.009  -0.623587  0.006058  2.228624  0.007  -0.347093  -0.577326  0.009788  2.240836  0.011
O  O57  1  0.73894738  0.28334045  0.80885690  1  -0.62666  0.005348  1.925039  0.006  -0.575575  0.008437  2.14612  0.01  -0.60205  0.006584  2.138736  0.008  -0.346879  -0.557397  0.010555  2.151154  0.012
O  O58  1  0.26104924  0.71666322  0.19112567  1  -0.626751  0.005346  1.924626  0.006  -0.575502  0.008435  2.145871  0.01  -0.601987  0.006566  2.138492  0.008  -0.346837  -0.55732  0.010553  2.150897  0.012
O  O59  1  0.06182334  0.12558522  0.43708745  1  -0.723709  -2.8e-05  2.102686  0.0  -0.649803  8.3e-05  2.343655  0.0  -0.68144  5e-05  2.335659  0.0  -0.406648  -0.627554  0.000207  2.348488  0.0
O  O60  1  0.93822186  0.87442851  0.56291820  1  -0.724026  -3.4e-05  2.102865  0.0  -0.649868  8.4e-05  2.343736  0.0  -0.681458  6.7e-05  2.335624  0.0  -0.406705  -0.627631  0.000207  2.348608  0.0
O  O61  1  0.73371134  0.17462687  0.57244428  1  -0.827354  3e-05  1.908972  0.0  -0.780112  7.6e-05  2.095846  0.0  -0.799806  7.2e-05  2.068204  0.0  -0.613727  -0.766146  0.000124  2.11519  0.0
O  O62  1  0.26632677  0.82537783  0.42754125  1  -0.827222  2.8e-05  1.909  0.0  -0.780099  7.6e-05  2.095793  0.0  -0.799806  6.9e-05  2.068146  0.0  -0.613778  -0.766126  0.000123  2.115136  0.0
O  O63  1  0.23255504  0.94054833  0.85600472  1  -0.644717  0.031502  2.005996  0.019  -0.575097  0.036428  2.258713  0.02  -0.606639  0.033204  2.2467  0.018  -0.299056  -0.551507  0.039658  2.265992  0.023
O  O64  1  0.76745076  0.05941727  0.14399428  1  -0.644448  0.031501  2.006417  0.019  -0.574948  0.036422  2.259208  0.02  -0.60649  0.033206  2.247197  0.018  -0.298994  -0.551367  0.039653  2.266495  0.023
