# generated using pymatgen
data_AgH11C11N5O2
_symmetry_space_group_name_H-M   'P 1'
_cell_length_a   8.88879494
_cell_length_b   9.22944621
_cell_length_c   9.88559291
_cell_angle_alpha   69.68731064
_cell_angle_beta   69.20976439
_cell_angle_gamma   69.64733468
_symmetry_Int_Tables_number   1
_chemical_formula_structural   AgH11C11N5O2
_chemical_formula_sum   'Ag2 H22 C22 N10 O4'
_cell_volume   687.32020747
_cell_formula_units_Z   2
loop_
 _symmetry_equiv_pos_site_id
 _symmetry_equiv_pos_as_xyz
  1  'x, y, z'
loop_
 _atom_site_type_symbol
 _atom_site_label
 _atom_site_symmetry_multiplicity
 _atom_site_fract_x
 _atom_site_fract_y
 _atom_site_fract_z
 _atom_site_occupancy
 _atom_site_hle17_bader_spin_density
 _atom_site_hle17_ddec_charge
 _atom_site_hle17_ddec_spin_density
 _atom_site_hle17_ddec_sum_bond_order
 _atom_site_hle17_magmom
 _atom_site_hse06_10hf_bader_spin_density
 _atom_site_hse06_10hf_ddec_charge
 _atom_site_hse06_10hf_ddec_spin_density
 _atom_site_hse06_10hf_ddec_sum_bond_order
 _atom_site_hse06_10hf_magmom
 _atom_site_hse06_bader_spin_density
 _atom_site_hse06_ddec_charge
 _atom_site_hse06_ddec_spin_density
 _atom_site_hse06_ddec_sum_bond_order
 _atom_site_hse06_magmom
 _atom_site_pbe_bader_spin_density
 _atom_site_pbe_cm5_charge
 _atom_site_pbe_ddec_charge
 _atom_site_pbe_ddec_spin_density
 _atom_site_pbe_ddec_sum_bond_order
 _atom_site_pbe_magmom
Ag  Ag0  1  0.82392032  0.02282947  0.55136661  1  0  0.543226  0  1.456439  0  0  0.415668  0  1.91075  0  0  0.449018  0  1.858012  0  0  0.41779  0.392492  0  1.94587  0
Ag  Ag1  1  0.17607798  0.97716300  0.44864500  1  0  0.543244  0  1.456398  0  0  0.415691  0  1.910702  0  0  0.449046  0  1.857962  0  0  0.417803  0.39251  0  1.945825  0
H  H2  1  0.59716851  0.30851168  0.59998392  1  0  0.3498  0  0.929486  0  0  0.326237  0  1.001457  0  0  0.335451  0  0.992938  0  0  0.294659  0.319806  0  1.007326  0
H  H3  1  0.40283527  0.69148309  0.40001611  1  0  0.349804  0  0.929528  0  0  0.32624  0  1.001489  0  0  0.335454  0  0.992971  0  0  0.294686  0.319809  0  1.007358  0
H  H4  1  0.38651880  0.41299662  0.65936014  1  0  0.338081  0  0.86981  0  0  0.328557  0  0.918138  0  0  0.335389  0  0.912569  0  0  0.317955  0.323694  0  0.922122  0
H  H5  1  0.61348429  0.58699587  0.34063778  1  0  0.338078  0  0.869933  0  0  0.328513  0  0.918313  0  0  0.335364  0  0.912714  0  0  0.317924  0.323649  0  0.922298  0
H  H6  1  0.50960066  0.69372673  0.67499073  1  0  0.331391  0  0.871406  0  0  0.32346  0  0.919167  0  0  0.330062  0  0.913895  0  0  0.317705  0.318718  0  0.923056  0
H  H7  1  0.49039599  0.30627302  0.32501307  1  0  0.331407  0  0.871238  0  0  0.323477  0  0.919018  0  0  0.330081  0  0.913742  0  0  0.317696  0.318734  0  0.922908  0
H  H8  1  0.69080486  0.75915265  0.62527599  1  0  0.350128  0  0.927148  0  0  0.325873  0  0.999871  0  0  0.334997  0  0.991681  0  0  0.296137  0.319443  0  1.00566  0
H  H9  1  0.30919690  0.24083508  0.37472890  1  0  0.350202  0  0.927061  0  0  0.32591  0  0.999815  0  0  0.335032  0  0.991629  0  0  0.296215  0.319484  0  1.005595  0
H  H10  1  0.03961819  0.85097378  0.79844425  1  0  0.102136  0  0.957011  0  0  0.108094  0  1.022622  0  0  0.112729  0  1.018383  0  0  0.1017  0.104768  0  1.025589  0
H  H11  1  0.96037595  0.14903185  0.20156560  1  0  0.102152  0  0.956863  0  0  0.108099  0  1.022498  0  0  0.112734  0  1.01826  0  0  0.101707  0.104773  0  1.025465  0
H  H12  1  0.73375674  0.87542517  0.89379450  1  0  0.090374  0  0.942854  0  0  0.102428  0  0.998538  0  0  0.105628  0  0.996845  0  0  0.098731  0.099927  0  1.000122  0
H  H13  1  0.26623712  0.12458169  0.10621304  1  0  0.090417  0  0.942939  0  0  0.102445  0  0.998645  0  0  0.105644  0  0.996954  0  0  0.098761  0.099943  0  1.000229  0
H  H14  1  0.54026309  0.12518860  0.96192804  1  0  0.084425  0  0.952461  0  0  0.097276  0  1.0118  0  0  0.099458  0  1.011185  0  0  0.098509  0.095548  0  1.012524  0
H  H15  1  0.45973289  0.87483019  0.03806499  1  0  0.084475  0  0.952474  0  0  0.097318  0  1.011808  0  0  0.0995  0  1.011192  0  0  0.098537  0.095591  0  1.012532  0
H  H16  1  0.65308135  0.34694362  0.93816815  1  0  0.083204  0  0.941042  0  0  0.09537  0  0.996301  0  0  0.099078  0  0.994071  0  0  0.097009  0.092685  0  0.997913  0
H  H17  1  0.34692327  0.65307958  0.06181872  1  0  0.083205  0  0.941225  0  0  0.095431  0  0.996407  0  0  0.099138  0  0.994178  0  0  0.097036  0.092747  0  0.99802  0
H  H18  1  0.95954017  0.32043207  0.84219541  1  0  0.098426  0  0.944387  0  0  0.108984  0  1.002037  0  0  0.112794  0  0.999451  0  0  0.104465  0.106272  0  1.003949  0
H  H19  1  0.04047983  0.67956558  0.15779854  1  0  0.098447  0  0.944457  0  0  0.109046  0  1.002036  0  0  0.112855  0  0.99945  0  0  0.104522  0.106334  0  1.003948  0
H  H20  1  0.82330420  0.49561734  0.60199976  1  0  0.095822  0  0.935923  0  0  0.115246  0  0.991405  0  0  0.116459  0  0.991839  0  0  0.098652  0.114198  0  0.991341  0
H  H21  1  0.17668641  0.50438769  0.39798712  1  0  0.095841  0  0.935837  0  0  0.115198  0  0.991364  0  0  0.116411  0  0.991797  0  0  0.098654  0.114161  0  0.991292  0
H  H22  1  0.87130998  0.57704035  0.40706566  1  0  0.106298  0  0.974746  0  0  0.115257  0  1.046672  0  0  0.118187  0  1.045191  0  0  0.097628  0.112995  0  1.047977  0
H  H23  1  0.12869131  0.42295473  0.59292394  1  0  0.106294  0  0.974908  0  0  0.115257  0  1.046768  0  0  0.118186  0  1.045288  0  0  0.097648  0.113  0  1.048073  0
C  C24  1  0.01739368  0.08593547  0.81140114  1  0  -0.017382  0  3.741114  0  0  0.003887  0  3.966421  0  0  -0.001589  0  3.990399  0  0  -0.007523  0.007855  0  3.949007  0
C  C25  1  0.98260473  0.91407250  0.18859852  1  0  -0.017407  0  3.741019  0  0  0.003774  0  3.966485  0  0  -0.001701  0  3.990459  0  0  -0.007514  0.007741  0  3.949079  0
C  C26  1  0.95334064  0.96005194  0.82677104  1  0  -0.101065  0  3.755977  0  0  -0.119154  0  4.003843  0  0  -0.119973  0  4.021949  0  0  -0.087887  -0.118488  0  3.990421  0
C  C27  1  0.04665598  0.03994791  0.17322667  1  0  -0.101166  0  3.756032  0  0  -0.119227  0  4.00394  0  0  -0.120046  0  4.022051  0  0  -0.087925  -0.11856  0  3.990516  0
C  C28  1  0.78217652  0.97439160  0.88075276  1  0  -0.083326  0  3.793389  0  0  -0.094426  0  4.051382  0  0  -0.097495  0  4.07176  0  0  -0.099296  -0.092219  0  4.036691  0
C  C29  1  0.21781788  0.02562357  0.11925000  1  0  -0.083187  0  3.793378  0  0  -0.09426  0  4.051329  0  0  -0.097329  0  4.071706  0  0  -0.099237  -0.092052  0  4.036637  0
C  C30  1  0.67385703  0.11393291  0.91998758  1  0  -0.045709  0  3.742099  0  0  -0.067276  0  4.002402  0  0  -0.067128  0  4.023459  0  0  -0.090291  -0.066952  0  3.987018  0
C  C31  1  0.32614274  0.88607976  0.08000918  1  0  -0.045822  0  3.74211  0  0  -0.067371  0  4.002388  0  0  -0.067222  0  4.023444  0  0  -0.090386  -0.067047  0  3.987006  0
C  C32  1  0.73721985  0.23892206  0.90571916  1  0  -0.068906  0  3.768366  0  0  -0.083008  0  4.025771  0  0  -0.085489  0  4.045919  0  0  -0.094012  -0.080801  0  4.01112  0
C  C33  1  0.26277887  0.76109530  0.09428052  1  0  -0.069013  0  3.768734  0  0  -0.083183  0  4.026147  0  0  -0.085666  0  4.046295  0  0  -0.094061  -0.080972  0  4.01149  0
C  C34  1  0.90789793  0.22507455  0.85186526  1  0  -0.065336  0  3.70244  0  0  -0.08857  0  3.950004  0  0  -0.088828  0  3.970161  0  0  -0.080315  -0.088212  0  3.935763  0
C  C35  1  0.09210761  0.77492849  0.14812861  1  0  -0.065301  0  3.702337  0  0  -0.088521  0  3.949913  0  0  -0.088777  0  3.970066  0  0  -0.08037  -0.088165  0  3.935678  0
C  C36  1  0.41812705  0.17912691  0.68124201  1  0  0.668787  0  3.867831  0  0  0.621227  0  4.148852  0  0  0.649747  0  4.154699  0  0  0.34294  0.602291  0  4.144385  0
C  C37  1  0.58186944  0.82086815  0.31876128  1  0  0.668829  0  3.867523  0  0  0.621314  0  4.148536  0  0  0.649834  0  4.154381  0  0  0.342972  0.602377  0  4.144067  0
C  C38  1  0.19876721  0.07067334  0.75553444  1  0  0.444998  0  3.809641  0  0  0.418055  0  4.076914  0  0  0.440877  0  4.08634  0  0  0.250713  0.403393  0  4.068464  0
C  C39  1  0.80123505  0.92932281  0.24445856  1  0  0.445058  0  3.809549  0  0  0.418075  0  4.076923  0  0  0.440896  0  4.086343  0  0  0.250742  0.403411  0  4.068476  0
C  C40  1  0.46229759  0.91918346  0.68510494  1  0  0.674898  0  3.850263  0  0  0.626642  0  4.132571  0  0  0.655252  0  4.13806  0  0  0.343132  0.60767  0  4.128192  0
C  C41  1  0.53771175  0.08081342  0.31489468  1  0  0.674812  0  3.850404  0  0  0.626552  0  4.132787  0  0  0.65516  0  4.13828  0  0  0.343085  0.607565  0  4.128432  0
C  C42  1  0.94654460  0.32256687  0.47849795  1  0  0.706833  0  3.837911  0  0  0.656938  0  4.127573  0  0  0.690866  0  4.124355  0  0  0.211805  0.633735  0  4.129319  0
C  C43  1  0.05346227  0.67743022  0.52149633  1  0  0.707045  0  3.837748  0  0  0.657041  0  4.127521  0  0  0.690971  0  4.124301  0  0  0.211821  0.633837  0  4.129277  0
C  C44  1  0.92185454  0.48546573  0.49784914  1  0  -0.250132  0  3.702854  0  0  -0.287736  0  3.95121  0  0  -0.294103  0  3.961023  0  0  -0.173355  -0.283345  0  3.944742  0
C  C45  1  0.07813627  0.51452246  0.50215809  1  0  -0.25023  0  3.703012  0  0  -0.287589  0  3.951124  0  0  -0.293958  0  3.960944  0  0  -0.173345  -0.283222  0  3.94466  0
N  N46  1  0.29701208  0.93125590  0.72655433  1  0  -0.581193  0  2.996988  0  0  -0.543539  0  3.280219  0  0  -0.56684  0  3.286212  0  0  -0.350304  -0.528116  0  3.274729  0
N  N47  1  0.70298079  0.06873925  0.27345312  1  0  -0.581208  0  2.997234  0  0  -0.543502  0  3.280457  0  0  -0.566803  0  3.286451  0  0  -0.350317  -0.528073  0  3.274973  0
N  N48  1  0.25201531  0.19733429  0.73698031  1  0  -0.565863  0  2.986513  0  0  -0.527664  0  3.256341  0  0  -0.550896  0  3.263941  0  0  -0.346556  -0.512178  0  3.250649  0
N  N49  1  0.74799281  0.80266264  0.26301968  1  0  -0.565884  0  2.986335  0  0  -0.527637  0  3.256116  0  0  -0.550875  0  3.263737  0  0  -0.346546  -0.51215  0  3.250425  0
N  N50  1  0.53034924  0.04031938  0.65871640  1  0  -0.610106  0  3.034279  0  0  -0.537061  0  3.311851  0  0  -0.565892  0  3.318643  0  0  -0.359314  -0.51809  0  3.307158  0
N  N51  1  0.46965403  0.95966701  0.34129349  1  0  -0.610021  0  3.03407  0  0  -0.537085  0  3.311754  0  0  -0.565923  0  3.318557  0  0  -0.359299  -0.51811  0  3.30707  0
N  N52  1  0.47335620  0.30998357  0.64506460  1  0  -0.703219  0  3.075992  0  0  -0.665353  0  3.306086  0  0  -0.686641  0  3.299064  0  0  -0.571643  -0.650267  0  3.310324  0
N  N53  1  0.52664746  0.69000642  0.35493999  1  0  -0.703243  0  3.076148  0  0  -0.665329  0  3.306229  0  0  -0.686635  0  3.299182  0  0  -0.571646  -0.650241  0  3.310466  0
N  N54  1  0.56452844  0.77518356  0.67056219  1  0  -0.694984  0  3.065658  0  0  -0.659478  0  3.298853  0  0  -0.680933  0  3.292402  0  0  -0.574503  -0.644564  0  3.302995  0
N  N55  1  0.43546551  0.22480677  0.32944843  1  0  -0.695088  0  3.065463  0  0  -0.659511  0  3.298676  0  0  -0.680965  0  3.29223  0  0  -0.574573  -0.644592  0  3.302823  0
O  O56  1  0.81548768  0.28177185  0.49825145  1  0  -0.649604  0  2.098959  0  0  -0.571029  0  2.358242  0  0  -0.602612  0  2.347419  0  0  -0.334177  -0.549626  0  2.365234  0
O  O57  1  0.18451656  0.71822078  0.50173594  1  0  -0.649644  0  2.099128  0  0  -0.571047  0  2.358459  0  0  -0.602628  0  2.347634  0  0  -0.334124  -0.549644  0  2.365453  0
O  O58  1  0.09433662  0.23630587  0.44408375  1  0  -0.632018  0  2.138434  0  0  -0.544978  0  2.393558  0  0  -0.577639  0  2.384985  0  0  -0.320405  -0.5227  0  2.398865  0
O  O59  1  0.90565747  0.76368922  0.55592434  1  0  -0.632079  0  2.138092  0  0  -0.545046  0  2.393293  0  0  -0.577709  0  2.384719  0  0  -0.320415  -0.522769  0  2.398611  0
