# generated using pymatgen
data_HoAgH12C14N2O11
_symmetry_space_group_name_H-M   'P 1'
_cell_length_a   7.31998056
_cell_length_b   13.08564010
_cell_length_c   19.80752488
_cell_angle_alpha   105.88967778
_cell_angle_beta   90.00004938
_cell_angle_gamma   90.00056150
_symmetry_Int_Tables_number   1
_chemical_formula_structural   HoAgH12C14N2O11
_chemical_formula_sum   'Ho4 Ag4 H48 C56 N8 O44'
_cell_volume   1824.80162826
_cell_formula_units_Z   4
loop_
 _symmetry_equiv_pos_site_id
 _symmetry_equiv_pos_as_xyz
  1  'x, y, z'
loop_
 _atom_site_type_symbol
 _atom_site_label
 _atom_site_symmetry_multiplicity
 _atom_site_fract_x
 _atom_site_fract_y
 _atom_site_fract_z
 _atom_site_occupancy
 _atom_site_pbe_bader_charge
 _atom_site_pbe_bader_spin_density
 _atom_site_pbe_cm5_charge
 _atom_site_pbe_ddec_charge
 _atom_site_pbe_ddec_spin_density
 _atom_site_pbe_ddec_sum_bond_order
 _atom_site_pbe_magmom
Ho  Ho0  1  0.09873530  0.19277176  0.85080824  1  2.158997  0  1.50711  1.976684  0  2.145182  0
Ho  Ho1  1  0.59873469  0.30725623  0.64919545  1  2.159139  0  1.507119  1.976869  0  2.14499  0
Ho  Ho2  1  0.90127223  0.80723476  0.14919270  1  2.158966  0  1.507116  1.976658  0  2.145211  0
Ho  Ho3  1  0.40126737  0.69274083  0.35080739  1  2.159077  0  1.507171  1.97693  0  2.144834  0
Ag  Ag4  1  0.58871155  0.10518618  0.00599115  1  0.604945  0  0.42223  0.453872  0  1.71284  0
Ag  Ag5  1  0.08874897  0.39480344  0.49399539  1  0.604848  0  0.42226  0.453917  0  1.712737  0
Ag  Ag6  1  0.41129188  0.89481544  0.99400288  1  0.604844  0  0.422276  0.453916  0  1.712983  0
Ag  Ag7  1  0.91127358  0.60517662  0.50598989  1  0.604755  0  0.422238  0.453847  0  1.712706  0
H  H8  1  0.20617232  0.39261813  0.13135945  1  0.089917  0  0.111634  0.119605  0  0.9892  0
H  H9  1  0.70615085  0.10737415  0.36864526  1  0.089787  0  0.111509  0.119345  0  0.989321  0
H  H10  1  0.79384204  0.60738287  0.86864255  1  0.089764  0  0.111591  0.119509  0  0.989193  0
H  H11  1  0.29382116  0.89262289  0.63135657  1  0.089799  0  0.111611  0.119546  0  0.989212  0
H  H12  1  0.91560280  0.50034740  0.15132198  1  0.127074  0  0.11165  0.111983  0  1.023358  0
H  H13  1  0.41558441  0.99963807  0.34869142  1  0.127036  0  0.111702  0.11199  0  1.023495  0
H  H14  1  0.08440335  0.49965056  0.84868556  1  0.127092  0  0.111648  0.111969  0  1.023445  0
H  H15  1  0.58438760  0.00035746  0.65131368  1  0.127129  0  0.111701  0.112028  0  1.023435  0
H  H16  1  0.69700219  0.48004512  0.04961216  1  0.159707  0  0.117289  0.135558  0  1.004223  0
H  H17  1  0.19700809  0.01993083  0.45040842  1  0.169085  0  0.117369  0.135545  0  1.004349  0
H  H18  1  0.30298211  0.51993862  0.95039698  1  0.159567  0  0.117351  0.135535  0  1.004313  0
H  H19  1  0.80296255  0.98005997  0.54959738  1  0.169318  0  0.117366  0.13566  0  1.004322  0
H  H20  1  0.47100550  0.80990243  0.79287135  1  0.10816  0  0.113731  0.128074  0  0.989599  0
H  H21  1  0.97099334  0.69013941  0.70713808  1  0.10745  0  0.113797  0.128143  0  0.989573  0
H  H22  1  0.52900339  0.19011030  0.20712409  1  0.108245  0  0.113751  0.128052  0  0.989643  0
H  H23  1  0.02901282  0.30986112  0.29284264  1  0.107103  0  0.113819  0.128142  0  0.989457  0
H  H24  1  0.24091524  0.70964658  0.84608282  1  0.113283  0  0.110996  0.114463  0  0.990615  0
H  H25  1  0.74091161  0.79037870  0.65391762  1  0.113245  0  0.11102  0.114355  0  0.990595  0
H  H26  1  0.75910867  0.29036139  0.15391180  1  0.113183  0  0.111018  0.114429  0  0.990557  0
H  H27  1  0.25910002  0.20960825  0.34605723  1  0.113095  0  0.111044  0.114409  0  0.990515  0
H  H28  1  0.96427470  0.80926869  0.90669203  1  0.126539  0  0.111354  0.123393  0  1.02532  0
H  H29  1  0.46428557  0.69075137  0.59330053  1  0.127096  0  0.111341  0.12348  0  1.025297  0
H  H30  1  0.03575195  0.19073144  0.09330629  1  0.127177  0  0.111276  0.123359  0  1.025446  0
H  H31  1  0.53572332  0.30922536  0.40667762  1  0.127295  0  0.111343  0.123517  0  1.025294  0
H  H32  1  0.77890776  0.04257626  0.76499375  1  0.669  0  0.296637  0.40423  0  0.931642  0
H  H33  1  0.27890881  0.45746154  0.73501270  1  0.668708  0  0.296597  0.404215  0  0.931682  0
H  H34  1  0.22109976  0.95743334  0.23500317  1  0.668829  0  0.296581  0.404155  0  0.931745  0
H  H35  1  0.72108642  0.54254184  0.26498971  1  0.66885  0  0.296629  0.404239  0  0.931673  0
H  H36  1  0.96481103  0.02347670  0.72119629  1  0.595003  0  0.333625  0.411325  0  0.862842  0
H  H37  1  0.46481254  0.47657478  0.77880753  1  0.601165  0  0.333584  0.411624  0  0.86227  0
H  H38  1  0.03519922  0.97653373  0.27880280  1  0.601886  0  0.333573  0.41136  0  0.862786  0
H  H39  1  0.53518952  0.52343321  0.22118861  1  0.601179  0  0.333564  0.411561  0  0.862396  0
H  H40  1  0.01024141  0.30513125  0.73849463  1  0.638827  0  0.301408  0.40137  0  0.933692  0
H  H41  1  0.51023767  0.19490653  0.76150970  1  0.639212  0  0.301423  0.401488  0  0.933596  0
H  H42  1  0.98976884  0.69488728  0.26151292  1  0.639091  0  0.301455  0.4015  0  0.933537  0
H  H43  1  0.48976849  0.80510639  0.23849435  1  0.639056  0  0.301521  0.401576  0  0.933452  0
H  H44  1  0.18294607  0.23033669  0.70813875  1  0.65788  0  0.299914  0.399342  0  0.938907  0
H  H45  1  0.68294103  0.26969984  0.79187098  1  0.657265  0  0.299887  0.399391  0  0.938801  0
H  H46  1  0.81705189  0.76967310  0.29186679  1  0.657346  0  0.299818  0.399228  0  0.93908  0
H  H47  1  0.31706513  0.73031390  0.20813422  1  0.657368  0  0.29989  0.399367  0  0.938884  0
H  H48  1  0.41918985  0.35521091  0.88284341  1  0.659906  0  0.295979  0.404392  0  0.933027  0
H  H49  1  0.91916572  0.14480963  0.61716922  1  0.659997  0  0.29593  0.404418  0  0.93296  0
H  H50  1  0.58082313  0.64479250  0.11716053  1  0.659983  0  0.29598  0.404495  0  0.932895  0
H  H51  1  0.08082678  0.85518752  0.38283768  1  0.659902  0  0.29596  0.404458  0  0.932923  0
H  H52  1  0.31334516  0.34788023  0.81232813  1  0.640925  0  0.301325  0.38961  0  0.949228  0
H  H53  1  0.81330493  0.15214521  0.68768277  1  0.640379  0  0.301476  0.389669  0  0.949117  0
H  H54  1  0.68667876  0.65212791  0.18767460  1  0.640968  0  0.301292  0.389438  0  0.949417  0
H  H55  1  0.18669849  0.84785355  0.31232491  1  0.639859  0  0.301384  0.389378  0  0.949452  0
C  C56  1  0.14583122  0.32283286  0.02210196  1  0.483952  0  0.122856  0.123079  0  3.964674  0
C  C57  1  0.64582632  0.17716625  0.47790542  1  0.48454  0  0.122919  0.123301  0  3.96465  0
C  C58  1  0.85417767  0.67716899  0.97790271  1  0.483569  0  0.12297  0.123273  0  3.964865  0
C  C59  1  0.35415252  0.82283235  0.52209517  1  0.484006  0  0.122851  0.123368  0  3.964563  0
C  C60  1  0.10939739  0.38913867  0.08905723  1  -0.014612  0  -0.066552  -0.117142  0  3.910812  0
C  C61  1  0.60937881  0.11085866  0.41095084  1  -0.014555  0  -0.06653  -0.117127  0  3.910827  0
C  C62  1  0.89061287  0.61086158  0.91094667  1  -0.014459  0  -0.066611  -0.117274  0  3.910795  0
C  C63  1  0.39058909  0.88913917  0.58905112  1  -0.014525  0  -0.066529  -0.117222  0  3.91073  0
C  C64  1  0.94741655  0.44772989  0.09981621  1  -0.00731  0  -0.062631  -0.026192  0  3.927293  0
C  C65  1  0.44740652  0.05225995  0.40019372  1  -0.007162  0  -0.06256  -0.025912  0  3.927283  0
C  C66  1  0.05259097  0.55226643  0.90018852  1  -0.007382  0  -0.062643  -0.026129  0  3.927513  0
C  C67  1  0.55256411  0.94773391  0.59980757  1  -0.007262  0  -0.062709  -0.026175  0  3.927279  0
C  C68  1  0.82645706  0.43767144  0.04391654  1  -0.033316  0  -0.062849  -0.107626  0  3.879757  0
C  C69  1  0.32645964  0.06232259  0.45610013  1  -0.042925  0  -0.063073  -0.108044  0  3.880087  0
C  C70  1  0.17353544  0.56231941  0.95609180  1  -0.033334  0  -0.06292  -0.107619  0  3.880056  0
C  C71  1  0.67351646  0.93767686  0.54390313  1  -0.043166  0  -0.062968  -0.107912  0  3.880029  0
C  C72  1  0.87636210  0.37206669  0.97839100  1  0.515985  0  0.120406  0.11089  0  3.997472  0
C  C73  1  0.37636892  0.12793781  0.52162289  1  0.516322  0  0.120544  0.11141  0  3.997023  0
C  C74  1  0.12363449  0.62792966  0.02161525  1  0.51638  0  0.120476  0.111024  0  3.997471  0
C  C75  1  0.62361265  0.87206326  0.47838216  1  0.516473  0  0.120461  0.111138  0  3.997469  0
C  C76  1  0.30358229  0.24666748  0.00425729  1  1.5882  0  0.211823  0.564982  0  4.177659  0
C  C77  1  0.80358838  0.25333237  0.49574220  1  1.588273  0  0.211695  0.564707  0  4.178032  0
C  C78  1  0.69641157  0.75332882  0.99574694  1  1.589005  0  0.211867  0.565027  0  4.177857  0
C  C79  1  0.19640412  0.74665907  0.50425716  1  1.588683  0  0.211713  0.564567  0  4.178121  0
C  C80  1  0.75837386  0.35634886  0.91424248  1  1.600553  0  0.227623  0.570719  0  4.200376  0
C  C81  1  0.25837976  0.14366136  0.58577488  1  1.601067  0  0.227497  0.570482  0  4.20047  0
C  C82  1  0.24161727  0.64365230  0.08576663  1  1.600835  0  0.227548  0.570677  0  4.200276  0
C  C83  1  0.74160317  0.85633419  0.41423124  1  1.601503  0  0.227763  0.570706  0  4.199865  0
C  C84  1  0.30809656  0.95210912  0.81874592  1  0.463841  0  0.117448  0.107157  0  4.004053  0
C  C85  1  0.80808721  0.54792300  0.68126027  1  0.464805  0  0.117439  0.106746  0  4.004431  0
C  C86  1  0.69190960  0.04789739  0.18125502  1  0.464284  0  0.117499  0.107162  0  4.004257  0
C  C87  1  0.19192032  0.45207777  0.31873110  1  0.465056  0  0.117381  0.106728  0  4.004243  0
C  C88  1  0.34506018  0.84666355  0.81703128  1  0.016716  0  -0.068241  -0.120058  0  3.91721  0
C  C89  1  0.84504319  0.65337131  0.68298195  1  0.017015  0  -0.06807  -0.119852  0  3.917407  0
C  C90  1  0.65495281  0.15334371  0.18296776  1  0.016521  0  -0.068284  -0.120124  0  3.917246  0
C  C91  1  0.15496161  0.34662384  0.31700592  1  0.017582  0  -0.067999  -0.119861  0  3.916967  0
C  C92  1  0.21868233  0.79244868  0.84734994  1  -0.031622  0  -0.066058  -0.032808  0  3.967632  0
C  C93  1  0.71867172  0.70757578  0.65265540  1  -0.032354  0  -0.066188  -0.032682  0  3.967704  0
C  C94  1  0.78133885  0.20755698  0.15264782  1  -0.031739  0  -0.065927  -0.032462  0  3.967339  0
C  C95  1  0.28133170  0.29240891  0.34732461  1  -0.032696  0  -0.066258  -0.032612  0  3.967398  0
C  C96  1  0.06473710  0.84651670  0.88070775  1  -0.087116  0  -0.070388  -0.122314  0  3.908273  0
C  C97  1  0.56473772  0.65350676  0.61929231  1  -0.087471  0  -0.070359  -0.122495  0  3.908388  0
C  C98  1  0.93528545  0.15348826  0.11929392  1  -0.087989  0  -0.070511  -0.122603  0  3.90844  0
C  C99  1  0.43526707  0.34647322  0.38068942  1  -0.087519  0  -0.070253  -0.122407  0  3.908348  0
C  C100  1  0.04112872  0.95260259  0.88137928  1  0.529379  0  0.123111  0.136136  0  3.968358  0
C  C101  1  0.54113150  0.54741906  0.61861693  1  0.529369  0  0.123041  0.13602  0  3.968034  0
C  C102  1  0.95887881  0.04739835  0.11861968  1  0.52944  0  0.12319  0.136185  0  3.968268  0
C  C103  1  0.45886783  0.45256590  0.38137525  1  0.529198  0  0.122955  0.135619  0  3.968337  0
C  C104  1  0.43436432  0.01951346  0.78868342  1  1.613038  0  0.226563  0.573999  0  4.196404  0
C  C105  1  0.93435882  0.48052611  0.71132642  1  1.613628  0  0.226806  0.574557  0  4.195593  0
C  C106  1  0.56564457  0.98049622  0.21131705  1  1.61411  0  0.226465  0.574103  0  4.196662  0
C  C107  1  0.06564051  0.51948593  0.28867395  1  1.613977  0  0.226761  0.57444  0  4.196212  0
C  C108  1  0.88993948  0.02197793  0.91981695  1  1.604689  0  0.212055  0.566148  0  4.184658  0
C  C109  1  0.38995282  0.47803332  0.58017639  1  1.603884  0  0.212132  0.566198  0  4.184363  0
C  C110  1  0.11006941  0.97801731  0.08017498  1  1.604711  0  0.211927  0.565792  0  4.184613  0
C  C111  1  0.61005334  0.52194777  0.41981966  1  1.604032  0  0.212326  0.56666  0  4.184185  0
N  N112  1  0.03258886  0.31688539  0.96804011  1  -1.246628  0  -0.381849  -0.353881  0  3.558058  0
N  N113  1  0.53258843  0.18312331  0.53196731  1  -1.247354  0  -0.381875  -0.354098  0  3.558038  0
N  N114  1  0.96741457  0.68311324  0.03196199  1  -1.246954  0  -0.38188  -0.353983  0  3.558375  0
N  N115  1  0.46739177  0.81687927  0.46803446  1  -1.24715  0  -0.381812  -0.353954  0  3.557966  0
N  N116  1  0.15780203  0.00266504  0.84919775  1  -1.207755  0  -0.377324  -0.371546  0  3.574422  0
N  N117  1  0.65779259  0.49736090  0.65080510  1  -1.207466  0  -0.377451  -0.37151  0  3.573891  0
N  N118  1  0.84220823  0.99733914  0.15080480  1  -1.207654  0  -0.377309  -0.371516  0  3.574437  0
N  N119  1  0.34221357  0.50263363  0.34919074  1  -1.207652  0  -0.377419  -0.371364  0  3.574079  0
O  O120  1  0.31106927  0.18821715  0.94134033  1  -1.174672  0  -0.374732  -0.626392  0  2.332685  0
O  O121  1  0.81106169  0.31179371  0.55865594  1  -1.174542  0  -0.374625  -0.626196  0  2.332625  0
O  O122  1  0.68893416  0.81178387  0.05866218  1  -1.174686  0  -0.37473  -0.626418  0  2.332786  0
O  O123  1  0.18894993  0.68819378  0.44134323  1  -1.174737  0  -0.374743  -0.626269  0  2.332681  0
O  O124  1  0.41413451  0.24165421  0.05280057  1  -1.106136  0  -0.325227  -0.495773  0  2.263434  0
O  O125  1  0.91416380  0.25833531  0.44720374  1  -1.106247  0  -0.325206  -0.495701  0  2.263576  0
O  O126  1  0.58584569  0.75833820  0.94720652  1  -1.106393  0  -0.325277  -0.495825  0  2.263619  0
O  O127  1  0.08582870  0.74166568  0.55279776  1  -1.106268  0  -0.32517  -0.49564  0  2.263644  0
O  O128  1  0.82728600  0.29626946  0.85712810  1  -1.182672  0  -0.368755  -0.61382  0  2.297496  0
O  O129  1  0.32730406  0.20374585  0.64288611  1  -1.183195  0  -0.368678  -0.613701  0  2.297422  0
O  O130  1  0.17269967  0.70373480  0.14287800  1  -1.183011  0  -0.368732  -0.613784  0  2.297451  0
O  O131  1  0.67268844  0.79625198  0.35711535  1  -1.182933  0  -0.368672  -0.613655  0  2.297262  0
O  O132  1  0.60630831  0.40181836  0.92056937  1  -1.180508  0  -0.303021  -0.520143  0  2.169829  0
O  O133  1  0.10630790  0.09819816  0.57945052  1  -1.18055  0  -0.302995  -0.520181  0  2.170004  0
O  O134  1  0.39368829  0.59818754  0.07943953  1  -1.180432  0  -0.303012  -0.520191  0  2.169701  0
O  O135  1  0.89368324  0.90178959  0.42056082  1  -1.1813  0  -0.303186  -0.52031  0  2.169493  0
O  O136  1  0.36696194  0.10825923  0.78458848  1  -1.184631  0  -0.354629  -0.616302  0  2.27789  0
O  O137  1  0.86696440  0.39176944  0.71541139  1  -1.184784  0  -0.354892  -0.616651  0  2.277481  0
O  O138  1  0.63304559  0.89174722  0.21540942  1  -1.185057  0  -0.354646  -0.616326  0  2.278013  0
O  O139  1  0.13302810  0.60824019  0.28458705  1  -1.184962  0  -0.354876  -0.616549  0  2.277948  0
O  O140  1  0.59171913  0.98386746  0.77039010  1  -1.181126  0  -0.306104  -0.533746  0  2.174733  0
O  O141  1  0.09170939  0.51617059  0.72961905  1  -1.181142  0  -0.306065  -0.533818  0  2.174404  0
O  O142  1  0.40829796  0.01614156  0.22961682  1  -1.181664  0  -0.306039  -0.533827  0  2.174963  0
O  O143  1  0.90828584  0.48384623  0.27038265  1  -1.181334  0  -0.306058  -0.533825  0  2.174664  0
O  O144  1  0.88139112  0.11572375  0.91346497  1  -1.177058  0  -0.371177  -0.630342  0  2.338014  0
O  O145  1  0.38138774  0.38429325  0.58654047  1  -1.176836  0  -0.371256  -0.630393  0  2.337636  0
O  O146  1  0.11860684  0.88427231  0.08652811  1  -1.177076  0  -0.371237  -0.630246  0  2.338006  0
O  O147  1  0.61858563  0.61569929  0.41347271  1  -1.176462  0  -0.371466  -0.630639  0  2.33748  0
O  O148  1  0.78421986  0.98318894  0.95752229  1  -1.113094  0  -0.314497  -0.493362  0  2.346269  0
O  O149  1  0.28425339  0.51681166  0.54246079  1  -1.113269  0  -0.31448  -0.493295  0  2.346099  0
O  O150  1  0.21578220  0.01680143  0.04246425  1  -1.113304  0  -0.314372  -0.493137  0  2.346178  0
O  O151  1  0.71576643  0.48316291  0.45752708  1  -1.113461  0  -0.314509  -0.493521  0  2.346185  0
O  O152  1  0.90033051  0.07559174  0.75786576  1  -1.249278  0  -0.601823  -0.823523  0  2.096578  0
O  O153  1  0.40033097  0.42445078  0.74214306  1  -1.255134  0  -0.601692  -0.82381  0  2.095791  0
O  O154  1  0.09967428  0.92441945  0.24213144  1  -1.255905  0  -0.601725  -0.823419  0  2.09643  0
O  O155  1  0.59965743  0.57554712  0.25786195  1  -1.255199  0  -0.601728  -0.823777  0  2.095821  0
O  O156  1  0.09654719  0.25244460  0.74893884  1  -1.295344  0  -0.662104  -0.855626  0  2.132162  0
O  O157  1  0.59653481  0.24760813  0.75107465  1  -1.295045  0  -0.662089  -0.855791  0  2.132043  0
O  O158  1  0.90345761  0.74756996  0.25106802  1  -1.295128  0  -0.662062  -0.855654  0  2.132003  0
O  O159  1  0.40345769  0.75241594  0.24893233  1  -1.295115  0  -0.662153  -0.855877  0  2.132043  0
O  O160  1  0.29711830  0.33772655  0.85931497  1  -1.293745  0  -0.658847  -0.866446  0  2.164255  0
O  O161  1  0.79709181  0.16229718  0.64069463  1  -1.293122  0  -0.658966  -0.866529  0  2.164234  0
O  O162  1  0.70289332  0.66227601  0.14068630  1  -1.293783  0  -0.658816  -0.866359  0  2.164313  0
O  O163  1  0.20290342  0.83770954  0.35931543  1  -1.292463  0  -0.658877  -0.866318  0  2.164369  0
