# generated using pymatgen
data_CdH7C11(NO)4
_symmetry_space_group_name_H-M   'P 1'
_cell_length_a   10.50448095
_cell_length_b   10.56919075
_cell_length_c   13.10200000
_cell_angle_alpha   75.92369526
_cell_angle_beta   75.83517733
_cell_angle_gamma   63.64861398
_symmetry_Int_Tables_number   1
_chemical_formula_structural   CdH7C11(NO)4
_chemical_formula_sum   'Cd4 H28 C44 N16 O16'
_cell_volume   1248.59393577
_cell_formula_units_Z   4
loop_
 _symmetry_equiv_pos_site_id
 _symmetry_equiv_pos_as_xyz
  1  'x, y, z'
loop_
 _atom_site_type_symbol
 _atom_site_label
 _atom_site_symmetry_multiplicity
 _atom_site_fract_x
 _atom_site_fract_y
 _atom_site_fract_z
 _atom_site_occupancy
 _atom_site_pbe_bader_charge
 _atom_site_pbe_bader_spin_density
 _atom_site_pbe_cm5_charge
 _atom_site_pbe_ddec_charge
 _atom_site_pbe_ddec_spin_density
 _atom_site_pbe_ddec_sum_bond_order
 _atom_site_pbe_magmom
Cd  Cd0  1  0.24987330  0.23004924  0.83721749  1  1.255348  0  0.802458  0.845491  0  2.195441  0
Cd  Cd1  1  0.76838024  0.74967039  0.66345661  1  1.254921  0  0.803682  0.846244  0  2.200149  0
Cd  Cd2  1  0.75012686  0.76994911  0.16278219  1  1.255299  0  0.802448  0.845476  0  2.195407  0
Cd  Cd3  1  0.23161861  0.25033117  0.33654193  1  1.254979  0  0.803664  0.846195  0  2.200231  0
H  H4  1  0.06153043  0.66796982  0.01456538  1  0.626382  0  0.290034  0.339431  0  1.010019  0
H  H5  1  0.33063130  0.93940480  0.48512198  1  0.626234  0  0.289839  0.338161  0  1.011527  0
H  H6  1  0.93846974  0.33202854  0.98543201  1  0.626366  0  0.290031  0.339402  0  1.010034  0
H  H7  1  0.66936951  0.06059676  0.51487618  1  0.626132  0  0.289849  0.33816  0  1.011486  0
H  H8  1  0.06862560  0.08841882  0.06675360  1  0.158448  0  0.121372  0.124862  0  1.014323  0
H  H9  1  0.90983688  0.93199934  0.43378902  1  0.16172  0  0.121311  0.124442  0  1.0172  0
H  H10  1  0.93137129  0.91158274  0.93324685  1  0.15847  0  0.121358  0.124809  0  1.01442  0
H  H11  1  0.09016590  0.06800223  0.56620952  1  0.1617  0  0.121313  0.124449  0  1.017158  0
H  H12  1  0.17372744  0.79748688  0.13973529  1  0.135031  0  0.125502  0.131761  0  1.012296  0
H  H13  1  0.20275807  0.82590637  0.36042833  1  0.136418  0  0.125848  0.132452  0  1.011794  0
H  H14  1  0.82627238  0.20251469  0.86026612  1  0.135031  0  0.125506  0.131779  0  1.01227  0
H  H15  1  0.79724558  0.17409305  0.63957428  1  0.136358  0  0.125836  0.13245  0  1.011785  0
H  H16  1  0.40522092  0.87530463  0.83393255  1  0.19529  0  0.133667  0.112465  0  1.052144  0
H  H17  1  0.12290562  0.59633700  0.66586198  1  0.205899  0  0.133817  0.112162  0  1.051037  0
H  H18  1  0.59477498  0.12469693  0.16606657  1  0.195266  0  0.133705  0.112522  0  1.052055  0
H  H19  1  0.87709028  0.40366456  0.33413867  1  0.205885  0  0.133815  0.112152  0  1.051002  0
H  H20  1  0.40654896  0.61243686  0.16388578  1  0.089255  0  0.109585  0.113527  0  1.011288  0
H  H21  1  0.38736356  0.59371853  0.33603846  1  0.088822  0  0.10937  0.113184  0  1.012013  0
H  H22  1  0.59344934  0.38756364  0.83611384  1  0.089251  0  0.109553  0.113464  0  1.011354  0
H  H23  1  0.61263606  0.40627876  0.66396459  1  0.088761  0  0.109393  0.113209  0  1.012064  0
H  H24  1  0.43469985  0.64694510  0.82540388  1  0.101049  0  0.113599  0.130594  0  1.002809  0
H  H25  1  0.35186463  0.56634215  0.67453072  1  0.13633  0  0.113499  0.130273  0  1.003877  0
H  H26  1  0.56529998  0.35305646  0.17459447  1  0.101054  0  0.113592  0.130584  0  1.002742  0
H  H27  1  0.64813499  0.43365514  0.32547233  1  0.136385  0  0.113469  0.130278  0  1.003859  0
H  H28  1  0.35526819  0.08634862  0.09950628  1  0.188031  0  0.128018  0.09953  0  1.017062  0
H  H29  1  0.91552232  0.64365010  0.39997725  1  0.173941  0  0.127527  0.099145  0  1.017823  0
H  H30  1  0.64473546  0.91365080  0.90049327  1  0.188063  0  0.128005  0.099492  0  1.017091  0
H  H31  1  0.08447794  0.35635039  0.60002276  1  0.173948  0  0.127518  0.099125  0  1.017826  0
C  C32  1  0.15562789  0.00123977  0.02957412  1  0.403561  0  1.9e-05  -0.026274  0  3.997824  0
C  C33  1  0.99726567  0.84522748  0.47080942  1  0.407651  0  0.000397  -0.023887  0  3.996126  0
C  C34  1  0.84436899  0.99876180  0.97042558  1  0.403589  0  5e-06  -0.026266  0  3.99781  0
C  C35  1  0.00273602  0.15477194  0.52919128  1  0.407633  0  0.000381  -0.02387  0  3.996106  0
C  C36  1  0.20882383  0.85804196  0.06825618  1  0.275954  0  0.001899  -0.095996  0  3.898201  0
C  C37  1  0.14136569  0.79154562  0.43191211  1  0.286972  0  0.001646  -0.098394  0  3.899223  0
C  C38  1  0.79117545  0.14195854  0.93174401  1  0.275755  0  0.00188  -0.09601  0  3.898158  0
C  C39  1  0.85863698  0.20845381  0.56809069  1  0.287049  0  0.001671  -0.098414  0  3.899328  0
C  C40  1  0.32846159  0.89618934  0.90688095  1  0.957283  0  0.144338  0.103487  0  3.882631  0
C  C41  1  0.10224233  0.67297377  0.59316514  1  0.948446  0  0.144608  0.103261  0  3.883157  0
C  C42  1  0.67153715  0.10381008  0.09311804  1  0.957304  0  0.14427  0.103413  0  3.882774  0
C  C43  1  0.89775598  0.32702672  0.40683678  1  0.948514  0  0.144546  0.103239  0  3.883278  0
C  C44  1  0.40953249  0.64448481  0.99466345  1  0.265645  0  0.098374  0.166826  0  4.012721  0
C  C45  1  0.35525743  0.59093654  0.50523190  1  0.361109  0  0.097588  0.165908  0  4.01857  0
C  C46  1  0.59046733  0.35551676  0.00533567  1  0.265653  0  0.098354  0.166777  0  4.012933  0
C  C47  1  0.64474131  0.40906289  0.49477319  1  0.361006  0  0.097595  0.165989  0  4.018493  0
C  C48  1  0.44597254  0.56197946  0.09263126  1  0.001212  0  -0.084717  -0.142751  0  3.976644  0
C  C49  1  0.43806598  0.55409091  0.40723609  1  0.004784  0  -0.084561  -0.143218  0  3.980484  0
C  C50  1  0.55402729  0.43802211  0.90736785  1  0.001225  0  -0.084638  -0.14257  0  3.976643  0
C  C51  1  0.56193364  0.44590638  0.59276848  1  0.005028  0  -0.084616  -0.14335  0  3.980648  0
C  C52  1  0.46385081  0.58261514  0.90159684  1  0.050044  0  -0.083237  -0.14397  0  3.95946  0
C  C53  1  0.41684638  0.53671602  0.59842599  1  -0.081922  0  -0.082978  -0.143115  0  3.962424  0
C  C54  1  0.53614858  0.41738749  0.09840215  1  0.050039  0  -0.08322  -0.143928  0  3.95953  0
C  C55  1  0.58315325  0.46328127  0.40157782  1  -0.081619  0  -0.082957  -0.143247  0  3.962353  0
C  C56  1  0.29858525  0.20201023  0.08399117  1  0.970839  0  0.139075  0.180378  0  3.957474  0
C  C57  1  0.79916864  0.70067612  0.41556007  1  0.979866  0  0.138643  0.18024  0  3.956798  0
C  C58  1  0.70141786  0.79798813  0.91600793  1  0.97082  0  0.139133  0.180459  0  3.957446  0
C  C59  1  0.20083207  0.29932330  0.58443929  1  0.97989  0  0.138665  0.180242  0  3.956803  0
C  C60  1  0.19712263  0.41980610  0.00442063  1  0.438054  0  0.059483  -0.041758  0  4.06379  0
C  C61  1  0.58003891  0.80265114  0.49525591  1  0.443534  0  0.058632  -0.044392  0  4.065845  0
C  C62  1  0.80287862  0.58019440  0.99557766  1  0.438043  0  0.059427  -0.04185  0  4.063922  0
C  C63  1  0.41996223  0.19734721  0.50474358  1  0.443492  0  0.05864  -0.044386  0  4.065775  0
C  C64  1  0.18083274  0.42235617  0.11328868  1  0.422307  0  0.06535  -0.01858  0  4.025938  0
C  C65  1  0.57763334  0.81943287  0.38633552  1  0.433701  0  0.066207  -0.0168  0  4.027006  0
C  C66  1  0.81916807  0.57764539  0.88671101  1  0.422294  0  0.065344  -0.018553  0  4.025979  0
C  C67  1  0.42236737  0.18056655  0.61366461  1  0.433691  0  0.066222  -0.01678  0  4.026968  0
C  C68  1  0.15373880  0.53256708  0.91302549  1  1.506483  0  0.216639  0.553345  0  4.203294  0
C  C69  1  0.46659859  0.84667566  0.58667160  1  1.506115  0  0.217787  0.556221  0  4.200602  0
C  C70  1  0.84626475  0.46743021  0.08697221  1  1.506343  0  0.216695  0.55344  0  4.20327  0
C  C71  1  0.53340167  0.15332484  0.41332764  1  1.506125  0  0.217823  0.556271  0  4.200525  0
C  C72  1  0.09801527  0.53874881  0.17813241  1  1.569517  0  0.201586  0.556514  0  4.252931  0
C  C73  1  0.46064734  0.90267780  0.32174415  1  1.549658  0  0.200988  0.554651  0  4.255006  0
C  C74  1  0.90198402  0.46125169  0.82186473  1  1.569794  0  0.201571  0.556464  0  4.25304  0
C  C75  1  0.53935293  0.09732269  0.67825433  1  1.549629  0  0.200968  0.554621  0  4.25507  0
N  N76  1  0.23134084  0.02337386  0.92923729  1  -1.219689  0  -0.359178  -0.290327  0  3.516566  0
N  N77  1  0.97457841  0.77021844  0.57108079  1  -1.237162  0  -0.359838  -0.290012  0  3.521356  0
N  N78  1  0.76865407  0.97662770  0.07076202  1  -1.219691  0  -0.359138  -0.290231  0  3.516586  0
N  N79  1  0.02542185  0.22978205  0.42891997  1  -1.237136  0  -0.359819  -0.290008  0  3.521356  0
N  N80  1  0.31862868  0.79207038  0.98961119  1  -1.268181  0  -0.223898  0.010654  0  3.796099  0
N  N81  1  0.20716747  0.68219079  0.51035329  1  -1.274165  0  -0.224794  0.011951  0  3.801261  0
N  N82  1  0.68136820  0.20793118  0.01038926  1  -1.267982  0  -0.22388  0.010597  0  3.796101  0
N  N83  1  0.79283181  0.31780971  0.48965072  1  -1.274224  0  -0.224736  0.011992  0  3.801361  0
N  N84  1  0.27104297  0.27999150  0.98799230  1  -1.23407  0  -0.36592  -0.324171  0  3.514708  0
N  N85  1  0.72055154  0.72801510  0.51166557  1  -1.227453  0  -0.365815  -0.323597  0  3.511271  0
N  N86  1  0.72896058  0.72000578  0.01200616  1  -1.234046  0  -0.36592  -0.324167  0  3.514746  0
N  N87  1  0.27944818  0.27198433  0.48833399  1  -1.227448  0  -0.365816  -0.323581  0  3.511265  0
N  N88  1  0.24699347  0.28411266  0.16140836  1  -1.220086  0  -0.362969  -0.309683  0  3.514891  0
N  N89  1  0.71670199  0.75306158  0.33809144  1  -1.224804  0  -0.362448  -0.309181  0  3.512819  0
N  N90  1  0.75300723  0.71588677  0.83859176  1  -1.220127  0  -0.362981  -0.309693  0  3.514873  0
N  N91  1  0.28329872  0.24693785  0.66190869  1  -1.22479  0  -0.362442  -0.309151  0  3.512718  0
O  O92  1  0.08598622  0.66621918  0.93077777  1  -1.158228  0  -0.328639  -0.470944  0  2.308463  0
O  O93  1  0.33223510  0.91485316  0.56908849  1  -1.159088  0  -0.327867  -0.469587  0  2.309299  0
O  O94  1  0.91401831  0.33377810  0.06921974  1  -1.158109  0  -0.328617  -0.470855  0  2.308546  0
O  O95  1  0.66776517  0.08514733  0.43090999  1  -1.158954  0  -0.327895  -0.46961  0  2.309305  0
O  O96  1  0.18182806  0.50174607  0.82154954  1  -1.162277  0  -0.297792  -0.512118  0  2.221591  0
O  O97  1  0.49756820  0.81880551  0.67814028  1  -1.160544  0  -0.298184  -0.513488  0  2.228164  0
O  O98  1  0.81817495  0.49825015  0.17844923  1  -1.162164  0  -0.297821  -0.512205  0  2.221446  0
O  O99  1  0.50243153  0.18119392  0.32185775  1  -1.160602  0  -0.298205  -0.513519  0  2.228049  0
O  O100  1  0.02492184  0.66391279  0.12856202  1  -1.186614  0  -0.327162  -0.562832  0  2.287654  0
O  O101  1  0.33498892  0.97601744  0.37155329  1  -1.177426  0  -0.326161  -0.560664  0  2.287354  0
O  O102  1  0.97507832  0.33608556  0.87143537  1  -1.186844  0  -0.327159  -0.56284  0  2.287669  0
O  O103  1  0.66501135  0.02398306  0.62844595  1  -1.177391  0  -0.32617  -0.560676  0  2.287415  0
O  O104  1  0.09935312  0.51081239  0.27713894  1  -1.16165  0  -0.317714  -0.530515  0  2.185879  0
O  O105  1  0.48848832  0.90150751  0.22267844  1  -1.162765  0  -0.318523  -0.530864  0  2.186111  0
O  O106  1  0.90064627  0.48919024  0.72285776  1  -1.161732  0  -0.317699  -0.530492  0  2.18595  0
O  O107  1  0.51151140  0.09849192  0.77732112  1  -1.162733  0  -0.318508  -0.530837  0  2.186091  0
