# generated using pymatgen
data_Co3PH12C18N15O4
_symmetry_space_group_name_H-M   'P 1'
_cell_length_a   4.36247050
_cell_length_b   12.84269642
_cell_length_c   12.84349148
_cell_angle_alpha   118.72252177
_cell_angle_beta   96.52357329
_cell_angle_gamma   96.48083822
_symmetry_Int_Tables_number   1
_chemical_formula_structural   Co3PH12C18N15O4
_chemical_formula_sum   'Co3 P1 H12 C18 N15 O4'
_cell_volume   615.25438889
_cell_formula_units_Z   1
loop_
 _symmetry_equiv_pos_site_id
 _symmetry_equiv_pos_as_xyz
  1  'x, y, z'
loop_
 _atom_site_type_symbol
 _atom_site_label
 _atom_site_symmetry_multiplicity
 _atom_site_fract_x
 _atom_site_fract_y
 _atom_site_fract_z
 _atom_site_occupancy
 _atom_site_pbe_bader_charge
 _atom_site_pbe_bader_spin_density
 _atom_site_pbe_cm5_charge
 _atom_site_pbe_ddec_charge
 _atom_site_pbe_ddec_spin_density
 _atom_site_pbe_ddec_sum_bond_order
 _atom_site_pbe_magmom
Co  Co0  1  0.53498131  0.00601275  0.83833713  1  1.24519  2.595354  0.709586  0.813351  2.797543  2.506756  2.559
Co  Co1  1  0.52891726  0.83239226  0.99395592  1  1.244311  2.593116  0.708953  0.81203  2.793861  2.506294  2.557
Co  Co2  1  0.69635699  0.16171471  0.16753893  1  1.250811  2.59779  0.710311  0.81406  2.802637  2.50703  2.562
P  P3  1  0.06491466  0.00004430  0.99992676  1  3.638355  0.013518  0.359355  1.476023  0.019445  5.445939  0.011
H  H4  1  0.69934891  0.15088243  0.71259833  1  0.16043  0.001582  0.112793  0.076145  0.000521  1.066497  0.001
H  H5  1  0.46959158  0.15017753  0.52424062  1  0.064104  0.000902  0.110454  0.121329  0.000352  0.996983  0.0
H  H6  1  0.04544094  0.84717809  0.62629306  1  0.124403  0.001619  0.116481  0.081154  0.00027  1.047786  0.001
H  H7  1  0.79638850  0.83171296  0.43463910  1  0.113208  0.000789  0.11312  0.1258  0.000348  0.986051  0.0
H  H8  1  0.54858165  0.56160619  0.84906254  1  0.146786  0.001589  0.112494  0.075085  0.000514  1.067685  0.001
H  H9  1  0.31921632  0.37401834  0.84975722  1  0.107141  0.000874  0.110598  0.121201  0.00035  0.997292  0.0
H  H10  1  0.19844881  0.77913959  0.15274465  1  0.163375  0.001622  0.116379  0.081681  0.000262  1.046959  0.001
H  H11  1  0.96476131  0.60303745  0.16828351  1  0.088058  0.000801  0.112661  0.124773  0.000351  0.985772  0.0
H  H12  1  0.98619757  0.28720735  0.43844173  1  0.145536  0.00153  0.11298  0.076085  0.000488  1.068144  0.001
H  H13  1  0.94558050  0.47569766  0.62605427  1  0.063294  0.000856  0.110326  0.120928  0.000334  0.997328  0.0
H  H14  1  0.41883719  0.37366889  0.22097038  1  0.122916  0.00159  0.116474  0.081747  0.000253  1.047118  0.001
H  H15  1  0.36192831  0.56539863  0.39707547  1  0.103125  0.000747  0.113137  0.126471  0.000336  0.98579  0.0
C  C16  1  0.11291582  0.99049285  0.46372835  1  0.029813  -0.007352  0.016021  0.078146  -0.008183  4.011061  -0.005
C  C17  1  0.96160799  0.99068365  0.35671762  1  0.936689  0.007889  0.21136  0.215916  0.004576  4.074369  0.007
C  C18  1  0.50032910  0.08158628  0.64776216  1  0.405683  -0.003703  0.040931  0.092422  -0.004174  3.954593  -0.002
C  C19  1  0.37034642  0.08121107  0.54380398  1  0.00633  0.005843  -0.084285  -0.166343  0.002777  3.940282  0.005
C  C20  1  0.13823882  0.91108392  0.59962273  1  0.48389  -0.005659  0.048045  0.104341  -0.00666  3.948801  -0.004
C  C21  1  0.99917701  0.90291986  0.49266726  1  -0.033188  0.005486  -0.079003  -0.162222  0.002625  3.927763  0.004
C  C22  1  0.12233131  0.47328069  0.00948662  1  -0.004738  -0.007464  0.01546  0.075669  -0.008324  4.012363  -0.005
C  C23  1  0.97104220  0.36616237  0.00939683  1  0.91496  0.00786  0.211393  0.21714  0.004568  4.074345  0.007
C  C24  1  0.41880221  0.56609111  0.91836578  1  0.441607  -0.003874  0.0405  0.093036  -0.0043  3.955679  -0.002
C  C25  1  0.28908409  0.46255758  0.91874993  1  -0.032037  0.005982  -0.084036  -0.165329  0.002807  3.940924  0.005
C  C26  1  0.22722585  0.68853317  0.08887120  1  0.427891  -0.005768  0.047991  0.102687  -0.006784  3.946253  -0.004
C  C27  1  0.09627286  0.58978812  0.09704773  1  0.010838  0.005502  -0.078969  -0.160263  0.002638  3.926526  0.004
C  C28  1  0.64908802  0.53618134  0.52679120  1  -0.047636  -0.007842  0.015106  0.076086  -0.008768  4.011949  -0.005
C  C29  1  0.60485243  0.64320992  0.63390958  1  0.907888  0.007661  0.211832  0.219113  0.00443  4.071676  0.007
C  C30  1  0.85221173  0.35211254  0.43396752  1  0.448866  -0.003936  0.040769  0.092401  -0.004314  3.957272  -0.002
C  C31  1  0.82660075  0.45612952  0.53752296  1  0.031017  0.00594  -0.083203  -0.164185  0.002806  3.940232  0.005
C  C32  1  0.53842546  0.40033979  0.31154536  1  0.471463  -0.006285  0.049068  0.105544  -0.007317  3.948679  -0.004
C  C33  1  0.50648837  0.50730371  0.41028412  1  0.038294  0.005459  -0.079406  -0.16377  0.002601  3.929653  0.004
N  N34  1  0.38503132  0.99892884  0.67705994  1  -1.238086  0.059762  -0.331976  -0.256072  0.031456  3.595071  0.049
N  N35  1  0.69984031  0.93347189  0.18262008  1  -0.179101  0.050179  -0.105711  -0.049271  0.027169  3.482966  0.042
N  N36  1  0.78851084  0.05459144  0.24144786  1  -0.211886  0.057228  -0.11114  -0.04993  0.031258  3.523858  0.046
N  N37  1  0.80315992  0.89163100  0.25385452  1  -0.633412  0.006554  -0.202969  -0.249367  0.002505  3.202869  0.004
N  N38  1  0.95553531  0.09231388  0.35021815  1  -0.632501  0.007514  -0.199223  -0.24189  0.002957  3.211309  0.005
N  N39  1  0.38625999  0.67807731  0.00101782  1  -1.204461  0.059776  -0.330911  -0.254728  0.031446  3.590809  0.049
N  N40  1  0.76676435  0.24932306  0.06664680  1  -0.176952  0.050144  -0.106215  -0.048618  0.027206  3.484189  0.042
N  N41  1  0.73355952  0.18709544  0.94549374  1  -0.231318  0.057189  -0.110496  -0.049542  0.031297  3.522641  0.046
N  N42  1  0.91218016  0.36232310  0.10849740  1  -0.64174  0.006335  -0.203287  -0.251041  0.002329  3.204163  0.004
N  N43  1  0.86266921  0.25812230  0.90774559  1  -0.614184  0.00771  -0.199377  -0.242285  0.003098  3.210638  0.005
N  N44  1  0.70745420  0.32282367  0.32202695  1  -1.230705  0.059704  -0.332427  -0.257367  0.031427  3.595716  0.049
N  N45  1  0.51775048  0.81735376  0.75076567  1  -0.192635  0.05055  -0.105873  -0.048131  0.027395  3.48143  0.042
N  N46  1  0.54661081  0.75840337  0.81298987  1  -0.216164  0.056949  -0.110371  -0.048413  0.031148  3.521286  0.046
N  N47  1  0.55007715  0.74621048  0.63776675  1  -0.617853  0.007781  -0.203293  -0.251656  0.00326  3.201783  0.005
N  N48  1  0.60450087  0.64956323  0.74191750  1  -0.631486  0.006295  -0.200471  -0.244985  0.001997  3.210353  0.004
O  O49  1  0.11623809  0.99587447  0.88060070  1  -1.386529  0.152564  -0.362686  -0.758435  0.077255  2.354827  0.124
O  O50  1  0.12044660  0.88489094  0.00412356  1  -1.387556  0.153482  -0.362877  -0.758076  0.077649  2.355247  0.125
O  O51  1  0.23566833  0.11934673  0.11510701  1  -1.393067  0.154095  -0.363028  -0.757471  0.077859  2.354929  0.125
O  O52  1  0.70386445  0.00009767  0.99993942  1  -1.399038  0.176172  -0.363343  -0.800976  0.092425  2.628995  0.152
