# generated using pymatgen
data_CuH8C13NO4
_symmetry_space_group_name_H-M   'P 1'
_cell_length_a   7.74778631
_cell_length_b   9.01919783
_cell_length_c   10.90523746
_cell_angle_alpha   66.14323375
_cell_angle_beta   81.75860492
_cell_angle_gamma   80.20821817
_symmetry_Int_Tables_number   1
_chemical_formula_structural   CuH8C13NO4
_chemical_formula_sum   'Cu2 H16 C26 N2 O8'
_cell_volume   684.42844821
_cell_formula_units_Z   2
loop_
 _symmetry_equiv_pos_site_id
 _symmetry_equiv_pos_as_xyz
  1  'x, y, z'
loop_
 _atom_site_type_symbol
 _atom_site_label
 _atom_site_symmetry_multiplicity
 _atom_site_fract_x
 _atom_site_fract_y
 _atom_site_fract_z
 _atom_site_occupancy
 _atom_site_pbe_bader_charge
 _atom_site_pbe_bader_spin_density
 _atom_site_pbe_cm5_charge
 _atom_site_pbe_ddec_charge
 _atom_site_pbe_ddec_spin_density
 _atom_site_pbe_ddec_sum_bond_order
 _atom_site_pbe_magmom
Cu  Cu0  1  0.38022952  0.39977630  0.04428688  1  1.076849  -0.552965  0.697023  0.779191  -0.707993  2.374543  -0.55
Cu  Cu1  1  0.61979224  0.60023754  0.95570863  1  1.077878  0.552971  0.696997  0.779016  0.707997  2.374829  0.55
H  H2  1  0.30615818  0.05523048  0.90853199  1  0.110221  7.5e-05  0.106378  0.113298  0.000131  1.003202  0.0
H  H3  1  0.69386135  0.94476997  0.09145994  1  0.110454  -7.4e-05  0.106409  0.113344  -0.000131  1.003208  0.0
H  H4  1  0.91993275  0.71835160  0.07988528  1  0.110793  -6.1e-05  0.105757  0.112544  -0.00014  1.030894  0.0
H  H5  1  0.08007216  0.28165974  0.92010382  1  0.110625  6.1e-05  0.10587  0.112688  0.00014  1.030912  0.0
H  H6  1  0.67749966  0.67189687  0.54883620  1  0.110879  5.7e-05  0.107581  0.117418  0.000105  1.000037  0.0
H  H7  1  0.32250496  0.32810087  0.45117118  1  0.11076  -5.7e-05  0.107555  0.117357  -0.000105  0.999962  0.0
H  H8  1  0.28905786  0.33897496  0.67971307  1  0.09752  -0.000182  0.108226  0.116072  -0.000211  1.004161  0.0
H  H9  1  0.71094490  0.66102529  0.32028636  1  0.097564  0.000182  0.10822  0.116031  0.000211  1.004192  0.0
H  H10  1  0.39715485  0.03181826  0.21164107  1  0.116522  6.6e-05  0.117127  0.091026  3.1e-05  0.996514  0.0
H  H11  1  0.60282020  0.96815726  0.78837156  1  0.116579  -6.6e-05  0.117165  0.091132  -3.1e-05  0.996565  0.0
H  H12  1  0.26662157  0.86309436  0.43498583  1  0.085426  1.6e-05  0.104675  0.107803  2e-06  1.029657  0.0
H  H13  1  0.73335065  0.13689213  0.56502533  1  0.085577  -1.6e-05  0.104649  0.107814  -2e-06  1.029713  0.0
H  H14  1  0.84188543  0.25996640  0.38255459  1  0.066902  1.6e-05  0.103628  0.107214  4e-06  1.035399  0.0
H  H15  1  0.15808724  0.74001645  0.61745497  1  0.067104  -1.6e-05  0.103543  0.10711  -4e-06  1.035249  0.0
H  H16  1  0.99175672  0.40930661  0.16174067  1  0.130178  5.2e-05  0.118298  0.098295  3.1e-05  1.001875  0.0
H  H17  1  0.00822001  0.59067506  0.83826790  1  0.130045  -5.2e-05  0.118235  0.09825  -3.1e-05  1.001788  0.0
C  C18  1  0.26284271  0.73720030  0.98696243  1  1.52128  -3e-05  0.214446  0.571563  -2.3e-05  4.165004  0.0
C  C19  1  0.73718565  0.26282098  0.01302435  1  1.520525  2.7e-05  0.214269  0.571376  2.2e-05  4.16542  0.0
C  C20  1  0.46636874  0.51093492  0.76466562  1  1.546579  0.000892  0.210938  0.566938  0.000804  4.18165  0.001
C  C21  1  0.53364540  0.48907761  0.23533211  1  1.547175  -0.000891  0.210971  0.56697  -0.000806  4.181592  -0.001
C  C22  1  0.12663427  0.87336183  0.99270561  1  -0.089726  0.000234  -0.013625  -0.02227  0.000184  3.957252  0.0
C  C23  1  0.87337484  0.12664712  0.00728195  1  -0.090131  -0.000233  -0.01355  -0.022183  -0.000183  3.957452  0.0
C  C24  1  0.17150657  0.03227262  0.94727002  1  -0.001403  -0.001926  -0.083408  -0.094557  -0.001297  3.962277  -0.002
C  C25  1  0.82850651  0.96773634  0.05271892  1  -0.001057  0.001926  -0.083486  -0.094674  0.001297  3.962389  0.002
C  C26  1  0.95470195  0.84144297  0.04576620  1  -0.001182  0.001684  -0.083498  -0.093429  0.001135  3.969751  0.002
C  C27  1  0.04531100  0.15856604  0.95421816  1  -0.000485  -0.001684  -0.083618  -0.093658  -0.001135  3.970056  -0.002
C  C28  1  0.48055739  0.50712443  0.62719409  1  -0.055602  -0.000129  -0.01346  -0.025456  -0.000106  3.962372  0.0
C  C29  1  0.51944675  0.49287580  0.37280793  1  -0.055573  0.000129  -0.013529  -0.025569  0.000106  3.962478  0.0
C  C30  1  0.59991031  0.59758678  0.52607296  1  -0.05993  -0.00155  -0.082382  -0.093843  -0.001036  3.963734  -0.001
C  C31  1  0.40009886  0.40241472  0.47392807  1  -0.059723  0.00155  -0.082373  -0.093794  0.001036  3.963707  0.001
C  C32  1  0.38078448  0.40924372  0.60047737  1  -0.007462  0.00152  -0.083532  -0.10106  0.001004  3.972201  0.001
C  C33  1  0.61922362  0.59075652  0.39952604  1  -0.007542  -0.001522  -0.083563  -0.101065  -0.001005  3.972258  -0.001
C  C34  1  0.27284796  0.07675359  0.25347869  1  0.541783  0.000705  0.047338  0.103727  0.000466  3.954824  0.0
C  C35  1  0.72712359  0.92322803  0.74653140  1  0.541695  -0.000705  0.047456  0.103845  -0.000466  3.954668  0.0
C  C36  1  0.19856927  0.98328138  0.37935068  1  -0.099591  -0.000396  -0.083109  -0.171109  -0.000263  3.937411  0.0
C  C37  1  0.80140190  0.01670269  0.62065774  1  -0.099826  0.000396  -0.083219  -0.171252  0.000263  3.937446  0.0
C  C38  1  0.04084297  0.04631860  0.43237004  1  -0.000864  0.000872  0.009057  0.098187  0.000557  3.981175  0.001
C  C39  1  0.95913125  0.95367160  0.56763691  1  -0.027496  -0.000873  0.00901  0.097977  -0.000558  3.981095  -0.001
C  C40  1  0.96483912  0.20218636  0.35041389  1  -0.011912  -0.000412  -0.082937  -0.168325  -0.000272  3.925926  0.0
C  C41  1  0.03513438  0.79780015  0.64959620  1  -0.010539  0.000412  -0.082912  -0.168257  0.000272  3.925578  0.0
C  C42  1  0.04809481  0.28753664  0.22563196  1  0.486844  0.000696  0.048655  0.109151  0.000477  3.932965  0.0
C  C43  1  0.95188673  0.71244870  0.77437943  1  0.485382  -0.000696  0.048815  0.109366  -0.000477  3.932908  0.0
N  N44  1  0.20098880  0.22741615  0.17739918  1  -1.229078  0.000673  -0.337271  -0.249649  0.000105  3.504946  -0.001
N  N45  1  0.79899613  0.77257289  0.82261060  1  -1.229479  -0.000671  -0.33739  -0.24978  -0.000104  3.505278  0.001
O  O46  1  0.42025404  0.77108497  0.95027831  1  -1.110922  0.086688  -0.310653  -0.519044  0.056255  2.393551  0.078
O  O47  1  0.57977217  0.22894125  0.04970158  1  -1.110558  -0.086677  -0.310592  -0.519051  -0.056251  2.393905  -0.078
O  O48  1  0.21109741  0.59786562  0.02084493  1  -1.10519  -0.08666  -0.307463  -0.516101  -0.056224  2.403258  -0.078
O  O49  1  0.78894269  0.40214949  0.97915813  1  -1.105  0.086661  -0.307339  -0.515927  0.056224  2.403031  0.078
O  O50  1  0.56704030  0.59858817  0.77998957  1  -1.108567  0.077121  -0.31044  -0.52686  0.050035  2.392834  0.07
O  O51  1  0.43299637  0.40141119  0.22000166  1  -1.109308  -0.077131  -0.310394  -0.526749  -0.05004  2.392675  -0.07
O  O52  1  0.35893053  0.42470978  0.85471638  1  -1.107501  -0.087581  -0.307241  -0.51049  -0.056763  2.337758  -0.079
O  O53  1  0.64106644  0.57532335  0.14528110  1  -1.107494  0.087576  -0.307307  -0.510548  0.056762  2.337664  0.079
