# generated using pymatgen
data_Zn2H13C7S2(NO4)2
_symmetry_space_group_name_H-M   'P 1'
_cell_length_a   7.93900203
_cell_length_b   8.60455406
_cell_length_c   23.50300000
_cell_angle_alpha   90.00000000
_cell_angle_beta   90.00000000
_cell_angle_gamma   113.83285005
_symmetry_Int_Tables_number   1
_chemical_formula_structural   Zn2H13C7S2(NO4)2
_chemical_formula_sum   'Zn8 H52 C28 S8 N8 O32'
_cell_volume   1468.62063145
_cell_formula_units_Z   4
loop_
 _symmetry_equiv_pos_site_id
 _symmetry_equiv_pos_as_xyz
  1  'x, y, z'
loop_
 _atom_site_type_symbol
 _atom_site_label
 _atom_site_symmetry_multiplicity
 _atom_site_fract_x
 _atom_site_fract_y
 _atom_site_fract_z
 _atom_site_occupancy
 _atom_site_hle17_bader_spin_density
 _atom_site_hle17_ddec_charge
 _atom_site_hle17_ddec_spin_density
 _atom_site_hle17_ddec_sum_bond_order
 _atom_site_hle17_magmom
 _atom_site_hse06_10hf_bader_spin_density
 _atom_site_hse06_10hf_ddec_charge
 _atom_site_hse06_10hf_ddec_spin_density
 _atom_site_hse06_10hf_ddec_sum_bond_order
 _atom_site_hse06_10hf_magmom
 _atom_site_hse06_bader_spin_density
 _atom_site_hse06_ddec_charge
 _atom_site_hse06_ddec_spin_density
 _atom_site_hse06_ddec_sum_bond_order
 _atom_site_hse06_magmom
 _atom_site_pbe_bader_charge
 _atom_site_pbe_bader_spin_density
 _atom_site_pbe_cm5_charge
 _atom_site_pbe_ddec_charge
 _atom_site_pbe_ddec_spin_density
 _atom_site_pbe_ddec_sum_bond_order
 _atom_site_pbe_magmom
Zn  Zn0  1  0.87564404  0.34139611  0.10366719  1  0  1.082766  0  1.767157  0  0  0.912902  0  2.217997  0  0  0.959579  0  2.162114  0  1.306328  0  0.67847  0.880021  0  2.256371  0
Zn  Zn1  1  0.62435688  0.65860671  0.60366804  1  0  1.082732  0  1.767215  0  0  0.912884  0  2.218077  0  0  0.959559  0  2.162187  0  1.306328  0  0.678472  0.879998  0  2.256451  0
Zn  Zn2  1  0.12435827  0.65860671  0.89633196  1  0  1.082732  0  1.767186  0  0  0.912889  0  2.218027  0  0  0.959564  0  2.162141  0  1.30635  0  0.67847  0.880004  0  2.256401  0
Zn  Zn3  1  0.37564417  0.34139611  0.39633238  1  0  1.082735  0  1.767163  0  0  0.91288  0  2.217997  0  0  0.95956  0  2.162116  0  1.306334  0  0.678472  0.88  0  2.256374  0
Zn  Zn4  1  0.52033928  0.51734457  0.24287282  1  0  1.155852  0  1.744449  0  0  0.984126  0  2.227376  0  0  1.033012  0  2.160684  0  1.309655  0  0.661576  0.949512  0  2.273453  0
Zn  Zn5  1  0.97965927  0.48265571  0.74287325  1  0  1.155817  0  1.744481  0  0  0.984076  0  2.227418  0  0  1.032965  0  2.160726  0  1.309686  0  0.661552  0.949463  0  2.273497  0
Zn  Zn6  1  0.47965955  0.48265317  0.75712718  1  0  1.155848  0  1.744458  0  0  0.984111  0  2.22739  0  0  1.033  0  2.160697  0  1.309679  0  0.66156  0.949499  0  2.273468  0
Zn  Zn7  1  0.02033759  0.51734330  0.25712718  1  0  1.155824  0  1.744495  0  0  0.984102  0  2.227431  0  0  1.032989  0  2.160736  0  1.309664  0  0.661563  0.949489  0  2.273508  0
H  H8  1  0.23298316  0.73167399  0.14196315  1  0  0.295025  0  0.864468  0  0  0.276172  0  0.926918  0  0  0.283513  0  0.921177  0  0.529336  0  0.321865  0.27091  0  0.931089  0
H  H9  1  0.26701760  0.26832502  0.64196315  1  0  0.294972  0  0.864526  0  0  0.27612  0  0.926976  0  0  0.283463  0  0.921233  0  0.529338  0  0.321836  0.270859  0  0.931147  0
H  H10  1  0.76701622  0.26832502  0.85803642  1  0  0.294963  0  0.864537  0  0  0.276129  0  0.926966  0  0  0.283471  0  0.921223  0  0.529337  0  0.321822  0.270867  0  0.931137  0
H  H11  1  0.73298485  0.73167526  0.35803727  1  0  0.294981  0  0.86455  0  0  0.276129  0  0.926999  0  0  0.283472  0  0.921256  0  0.52923  0  0.321846  0.270867  0  0.93117  0
H  H12  1  0.41024868  0.73802783  0.05940731  1  0  0.095775  0  0.937072  0  0  0.107221  0  0.997724  0  0  0.108701  0  0.996992  0  0.088404  0  0.113755  0.106037  0  0.99838  0
H  H13  1  0.08975138  0.26197244  0.55940731  1  0  0.095787  0  0.937093  0  0  0.107239  0  0.997737  0  0  0.108719  0  0.997003  0  0.088397  0  0.113763  0.106055  0  0.998393  0
H  H14  1  0.58975126  0.26197244  0.94059226  1  0  0.095805  0  0.937096  0  0  0.107258  0  0.997731  0  0  0.10874  0  0.996999  0  0.088411  0  0.113788  0.106075  0  0.998385  0
H  H15  1  0.91024981  0.73802783  0.44059269  1  0  0.095819  0  0.937095  0  0  0.107239  0  0.997728  0  0  0.108719  0  0.996994  0  0.088401  0  0.113776  0.106056  0  0.998383  0
H  H16  1  0.51534170  0.70223490  0.12250181  1  0  0.106962  0  0.939537  0  0  0.117174  0  1.001093  0  0  0.119033  0  0.999961  0  0.139685  0  0.114442  0.11566  0  1.002114  0
H  H17  1  0.98465937  0.29776538  0.62250138  1  0  0.106976  0  0.939534  0  0  0.117193  0  1.001085  0  0  0.119046  0  0.999961  0  0.139692  0  0.114467  0.115691  0  1.002092  0
H  H18  1  0.48465824  0.29776538  0.87749819  1  0  0.106976  0  0.93952  0  0  0.11719  0  1.001077  0  0  0.119049  0  0.999944  0  0.139682  0  0.114452  0.115676  0  1.002098  0
H  H19  1  0.01534183  0.70223490  0.37749862  1  0  0.106964  0  0.939515  0  0  0.117152  0  1.001067  0  0  0.119004  0  0.999941  0  0.139691  0  0.114441  0.115648  0  1.002075  0
H  H20  1  0.19542692  0.98634225  0.12987151  1  0  0.084605  0  0.941781  0  0  0.088651  0  1.021696  0  0  0.089978  0  1.020856  0  0.094453  0  0.108975  0.087603  0  1.022424  0
H  H21  1  0.30457259  0.01365676  0.62987151  1  0  0.084575  0  0.941821  0  0  0.088622  0  1.02173  0  0  0.089949  0  1.020891  0  0.094423  0  0.108962  0.087567  0  1.022464  0
H  H22  1  0.80457246  0.01365676  0.87012807  1  0  0.084563  0  0.941817  0  0  0.088607  0  1.021736  0  0  0.089935  0  1.020896  0  0.094419  0  0.108956  0.08756  0  1.022464  0
H  H23  1  0.69542735  0.98634352  0.37012807  1  0  0.084601  0  0.941793  0  0  0.088639  0  1.021726  0  0  0.089967  0  1.020886  0  0.094418  0  0.108967  0.087585  0  1.02246  0
H  H24  1  0.23373358  0.90519577  0.06343956  1  0  0.093828  0  0.937273  0  0  0.105327  0  0.999589  0  0  0.107154  0  0.998417  0  0.116915  0  0.113298  0.103915  0  1.000594  0
H  H25  1  0.26626593  0.09480324  0.56343999  1  0  0.093847  0  0.937258  0  0  0.105345  0  0.999576  0  0  0.107172  0  0.998405  0  0.116926  0  0.113309  0.103933  0  1.000579  0
H  H26  1  0.76626706  0.09480324  0.93656001  1  0  0.093844  0  0.937251  0  0  0.10534  0  0.999572  0  0  0.107167  0  0.9984  0  0.116925  0  0.113309  0.103927  0  1.000576  0
H  H27  1  0.73373345  0.90519577  0.43656001  1  0  0.093867  0  0.937263  0  0  0.10537  0  0.99957  0  0  0.107197  0  0.998398  0  0.116927  0  0.113321  0.103957  0  1.000574  0
H  H28  1  0.78011413  0.95136880  0.10307876  1  0  0.082624  0  0.937867  0  0  0.090291  0  1.010184  0  0  0.091344  0  1.009802  0  0.097379  0  0.106958  0.089427  0  1.010577  0
H  H29  1  0.71988568  0.04863148  0.60307918  1  0  0.082618  0  0.937873  0  0  0.090288  0  1.010196  0  0  0.091341  0  1.009814  0  0.09725  0  0.106961  0.089423  0  1.010588  0
H  H30  1  0.21988581  0.04863148  0.89691997  1  0  0.082664  0  0.937894  0  0  0.090312  0  1.010219  0  0  0.091366  0  1.009836  0  0.097241  0  0.106967  0.089448  0  1.010612  0
H  H31  1  0.28011425  0.95136880  0.39692082  1  0  0.082656  0  0.937902  0  0  0.090331  0  1.010212  0  0  0.091383  0  1.009831  0  0.097335  0  0.106974  0.089466  0  1.010605  0
H  H32  1  0.67313906  0.99140652  0.04166106  1  0  0.080949  0  0.929179  0  0  0.096587  0  0.986619  0  0  0.097386  0  0.986508  0  0.033885  0  0.108397  0.095926  0  0.986827  0
H  H33  1  0.82686074  0.00859376  0.54166106  1  0  0.080949  0  0.929178  0  0  0.096592  0  0.986617  0  0  0.097391  0  0.986506  0  0.03393  0  0.108404  0.095931  0  0.986822  0
H  H34  1  0.32685961  0.00859376  0.95833851  1  0  0.080995  0  0.929134  0  0  0.096621  0  0.986586  0  0  0.09742  0  0.986475  0  0.033947  0  0.108413  0.095961  0  0.986791  0
H  H35  1  0.17314045  0.99140652  0.45833894  1  0  0.080958  0  0.929171  0  0  0.096601  0  0.986616  0  0  0.097401  0  0.986505  0  0.033926  0  0.108401  0.095941  0  0.986822  0
H  H36  1  0.60922018  0.18152983  0.19955963  1  0  0.092373  0  0.977387  0  0  0.100031  0  1.048482  0  0  0.10117  0  1.048286  0  0.129009  0  0.104072  0.099091  0  1.048735  0
H  H37  1  0.89077963  0.81847045  0.69956006  1  0  0.092392  0  0.977374  0  0  0.100033  0  1.048467  0  0  0.101173  0  1.048272  0  0.129002  0  0.104076  0.099095  0  1.048718  0
H  H38  1  0.39078101  0.81847045  0.80043994  1  0  0.092338  0  0.977393  0  0  0.099999  0  1.048489  0  0  0.101138  0  1.048293  0  0.128995  0  0.104073  0.09906  0  1.048745  0
H  H39  1  0.10922031  0.18152983  0.30044037  1  0  0.092395  0  0.977377  0  0  0.100036  0  1.04847  0  0  0.101176  0  1.048275  0  0.129012  0  0.104077  0.099096  0  1.048725  0
H  H40  1  0.73635208  0.05342513  0.19361060  1  0  0.093889  0  0.934592  0  0  0.104742  0  0.998177  0  0  0.106017  0  0.99756  0  0.08735  0  0.107488  0.103691  0  0.998829  0
H  H41  1  0.76364773  0.94657515  0.69361103  1  0  0.093854  0  0.934621  0  0  0.104684  0  0.998213  0  0  0.105957  0  0.997595  0  0.08735  0  0.107467  0.103634  0  0.998864  0
H  H42  1  0.26364856  0.94657388  0.80638855  1  0  0.093824  0  0.934633  0  0  0.104666  0  0.998239  0  0  0.105938  0  0.997619  0  0.087355  0  0.107468  0.103616  0  0.998892  0
H  H43  1  0.23635347  0.05342513  0.30638940  1  0  0.093849  0  0.934641  0  0  0.104683  0  0.998228  0  0  0.105957  0  0.99761  0  0.087339  0  0.107462  0.103632  0  0.998881  0
H  H44  1  0.49610519  0.16244924  0.04958899  1  0  0.081248  0  0.927166  0  0  0.09697  0  0.984367  0  0  0.097723  0  0.984401  0  0.063307  0  0.109027  0.096318  0  0.984514  0
H  H45  1  0.00389432  0.83754977  0.54958899  1  0  0.081235  0  0.927147  0  0  0.096959  0  0.984354  0  0  0.097712  0  0.984388  0  0.063312  0  0.109026  0.096307  0  0.984501  0
H  H46  1  0.50389475  0.83755104  0.95041059  1  0  0.081251  0  0.927147  0  0  0.096975  0  0.984352  0  0  0.097728  0  0.984385  0  0.063322  0  0.109032  0.096323  0  0.984498  0
H  H47  1  0.99610506  0.16244924  0.45041101  1  0  0.081242  0  0.927165  0  0  0.096964  0  0.984367  0  0  0.097717  0  0.984401  0  0.063307  0  0.109027  0.096313  0  0.984513  0
H  H48  1  0.46363441  0.23656089  0.11743735  1  0  0.102156  0  0.92651  0  0  0.114062  0  0.987333  0  0  0.115394  0  0.986512  0  0.109283  0  0.113019  0.112971  0  0.988075  0
H  H49  1  0.03636566  0.76343939  0.61743777  1  0  0.102137  0  0.926498  0  0  0.114042  0  0.987326  0  0  0.115373  0  0.986506  0  0.109205  0  0.113003  0.112951  0  0.988068  0
H  H50  1  0.53636553  0.76343939  0.88256265  1  0  0.10215  0  0.926519  0  0  0.114058  0  0.987342  0  0  0.115389  0  0.986521  0  0.109217  0  0.113016  0.112966  0  0.988084  0
H  H51  1  0.96363428  0.23656089  0.38256265  1  0  0.10215  0  0.926508  0  0  0.114056  0  0.987328  0  0  0.115389  0  0.986508  0  0.109282  0  0.113019  0.112965  0  0.98807  0
H  H52  1  0.46406036  0.81292085  0.21277028  1  0  0.103163  0  0.937624  0  0  0.112235  0  1.00334  0  0  0.113811  0  1.002554  0  0.108301  0  0.114167  0.110987  0  1.004089  0
H  H53  1  0.03593970  0.18707943  0.71277028  1  0  0.103151  0  0.937622  0  0  0.112229  0  1.00334  0  0  0.113804  0  1.002555  0  0.108301  0  0.114173  0.110981  0  1.00409  0
H  H54  1  0.53593902  0.18707816  0.78722929  1  0  0.103157  0  0.937622  0  0  0.112227  0  1.003362  0  0  0.113802  0  1.002578  0  0.108278  0  0.114168  0.110979  0  1.004111  0
H  H55  1  0.96406150  0.81292085  0.28722972  1  0  0.103136  0  0.937645  0  0  0.112213  0  1.003366  0  0  0.113789  0  1.00258  0  0.108294  0  0.114164  0.110965  0  1.004115  0
H  H56  1  0.33505834  0.93999388  0.21403651  1  0  0.100699  0  0.912309  0  0  0.112492  0  0.972671  0  0  0.113791  0  0.972382  0  0.134179  0  0.11609  0.111483  0  0.97299  0
H  H57  1  0.16494172  0.06000639  0.71403736  1  0  0.100684  0  0.912312  0  0  0.11248  0  0.972674  0  0  0.113777  0  0.972386  0  0.134166  0  0.116091  0.111471  0  0.972993  0
H  H58  1  0.66494159  0.06000639  0.78596264  1  0  0.10067  0  0.91233  0  0  0.112471  0  0.972688  0  0  0.113769  0  0.9724  0  0.134159  0  0.116084  0.111463  0  0.973006  0
H  H59  1  0.83505947  0.93999388  0.28596307  1  0  0.100674  0  0.91237  0  0  0.112511  0  0.972683  0  0  0.113815  0  0.972394  0  0.134183  0  0.11609  0.111502  0  0.973002  0
C  C60  1  0.07199027  0.57837881  0.01528273  1  0  0.533048  0  3.924533  0  0  0.492964  0  4.205917  0  0  0.522405  0  4.199375  0  1.517969  0  0.207223  0.472905  0  4.209853  0
C  C61  1  0.42800854  0.42162147  0.51528401  1  0  0.532984  0  3.924641  0  0  0.492912  0  4.20602  0  0  0.522354  0  4.199475  0  1.539858  0  0.207181  0.472853  0  4.209955  0
C  C62  1  0.92800855  0.42161893  0.98471599  1  0  0.533022  0  3.924583  0  0  0.49296  0  4.205948  0  0  0.522401  0  4.199403  0  1.539905  0  0.207201  0.472902  0  4.209885  0
C  C63  1  0.57199266  0.57837881  0.48471727  1  0  0.533023  0  3.924556  0  0  0.492947  0  4.205934  0  0  0.522389  0  4.19939  0  1.518016  0  0.207184  0.472889  0  4.209869  0
C  C64  1  0.48358723  0.79594677  0.09847381  1  0  -0.027088  0  3.472668  0  0  -0.079982  0  3.714996  0  0  -0.077325  0  3.724674  0  0.184453  0  -0.061122  -0.081608  0  3.708505  0
C  C65  1  0.01641409  0.20405350  0.59847381  1  0  -0.027136  0  3.472669  0  0  -0.080042  0  3.715042  0  0  -0.077382  0  3.724722  0  0.184447  0  -0.061153  -0.081679  0  3.708552  0
C  C66  1  0.51641396  0.20405350  0.90152576  1  0  -0.027138  0  3.472686  0  0  -0.080041  0  3.715035  0  0  -0.077387  0  3.724714  0  0.184454  0  -0.061151  -0.081666  0  3.708542  0
C  C67  1  0.98358585  0.79594677  0.40152619  1  0  -0.027194  0  3.472821  0  0  -0.079968  0  3.715043  0  0  -0.077306  0  3.724722  0  0.184448  0  -0.061144  -0.081601  0  3.708546  0
C  C68  1  0.29784828  0.96506240  0.10348466  1  0  -0.025455  0  3.497736  0  0  -0.083809  0  3.750641  0  0  -0.081185  0  3.760993  0  0.181176  0  -0.060278  -0.085528  0  3.743772  0
C  C69  1  0.20215123  0.03493660  0.60348509  1  0  -0.025439  0  3.497753  0  0  -0.083786  0  3.750638  0  0  -0.081164  0  3.760992  0  0.181609  0  -0.060258  -0.0855  0  3.743772  0
C  C70  1  0.70215110  0.03493660  0.89651491  1  0  -0.025401  0  3.497721  0  0  -0.083746  0  3.750608  0  0  -0.081125  0  3.760962  0  0.1812  0  -0.060242  -0.085466  0  3.74374  0
C  C71  1  0.79784815  0.96506240  0.39651491  1  0  -0.025516  0  3.497754  0  0  -0.08388  0  3.750668  0  0  -0.081256  0  3.76102  0  0.181199  0  -0.0603  -0.085594  0  3.743803  0
C  C72  1  0.65506815  0.96149861  0.08718206  1  0  -0.032942  0  3.579728  0  0  -0.085417  0  3.830545  0  0  -0.082443  0  3.842544  0  0.261811  0  -0.067082  -0.087314  0  3.822334  0
C  C73  1  0.84493348  0.03850294  0.58718206  1  0  -0.032903  0  3.579717  0  0  -0.085391  0  3.830571  0  0  -0.082418  0  3.84257  0  0.261878  0  -0.06708  -0.087287  0  3.822359  0
C  C74  1  0.34493234  0.03850294  0.91281751  1  0  -0.033009  0  3.579775  0  0  -0.085458  0  3.830597  0  0  -0.082487  0  3.842598  0  0.261877  0  -0.067087  -0.087357  0  3.822389  0
C  C75  1  0.15506772  0.96149734  0.41281794  1  0  -0.032981  0  3.579821  0  0  -0.085516  0  3.830662  0  0  -0.082543  0  3.84266  0  0.261814  0  -0.067111  -0.087413  0  3.822453  0
C  C76  1  0.61456354  0.07040047  0.17844530  1  0  -0.053175  0  3.581436  0  0  -0.103068  0  3.822926  0  0  -0.101071  0  3.836055  0  0.223425  0  -0.078968  -0.10426  0  3.813985  0
C  C77  1  0.88543753  0.92959981  0.67844573  1  0  -0.053128  0  3.581352  0  0  -0.102948  0  3.82278  0  0  -0.100948  0  3.835904  0  0.223341  0  -0.078936  -0.104143  0  3.813846  0
C  C78  1  0.38543765  0.92959981  0.82155384  1  0  -0.052981  0  3.58126  0  0  -0.102875  0  3.822787  0  0  -0.100872  0  3.835908  0  0.223128  0  -0.078919  -0.104076  0  3.813861  0
C  C79  1  0.11456311  0.07039920  0.32155427  1  0  -0.05313  0  3.581401  0  0  -0.102951  0  3.822821  0  0  -0.100953  0  3.83595  0  0.223337  0  -0.07892  -0.104147  0  3.813886  0
C  C80  1  0.47282824  0.12897754  0.09477982  1  0  -0.035476  0  3.564354  0  0  -0.085261  0  3.810586  0  0  -0.082465  0  3.822514  0  0.228283  0  -0.067976  -0.08702  0  3.802433  0
C  C81  1  0.02717183  0.87102274  0.59478024  1  0  -0.035427  0  3.564275  0  0  -0.085208  0  3.810511  0  0  -0.082413  0  3.822442  0  0.22836  0  -0.06797  -0.086967  0  3.802357  0
C  C82  1  0.52717170  0.87102274  0.90521976  1  0  -0.035486  0  3.56433  0  0  -0.085266  0  3.810558  0  0  -0.082471  0  3.822488  0  0.228341  0  -0.067985  -0.087026  0  3.802406  0
C  C83  1  0.97282811  0.12897754  0.40522018  1  0  -0.035434  0  3.564317  0  0  -0.085212  0  3.81055  0  0  -0.082417  0  3.822479  0  0.22829  0  -0.067965  -0.08697  0  3.802395  0
C  C84  1  0.43767506  0.91173383  0.19014211  1  0  -0.014833  0  3.466121  0  0  -0.066652  0  3.7044  0  0  -0.063927  0  3.714463  0  0.160573  0  -0.060051  -0.068465  0  3.697778  0
C  C85  1  0.06232682  0.08826772  0.69014253  1  0  -0.014808  0  3.466066  0  0  -0.066648  0  3.704334  0  0  -0.06392  0  3.714391  0  0.160698  0  -0.060071  -0.06846  0  3.697714  0
C  C86  1  0.56232614  0.08826645  0.80985704  1  0  -0.014851  0  3.466073  0  0  -0.066691  0  3.704375  0  0  -0.063962  0  3.714429  0  0.160893  0  -0.060085  -0.068501  0  3.697755  0
C  C87  1  0.93767437  0.91173256  0.30985789  1  0  -0.014802  0  3.466157  0  0  -0.066676  0  3.704426  0  0  -0.063959  0  3.714496  0  0.160701  0  -0.060063  -0.068489  0  3.697807  0
S  S88  1  0.84987034  0.66034731  0.15790622  1  0  0.922866  0  4.463725  0  0  0.823808  0  4.968776  0  0  0.86224  0  4.948998  0  2.403612  0  0.368791  0.796954  0  4.981583  0
S  S89  1  0.65013144  0.33965169  0.65790708  1  0  0.922953  0  4.463639  0  0  0.823922  0  4.96866  0  0  0.862359  0  4.948881  0  2.403327  0  0.368804  0.79707  0  4.981468  0
S  S90  1  0.15013086  0.33965296  0.84209378  1  0  0.92307  0  4.46366  0  0  0.824022  0  4.96869  0  0  0.86246  0  4.94891  0  2.403935  0  0.368903  0.797169  0  4.981498  0
S  S91  1  0.34986795  0.66034731  0.34209335  1  0  0.922958  0  4.463654  0  0  0.823925  0  4.968686  0  0  0.862361  0  4.948905  0  2.403574  0  0.368807  0.79707  0  4.981495  0
S  S92  1  0.15371891  0.28369570  0.18809854  1  0  0.935581  0  4.422069  0  0  0.846154  0  4.92045  0  0  0.884563  0  4.899997  0  2.392962  0  0.374688  0.819253  0  4.933786  0
S  S93  1  0.34627934  0.71630331  0.68809939  1  0  0.935599  0  4.422027  0  0  0.846175  0  4.920413  0  0  0.884583  0  4.899961  0  2.392961  0  0.374713  0.819274  0  4.933749  0
S  S94  1  0.84627795  0.71630331  0.81190146  1  0  0.935583  0  4.422025  0  0  0.846156  0  4.920407  0  0  0.884563  0  4.899954  0  2.392946  0  0.374725  0.819253  0  4.933743  0
S  S95  1  0.65372059  0.28369697  0.31190146  1  0  0.935544  0  4.42202  0  0  0.846132  0  4.920411  0  0  0.884542  0  4.899959  0  2.392978  0  0.3747  0.819232  0  4.933745  0
N  N96  1  0.35204640  0.83942505  0.13407352  1  0  -0.087846  0  3.367904  0  0  -0.006691  0  3.57948  0  0  -0.01883  0  3.59721  0  -1.002934  0  -0.350539  0.001558  0  3.567457  0
N  N97  1  0.14795437  0.16057396  0.63407352  1  0  -0.087798  0  3.367865  0  0  -0.006648  0  3.579448  0  0  -0.018785  0  3.597174  0  -1.003359  0  -0.350538  0.001599  0  3.567428  0
N  N98  1  0.64795424  0.16057396  0.86592605  1  0  -0.087787  0  3.36787  0  0  -0.006638  0  3.579431  0  0  -0.018777  0  3.597157  0  -1.002935  0  -0.350521  0.001609  0  3.567409  0
N  N99  1  0.85204682  0.83942632  0.36592648  1  0  -0.087727  0  3.367954  0  0  -0.006603  0  3.579517  0  0  -0.01874  0  3.597244  0  -1.002842  0  -0.350503  0.001644  0  3.567498  0
N  N100  1  0.63782279  0.10713359  0.11650172  1  0  -0.218672  0  3.229725  0  0  -0.125527  0  3.476245  0  0  -0.144102  0  3.495879  0  -0.995314  0  -0.33719  -0.112625  0  3.462395  0
N  N101  1  0.86217702  0.89286669  0.61650215  1  0  -0.218715  0  3.229689  0  0  -0.125597  0  3.476227  0  0  -0.144171  0  3.49586  0  -0.995315  0  -0.337181  -0.112694  0  3.462377  0
N  N102  1  0.36217715  0.89286669  0.88349743  1  0  -0.218729  0  3.229674  0  0  -0.125583  0  3.476188  0  0  -0.144157  0  3.495823  0  -0.995302  0  -0.33722  -0.112679  0  3.462341  0
N  N103  1  0.13782417  0.10713359  0.38349828  1  0  -0.218681  0  3.229674  0  0  -0.125557  0  3.476215  0  0  -0.144128  0  3.495839  0  -0.99533  0  -0.337201  -0.112655  0  3.462366  0
O  O104  1  0.06590416  0.26092173  0.12864656  1  0  -0.705107  0  2.050868  0  0  -0.624428  0  2.344732  0  0  -0.650525  0  2.325246  0  -1.269531  0  -0.381929  -0.605969  0  2.35755  0
O  O105  1  0.43409450  0.73908109  0.62864698  1  0  -0.705079  0  2.050756  0  0  -0.624412  0  2.344629  0  0  -0.650507  0  2.325139  0  -1.26951  0  -0.381946  -0.605951  0  2.357443  0
O  O106  1  0.93409382  0.73907982  0.87135344  1  0  -0.705123  0  2.050766  0  0  -0.624464  0  2.344645  0  0  -0.650557  0  2.325155  0  -1.269535  0  -0.38198  -0.606003  0  2.357461  0
O  O107  1  0.56590529  0.26092173  0.37135387  1  0  -0.705092  0  2.050707  0  0  -0.624427  0  2.34457  0  0  -0.650523  0  2.325085  0  -1.269535  0  -0.381963  -0.605969  0  2.357389  0
O  O108  1  0.74846372  0.46830017  0.14477726  1  0  -0.736669  0  2.098075  0  0  -0.658603  0  2.411455  0  0  -0.685052  0  2.391458  0  -1.275875  0  -0.377111  -0.639747  0  2.424406  0
O  O109  1  0.75153301  0.53169884  0.64477982  1  0  -0.736679  0  2.098091  0  0  -0.658614  0  2.411426  0  0  -0.685061  0  2.391423  0  -1.275856  0  -0.377108  -0.639759  0  2.42438  0
O  O110  1  0.25153747  0.53170011  0.85522189  1  0  -0.736727  0  2.09804  0  0  -0.658682  0  2.411452  0  0  -0.685129  0  2.391451  0  -1.275897  0  -0.377136  -0.63982  0  2.42439  0
O  O111  1  0.24846567  0.46830144  0.35522231  1  0  -0.736691  0  2.09811  0  0  -0.658618  0  2.411457  0  0  -0.685067  0  2.391458  0  -1.27588  0  -0.377109  -0.639759  0  2.424399  0
O  O112  1  0.07598167  0.57400061  0.06891886  1  0  -0.584778  0  2.128502  0  0  -0.52671  0  2.382221  0  0  -0.551926  0  2.372343  0  -1.109085  0  -0.294882  -0.509176  0  2.388446  0
O  O113  1  0.42401810  0.42600475  0.56892099  1  0  -0.584708  0  2.128481  0  0  -0.526677  0  2.382232  0  0  -0.551896  0  2.372357  0  -1.10912  0  -0.294871  -0.509142  0  2.388455  0
O  O114  1  0.92401616  0.42600348  0.93107901  1  0  -0.584714  0  2.128433  0  0  -0.526686  0  2.382172  0  0  -0.551909  0  2.372309  0  -1.109138  0  -0.294874  -0.509152  0  2.388397  0
O  O115  1  0.57598391  0.57400316  0.43108114  1  0  -0.584707  0  2.128524  0  0  -0.526656  0  2.382244  0  0  -0.551879  0  2.372382  0  -1.109104  0  -0.294837  -0.509123  0  2.388468  0
O  O116  1  0.71818135  0.69503998  0.19902693  1  0  -0.71171  0  2.097954  0  0  -0.627531  0  2.408865  0  0  -0.655426  0  2.390676  0  -1.277748  0  -0.371346  -0.607783  0  2.420737  0
O  O117  1  0.78181749  0.30495522  0.69902736  1  0  -0.711731  0  2.097915  0  0  -0.627562  0  2.408825  0  0  -0.655457  0  2.390636  0  -1.277695  0  -0.371339  -0.607814  0  2.420699  0
O  O118  1  0.28181384  0.30495522  0.80097264  1  0  -0.711794  0  2.09791  0  0  -0.627617  0  2.408823  0  0  -0.655513  0  2.390632  0  -1.278105  0  -0.371431  -0.60787  0  2.420696  0
O  O119  1  0.21818022  0.69503998  0.30097264  1  0  -0.711761  0  2.09794  0  0  -0.6276  0  2.408858  0  0  -0.655494  0  2.390665  0  -1.277662  0  -0.371374  -0.607854  0  2.420733  0
O  O120  1  0.30960668  0.46586205  0.18863081  1  0  -0.729459  0  2.029052  0  0  -0.64967  0  2.339512  0  0  -0.676019  0  2.317976  0  -1.268423  0  -0.376524  -0.630947  0  2.353745  0
O  O121  1  0.19039283  0.53413696  0.68863124  1  0  -0.729436  0  2.029055  0  0  -0.649646  0  2.339508  0  0  -0.675994  0  2.317972  0  -1.268435  0  -0.376524  -0.630923  0  2.353744  0
O  O122  1  0.69039396  0.53413696  0.81136919  1  0  -0.729467  0  2.029096  0  0  -0.649658  0  2.339534  0  0  -0.676007  0  2.317999  0  -1.268452  0  -0.37653  -0.630935  0  2.353766  0
O  O123  1  0.80960655  0.46586205  0.31136961  1  0  -0.72943  0  2.029118  0  0  -0.649662  0  2.339591  0  0  -0.676011  0  2.318055  0  -1.268451  0  -0.376523  -0.630939  0  2.353824  0
O  O124  1  0.02000684  0.67506241  0.19391312  1  0  -0.735056  0  2.096035  0  0  -0.651048  0  2.405206  0  0  -0.6767  0  2.383633  0  -1.273336  0  -0.372445  -0.63298  0  2.419604  0
O  O125  1  0.47999310  0.32492897  0.69391439  1  0  -0.735136  0  2.096052  0  0  -0.651118  0  2.405211  0  0  -0.67678  0  2.383645  0  -1.273157  0  -0.37246  -0.63305  0  2.41961  0
O  O126  1  0.97999254  0.32493660  0.80608688  1  0  -0.735121  0  2.096016  0  0  -0.651103  0  2.405178  0  0  -0.676764  0  2.383611  0  -1.273332  0  -0.372451  -0.633038  0  2.41958  0
O  O127  1  0.52000516  0.67506749  0.30608603  1  0  -0.735111  0  2.096011  0  0  -0.651101  0  2.405179  0  0  -0.676762  0  2.383611  0  -1.273364  0  -0.372438  -0.633031  0  2.419576  0
O  O128  1  0.00738907  0.29702594  0.22964302  1  0  -0.752139  0  2.109673  0  0  -0.670986  0  2.429553  0  0  -0.698459  0  2.409029  0  -1.267348  0  -0.378041  -0.651504  0  2.443055  0
O  O129  1  0.49261114  0.70297180  0.72964345  1  0  -0.752202  0  2.109736  0  0  -0.671055  0  2.429628  0  0  -0.698526  0  2.4091  0  -1.267356  0  -0.378052  -0.651573  0  2.443131  0
O  O130  1  0.99261017  0.70297561  0.77035698  1  0  -0.752128  0  2.109696  0  0  -0.670976  0  2.429576  0  0  -0.698446  0  2.409052  0  -1.267324  0  -0.378037  -0.651491  0  2.443076  0
O  O131  1  0.50739020  0.29702594  0.27035740  1  0  -0.752131  0  2.109711  0  0  -0.670987  0  2.429593  0  0  -0.698457  0  2.409067  0  -1.267343  0  -0.378032  -0.651505  0  2.443095  0
O  O132  1  0.17647035  0.70016396  0.98423691  1  0  -0.592967  0  2.069196  0  0  -0.536482  0  2.32384  0  0  -0.561315  0  2.311495  0  -1.173097  0  -0.306789  -0.519251  0  2.331939  0
O  O133  1  0.32353083  0.29983886  0.48423818  1  0  -0.592962  0  2.069274  0  0  -0.536473  0  2.323905  0  0  -0.561306  0  2.31156  0  -1.173028  0  -0.306774  -0.519244  0  2.332007  0
O  O134  1  0.82353014  0.29983758  0.01576224  1  0  -0.593  0  2.069293  0  0  -0.536512  0  2.323924  0  0  -0.561344  0  2.311578  0  -1.173065  0  -0.306794  -0.519282  0  2.332025  0
O  O135  1  0.67647259  0.70016651  0.51576309  1  0  -0.592998  0  2.069126  0  0  -0.536508  0  2.323761  0  0  -0.56134  0  2.311415  0  -1.173103  0  -0.3068  -0.519277  0  2.331859  0
