# generated using pymatgen
data_CdH9C10N6ClO
_symmetry_space_group_name_H-M   'P 1'
_cell_length_a   6.86692931
_cell_length_b   13.13641617
_cell_length_c   13.27000000
_cell_angle_alpha   90.00000000
_cell_angle_beta   100.64356717
_cell_angle_gamma   90.00000000
_symmetry_Int_Tables_number   1
_chemical_formula_structural   CdH9C10N6ClO
_chemical_formula_sum   'Cd4 H36 C40 N24 Cl4 O4'
_cell_volume   1176.44985555
_cell_formula_units_Z   4
loop_
 _symmetry_equiv_pos_site_id
 _symmetry_equiv_pos_as_xyz
  1  'x, y, z'
loop_
 _atom_site_type_symbol
 _atom_site_label
 _atom_site_symmetry_multiplicity
 _atom_site_fract_x
 _atom_site_fract_y
 _atom_site_fract_z
 _atom_site_occupancy
 _atom_site_hle17_bader_spin_density
 _atom_site_hle17_ddec_charge
 _atom_site_hle17_ddec_spin_density
 _atom_site_hle17_ddec_sum_bond_order
 _atom_site_hle17_magmom
 _atom_site_hse06_10hf_bader_spin_density
 _atom_site_hse06_10hf_ddec_charge
 _atom_site_hse06_10hf_ddec_spin_density
 _atom_site_hse06_10hf_ddec_sum_bond_order
 _atom_site_hse06_10hf_magmom
 _atom_site_hse06_bader_spin_density
 _atom_site_hse06_ddec_charge
 _atom_site_hse06_ddec_spin_density
 _atom_site_hse06_ddec_sum_bond_order
 _atom_site_hse06_magmom
 _atom_site_pbe_bader_charge
 _atom_site_pbe_bader_spin_density
 _atom_site_pbe_cm5_charge
 _atom_site_pbe_ddec_charge
 _atom_site_pbe_ddec_spin_density
 _atom_site_pbe_ddec_sum_bond_order
 _atom_site_pbe_magmom
Cd  Cd0  1  0.19415198  0.68388972  0.22620840  1  0  1.060892  0  1.788971  0  0  0.882738  0  2.2403  0  0  0.932152  0  2.194636  0  1.219931  0  0.683808  0.847638  0  2.271487  0
Cd  Cd1  1  0.30584764  0.18388958  0.77379130  1  0  1.060912  0  1.788953  0  0  0.882757  0  2.240293  0  0  0.932173  0  2.194624  0  1.219932  0  0.683817  0.847658  0  2.27148  0
Cd  Cd2  1  0.80584874  0.31611133  0.77379114  1  0  1.060916  0  1.788927  0  0  0.882753  0  2.24027  0  0  0.932167  0  2.194606  0  1.219939  0  0.683827  0.847654  0  2.271456  0
Cd  Cd3  1  0.69415309  0.81611072  0.22620900  1  0  1.060881  0  1.78894  0  0  0.88272  0  2.240279  0  0  0.932135  0  2.194617  0  1.219944  0  0.68381  0.847621  0  2.271464  0
H  H4  1  0.84193079  0.72900096  0.06625032  1  0  0.392263  0  0.920894  0  0  0.349209  0  1.009958  0  0  0.361515  0  0.992324  0  0.634473  0  0.283204  0.340552  0  1.022321  0
H  H5  1  0.65806955  0.22900158  0.93374967  1  0  0.39227  0  0.920881  0  0  0.349206  0  1.009962  0  0  0.361512  0  0.992329  0  0.634469  0  0.283198  0.34055  0  1.022323  0
H  H6  1  0.15806845  0.27099857  0.93374908  1  0  0.392249  0  0.92091  0  0  0.349199  0  1.009971  0  0  0.361505  0  0.992337  0  0.63447  0  0.283205  0.340543  0  1.022333  0
H  H7  1  0.34193117  0.77099795  0.06625062  1  0  0.392233  0  0.920953  0  0  0.349178  0  1.010009  0  0  0.361482  0  0.992377  0  0.634467  0  0.283196  0.340521  0  1.022369  0
H  H8  1  0.80099750  0.61577221  0.10721067  1  0  0.399504  0  0.911772  0  0  0.353749  0  1.001552  0  0  0.366083  0  0.984401  0  0.64194  0  0.280761  0.345091  0  1.013543  0
H  H9  1  0.69900285  0.11577206  0.89279008  1  0  0.399515  0  0.911758  0  0  0.353761  0  1.001535  0  0  0.366096  0  0.984384  0  0.641938  0  0.280764  0.345104  0  1.013526  0
H  H10  1  0.19900323  0.38422808  0.89278963  1  0  0.399505  0  0.911762  0  0  0.353751  0  1.001546  0  0  0.366086  0  0.984394  0  0.641938  0  0.280764  0.345094  0  1.013536  0
H  H11  1  0.30099788  0.88422823  0.10721021  1  0  0.399503  0  0.911777  0  0  0.353747  0  1.001556  0  0  0.366081  0  0.984406  0  0.641939  0  0.280759  0.345089  0  1.013547  0
H  H12  1  0.12655167  0.43362131  0.17358607  1  0  0.086422  0  1.004958  0  0  0.08323  0  1.090395  0  0  0.086945  0  1.085462  0  0.219922  0  0.129747  0.080522  0  1.093873  0
H  H13  1  0.37344499  0.93362070  0.82641335  1  0  0.086417  0  1.004993  0  0  0.08324  0  1.090418  0  0  0.086957  0  1.085482  0  0.22001  0  0.129737  0.080532  0  1.0939  0
H  H14  1  0.87344461  0.56637974  0.82641305  1  0  0.086457  0  1.004959  0  0  0.083262  0  1.090398  0  0  0.086978  0  1.085464  0  0.220022  0  0.129732  0.080554  0  1.093879  0
H  H15  1  0.62655129  0.06637883  0.17358728  1  0  0.086441  0  1.004962  0  0  0.083245  0  1.09041  0  0  0.086961  0  1.085473  0  0.219947  0  0.129741  0.080537  0  1.093889  0
H  H16  1  0.15101088  0.57581991  0.45946187  1  0  0.096788  0  0.979874  0  0  0.105304  0  1.044651  0  0  0.107211  0  1.044401  0  0.134897  0  0.112218  0.10395  0  1.044872  0
H  H17  1  0.34899467  0.07582129  0.54053915  1  0  0.09686  0  0.979811  0  0  0.105367  0  1.04461  0  0  0.107275  0  1.044358  0  0.134929  0  0.112246  0.104008  0  1.044827  0
H  H18  1  0.84899577  0.42417962  0.54053823  1  0  0.096838  0  0.979842  0  0  0.105352  0  1.044623  0  0  0.107261  0  1.044371  0  0.134924  0  0.11224  0.103994  0  1.044841  0
H  H19  1  0.65101051  0.92417900  0.45946233  1  0  0.09685  0  0.979884  0  0  0.105364  0  1.044661  0  0  0.107272  0  1.044409  0  0.134876  0  0.112227  0.104009  0  1.044882  0
H  H20  1  0.15677933  0.36717016  0.49029655  1  0  0.119462  0  0.97141  0  0  0.127656  0  1.036085  0  0  0.130848  0  1.033547  0  0.155297  0  0.116276  0.125304  0  1.038058  0
H  H21  1  0.34322770  0.86716954  0.50970461  1  0  0.119471  0  0.971362  0  0  0.127653  0  1.036048  0  0  0.130833  0  1.033524  0  0.155308  0  0.116287  0.125301  0  1.03802  0
H  H22  1  0.84322732  0.63283089  0.50970431  1  0  0.119473  0  0.971396  0  0  0.127668  0  1.036068  0  0  0.130856  0  1.033534  0  0.155285  0  0.11629  0.125315  0  1.038042  0
H  H23  1  0.65677895  0.13282923  0.49029625  1  0  0.119429  0  0.971464  0  0  0.127629  0  1.036128  0  0  0.130817  0  1.033595  0  0.155282  0  0.116265  0.125278  0  1.0381  0
H  H24  1  0.08218516  0.21193375  0.45061767  1  0  0.107293  0  0.959117  0  0  0.115464  0  1.027907  0  0  0.118688  0  1.025776  0  0.073147  0  0.09986  0.113125  0  1.029548  0
H  H25  1  0.41781150  0.71193542  0.54938174  1  0  0.107287  0  0.959129  0  0  0.115456  0  1.027923  0  0  0.118683  0  1.025788  0  0.073138  0  0.099856  0.113118  0  1.029565  0
H  H26  1  0.91781112  0.78806578  0.54938144  1  0  0.107255  0  0.959182  0  0  0.115426  0  1.027969  0  0  0.118651  0  1.025838  0  0.073115  0  0.099843  0.113088  0  1.029611  0
H  H27  1  0.58218627  0.28806639  0.45061827  1  0  0.107293  0  0.959103  0  0  0.115463  0  1.027895  0  0  0.118689  0  1.025762  0  0.073149  0  0.099859  0.113124  0  1.029537  0
H  H28  1  0.08149911  0.02874681  0.40556868  1  0  0.090489  0  0.96061  0  0  0.100517  0  1.023079  0  0  0.102679  0  1.02295  0  0.084038  0  0.09741  0.098952  0  1.023283  0
H  H29  1  0.41849903  0.52874771  0.59443088  1  0  0.090463  0  0.960665  0  0  0.100497  0  1.023134  0  0  0.102659  0  1.023005  0  0.084056  0  0.097407  0.098936  0  1.02333  0
H  H30  1  0.91849717  0.97125196  0.59443119  1  0  0.090454  0  0.960665  0  0  0.100497  0  1.023124  0  0  0.102659  0  1.022995  0  0.08405  0  0.097408  0.098933  0  1.023329  0
H  H31  1  0.58150022  0.47125334  0.40556777  1  0  0.090476  0  0.960643  0  0  0.100492  0  1.02313  0  0  0.102654  0  1.023002  0  0.084071  0  0.097399  0.09893  0  1.023328  0
H  H32  1  0.13093023  0.97339943  0.23519597  1  0  0.100194  0  0.969287  0  0  0.10759  0  1.039284  0  0  0.110345  0  1.038116  0  0.090985  0  0.095587  0.105577  0  1.04025  0
H  H33  1  0.36906791  0.47340004  0.76480434  1  0  0.100206  0  0.969274  0  0  0.107587  0  1.039291  0  0  0.110342  0  1.038121  0  0.090991  0  0.095595  0.105574  0  1.040257  0
H  H34  1  0.86906753  0.02660086  0.76480404  1  0  0.100214  0  0.969265  0  0  0.107608  0  1.039268  0  0  0.110363  0  1.038097  0  0.090987  0  0.095586  0.105595  0  1.040233  0
H  H35  1  0.63092985  0.52659949  0.23519416  1  0  0.100223  0  0.96924  0  0  0.1076  0  1.039257  0  0  0.110355  0  1.03809  0  0.090986  0  0.095596  0.105587  0  1.040224  0
H  H36  1  0.18853467  0.28593948  0.14750949  1  0  0.11585  0  0.950849  0  0  0.125397  0  1.014685  0  0  0.128696  0  1.01247  0  0.106107  0  0.11085  0.122996  0  1.016401  0
H  H37  1  0.31146643  0.78593963  0.85249110  1  0  0.115768  0  0.950839  0  0  0.125352  0  1.014645  0  0  0.128651  0  1.01243  0  0.106078  0  0.110817  0.122952  0  1.016361  0
H  H38  1  0.81146457  0.71406005  0.85248991  1  0  0.115712  0  0.950898  0  0  0.125332  0  1.014672  0  0  0.12863  0  1.012458  0  0.106107  0  0.110809  0.122932  0  1.016387  0
H  H39  1  0.68852985  0.21405914  0.14750877  1  0  0.115775  0  0.950894  0  0  0.125364  0  1.014687  0  0  0.128663  0  1.012471  0  0.106063  0  0.110825  0.122964  0  1.016402  0
C  C40  1  0.12911509  0.44370397  0.25498480  1  0  0.179576  0  3.646856  0  0  0.118576  0  3.917698  0  0  0.132657  0  3.930628  0  0.913113  0  0.143569  0.109528  0  3.908663  0
C  C41  1  0.37088453  0.94370412  0.74501716  1  0  0.17956  0  3.646878  0  0  0.118537  0  3.917739  0  0  0.132616  0  3.930665  0  0.912962  0  0.14355  0.109486  0  3.908706  0
C  C42  1  0.87088415  0.55629708  0.74501610  1  0  0.179455  0  3.6467  0  0  0.118457  0  3.917546  0  0  0.132536  0  3.93047  0  0.91274  0  0.143561  0.109407  0  3.908513  0
C  C43  1  0.62911323  0.05629618  0.25498512  1  0  0.17947  0  3.646762  0  0  0.11846  0  3.917622  0  0  0.132538  0  3.930553  0  0.913105  0  0.14354  0.109412  0  3.908587  0
C  C44  1  0.14416965  0.51449040  0.40454802  1  0  0.006631  0  3.752859  0  0  -0.025547  0  4.015939  0  0  -0.023387  0  4.036669  0  0.399253  0  -0.002634  -0.026967  0  4.001872  0
C  C45  1  0.35583442  0.01448873  0.59545436  1  0  0.006533  0  3.753073  0  0  -0.025637  0  4.016157  0  0  -0.02348  0  4.036877  0  0.399277  0  -0.002638  -0.027047  0  4.002081  0
C  C46  1  0.85583700  0.48551141  0.59545359  1  0  0.006561  0  3.753022  0  0  -0.025619  0  4.016111  0  0  -0.023461  0  4.036831  0  0.399252  0  -0.002646  -0.027031  0  4.002038  0
C  C47  1  0.64416927  0.98550775  0.40454848  1  0  0.006478  0  3.753068  0  0  -0.02571  0  4.016169  0  0  -0.023551  0  4.03689  0  0.399229  0  -0.002675  -0.02713  0  4.002103  0
C  C48  1  0.14364363  0.41135116  0.42049096  1  0  -0.057288  0  3.648487  0  0  -0.09609  0  3.905745  0  0  -0.094518  0  3.923791  0  0.26638  0  0.002693  -0.097039  0  3.893631  0
C  C49  1  0.35635303  0.91135283  0.57951071  1  0  -0.057269  0  3.648601  0  0  -0.096064  0  3.905868  0  0  -0.094481  0  3.923923  0  0.266206  0  0.002694  -0.097013  0  3.89375  0
C  C50  1  0.85635265  0.58864761  0.57950891  1  0  -0.057287  0  3.648687  0  0  -0.096088  0  3.905952  0  0  -0.094512  0  3.924  0  0.266355  0  0.002717  -0.097038  0  3.893835  0
C  C51  1  0.64364325  0.08864823  0.42049217  1  0  -0.057174  0  3.64866  0  0  -0.095968  0  3.905904  0  0  -0.094391  0  3.923954  0  0.266383  0  0.002776  -0.096917  0  3.893787  0
C  C52  1  0.13398115  0.26122117  0.30151319  1  0  0.186996  0  3.787815  0  0  0.18219  0  4.033541  0  0  0.188084  0  4.055677  0  0.318843  0  0.096439  0.178234  0  4.018611  0
C  C53  1  0.36601699  0.76122208  0.69848788  1  0  0.186967  0  3.787853  0  0  0.18215  0  4.033597  0  0  0.188044  0  4.055733  0  0.318748  0  0.096407  0.178194  0  4.018667  0
C  C54  1  0.86601809  0.73877836  0.69848696  1  0  0.186889  0  3.788105  0  0  0.182144  0  4.033758  0  0  0.188038  0  4.055895  0  0.318774  0  0.096448  0.178188  0  4.018826  0
C  C55  1  0.63398226  0.23877821  0.30151303  1  0  0.186895  0  3.787951  0  0  0.182089  0  4.033686  0  0  0.187982  0  4.055823  0  0.31877  0  0.096445  0.178134  0  4.018755  0
C  C56  1  0.10707260  0.18890312  0.37509356  1  0  -0.15172  0  3.710259  0  0  -0.177812  0  3.969146  0  0  -0.180885  0  3.987484  0  0.014517  0  -0.095099  -0.175629  0  3.956718  0
C  C57  1  0.39292554  0.68890479  0.62490600  1  0  -0.151689  0  3.710163  0  0  -0.17778  0  3.969059  0  0  -0.180852  0  3.987394  0  0.014583  0  -0.095079  -0.175598  0  3.956632  0
C  C58  1  0.89292516  0.81109413  0.62490419  1  0  -0.15164  0  3.710104  0  0  -0.17776  0  3.969005  0  0  -0.180831  0  3.987339  0  0.014588  0  -0.095079  -0.175578  0  3.956578  0
C  C59  1  0.60707223  0.31109703  0.37509326  1  0  -0.151684  0  3.710274  0  0  -0.177786  0  3.969176  0  0  -0.180858  0  3.987514  0  0.014528  0  -0.095081  -0.175604  0  3.956748  0
C  C60  1  0.10692147  0.08573647  0.34981687  1  0  -0.046134  0  3.776228  0  0  -0.057211  0  4.028819  0  0  -0.057875  0  4.050196  0  -0.102945  0  -0.09052  -0.056721  0  4.014334  0
C  C61  1  0.39307667  0.58573738  0.65018344  1  0  -0.046059  0  3.776163  0  0  -0.057136  0  4.028733  0  0  -0.057799  0  4.050108  0  -0.102964  0  -0.090486  -0.056646  0  4.014252  0
C  C62  1  0.89307333  0.91426382  0.65018210  1  0  -0.046093  0  3.776041  0  0  -0.05717  0  4.028611  0  0  -0.057835  0  4.049985  0  -0.102971  0  -0.090521  -0.056682  0  4.014131  0
C  C63  1  0.60692109  0.41426291  0.34981582  1  0  -0.046071  0  3.776236  0  0  -0.057141  0  4.028822  0  0  -0.057807  0  4.050202  0  -0.102934  0  -0.0905  -0.056651  0  4.014339  0
C  C64  1  0.13343142  0.05419439  0.25330692  1  0  -0.088801  0  3.707344  0  0  -0.118698  0  3.963221  0  0  -0.121537  0  3.984139  0  0.067491  0  -0.089891  -0.116734  0  3.949183  0
C  C65  1  0.36656820  0.55419453  0.74669278  1  0  -0.088861  0  3.707373  0  0  -0.118751  0  3.963239  0  0  -0.121589  0  3.984155  0  0.06749  0  -0.089929  -0.116786  0  3.949201  0
C  C66  1  0.86656782  0.94580514  0.74669173  1  0  -0.08889  0  3.707415  0  0  -0.118799  0  3.963316  0  0  -0.121637  0  3.984231  0  0.067479  0  -0.089928  -0.116834  0  3.949277  0
C  C67  1  0.63343105  0.44580576  0.25330587  1  0  -0.088866  0  3.707387  0  0  -0.118762  0  3.96324  0  0  -0.121603  0  3.98416  0  0.067494  0  -0.089921  -0.116798  0  3.949203  0
C  C68  1  0.16188247  0.12689230  0.17997269  1  0  0.020371  0  3.812944  0  0  0.038556  0  4.054781  0  0  0.038147  0  4.07608  0  0.001835  0  -0.005059  0.038725  0  4.040387  0
C  C69  1  0.33811715  0.62689244  0.82002776  1  0  0.020405  0  3.812896  0  0  0.038611  0  4.054712  0  0  0.038203  0  4.076011  0  0.001923  0  -0.005053  0.038779  0  4.040319  0
C  C70  1  0.83811529  0.87310952  0.82002657  1  0  0.020456  0  3.812875  0  0  0.038673  0  4.054722  0  0  0.038265  0  4.076022  0  0.001932  0  -0.005023  0.038843  0  4.040328  0
C  C71  1  0.66187913  0.37310709  0.17997060  1  0  0.020317  0  3.813068  0  0  0.038564  0  4.054845  0  0  0.038157  0  4.076146  0  0.00181  0  -0.005078  0.038732  0  4.040452  0
C  C72  1  0.16164094  0.23055679  0.20437011  1  0  -0.1748  0  3.687367  0  0  -0.206864  0  3.939959  0  0  -0.210969  0  3.959742  0  -0.049904  0  -0.089209  -0.204046  0  3.926714  0
C  C73  1  0.33835720  0.73055694  0.79562870  1  0  -0.174714  0  3.687272  0  0  -0.206812  0  3.939866  0  0  -0.210917  0  3.95965  0  -0.049854  0  -0.089154  -0.203994  0  3.926622  0
C  C74  1  0.83835830  0.76944274  0.79562779  1  0  -0.174654  0  3.6873  0  0  -0.2068  0  3.939857  0  0  -0.210905  0  3.959641  0  -0.049868  0  -0.089142  -0.203982  0  3.926612  0
C  C75  1  0.66164501  0.26944335  0.20437023  1  0  -0.17466  0  3.687389  0  0  -0.20676  0  3.939934  0  0  -0.210865  0  3.959719  0  -0.049783  0  -0.089174  -0.203941  0  3.926689  0
C  C76  1  0.19742220  0.09540882  0.07947650  1  0  0.278434  0  3.789129  0  0  0.246381  0  4.067274  0  0  0.256456  0  4.083059  0  0.911595  0  0.215825  0.239682  0  4.056552  0
C  C77  1  0.30257594  0.59540821  0.92052306  1  0  0.278439  0  3.789184  0  0  0.246374  0  4.067338  0  0  0.256448  0  4.083125  0  0.911511  0  0.215818  0.239676  0  4.056616  0
C  C78  1  0.80257704  0.90459147  0.92052290  1  0  0.278432  0  3.789072  0  0  0.246309  0  4.067314  0  0  0.256382  0  4.083102  0  0.911525  0  0.215768  0.239609  0  4.056592  0
C  C79  1  0.69742182  0.40459056  0.07947620  1  0  0.278363  0  3.789239  0  0  0.246257  0  4.06743  0  0  0.256328  0  4.083222  0  0.91162  0  0.215777  0.239558  0  4.056709  0
N  N80  1  0.13514432  0.53327558  0.30143597  1  0  -0.383634  0  3.271796  0  0  -0.305266  0  3.550236  0  0  -0.32738  0  3.569409  0  -1.224086  0  -0.362293  -0.290067  0  3.53663  0
N  N81  1  0.36485826  0.03327620  0.69856552  1  0  -0.38359  0  3.271922  0  0  -0.305207  0  3.550323  0  0  -0.327339  0  3.569551  0  -1.224122  0  -0.362275  -0.290006  0  3.536707  0
N  N82  1  0.86485937  0.46672471  0.69856536  1  0  -0.383636  0  3.271875  0  0  -0.305247  0  3.550269  0  0  -0.327376  0  3.569486  0  -1.224085  0  -0.362297  -0.290046  0  3.536654  0
N  N83  1  0.63514395  0.96672409  0.30143567  1  0  -0.383554  0  3.271849  0  0  -0.305167  0  3.550261  0  0  -0.327288  0  3.56946  0  -1.22409  0  -0.362268  -0.289966  0  3.536647  0
N  N84  1  0.13344920  0.36684130  0.32459649  1  0  -0.094995  0  3.597278  0  0  -0.001894  0  3.797429  0  0  -0.017718  0  3.824599  0  -1.251851  0  -0.224286  0.008587  0  3.77895  0
N  N85  1  0.36655042  0.86684069  0.67540321  1  0  -0.09502  0  3.597249  0  0  -0.001915  0  3.797414  0  0  -0.017737  0  3.82458  0  -1.251637  0  -0.224316  0.008567  0  3.778936  0
N  N86  1  0.86655004  0.63315975  0.67540141  1  0  -0.094837  0  3.597255  0  0  -0.001768  0  3.797404  0  0  -0.017592  0  3.824578  0  -1.251614  0  -0.224315  0.008713  0  3.778926  0
N  N87  1  0.63344734  0.13315884  0.32459755  1  0  -0.094892  0  3.597242  0  0  -0.0018  0  3.7974  0  0  -0.017623  0  3.824573  0  -1.25184  0  -0.224294  0.008681  0  3.778921  0
N  N88  1  0.19749481  0.15831487  0.99960250  1  0  -0.314825  0  3.031732  0  0  -0.272074  0  3.290501  0  0  -0.283818  0  3.305356  0  -0.707598  0  -0.220792  -0.264109  0  3.280402  0
N  N89  1  0.30250630  0.65831501  0.00039734  1  0  -0.314851  0  3.031702  0  0  -0.2721  0  3.290477  0  0  -0.283845  0  3.305334  0  -0.707663  0  -0.220799  -0.264135  0  3.280379  0
N  N90  1  0.80250592  0.84168542  0.00039704  1  0  -0.314846  0  3.031705  0  0  -0.272071  0  3.290497  0  0  -0.283815  0  3.305354  0  -0.707599  0  -0.220789  -0.264105  0  3.280398  0
N  N91  1  0.69749295  0.34168528  0.99960131  1  0  -0.31486  0  3.031779  0  0  -0.272104  0  3.290573  0  0  -0.283847  0  3.305429  0  -0.707693  0  -0.220812  -0.264139  0  3.280476  0
N  N92  1  0.24003580  0.09874078  0.92422687  1  0  -0.14044  0  3.174557  0  0  -0.086584  0  3.466112  0  0  -0.097248  0  3.484114  0  -0.212417  0  -0.117718  -0.079052  0  3.453601  0
N  N93  1  0.25996679  0.59874017  0.07577312  1  0  -0.140425  0  3.174561  0  0  -0.086565  0  3.466106  0  0  -0.09723  0  3.484109  0  -0.212354  0  -0.117708  -0.079034  0  3.453595  0
N  N94  1  0.75996641  0.90125875  0.07577282  1  0  -0.140432  0  3.174578  0  0  -0.08658  0  3.466122  0  0  -0.097245  0  3.484126  0  -0.212427  0  -0.117714  -0.079049  0  3.453611  0
N  N95  1  0.74003394  0.40126013  0.92422643  1  0  -0.140319  0  3.174601  0  0  -0.08645  0  3.466126  0  0  -0.097114  0  3.484128  0  -0.212371  0  -0.117659  -0.078919  0  3.453614  0
N  N96  1  0.26585081  0.00356490  0.95614710  1  0  -0.066618  0  2.981414  0  0  -0.065312  0  3.276016  0  0  -0.06318  0  3.289558  0  -0.106834  0  -0.094381  -0.06646  0  3.266719  0
N  N97  1  0.23415177  0.50356581  0.04385364  1  0  -0.06655  0  2.981426  0  0  -0.065238  0  3.276021  0  0  -0.063105  0  3.289562  0  -0.106731  0  -0.094358  -0.066385  0  3.266724  0
N  N98  1  0.73415140  0.99643387  0.04385409  1  0  -0.06655  0  2.981441  0  0  -0.065227  0  3.276023  0  0  -0.063094  0  3.289564  0  -0.106724  0  -0.094357  -0.066374  0  3.266725  0
N  N99  1  0.76585043  0.49643449  0.95614680  1  0  -0.066629  0  2.981463  0  0  -0.065323  0  3.276067  0  0  -0.06319  0  3.289608  0  -0.106827  0  -0.094384  -0.066471  0  3.26677  0
N  N100  1  0.23989799  0.99936009  0.05339455  1  0  -0.307129  0  3.041503  0  0  -0.260764  0  3.319299  0  0  -0.274285  0  3.332866  0  -0.688612  0  -0.203328  -0.251609  0  3.310108  0
N  N101  1  0.26010311  0.49935994  0.94660529  1  0  -0.307195  0  3.041532  0  0  -0.260833  0  3.319332  0  0  -0.274354  0  3.332899  0  -0.688629  0  -0.203354  -0.251678  0  3.310141  0
N  N102  1  0.76010273  0.00064097  0.94660574  1  0  -0.307182  0  3.041439  0  0  -0.260808  0  3.319268  0  0  -0.274327  0  3.332833  0  -0.688617  0  -0.203313  -0.251652  0  3.310077  0
N  N103  1  0.73989613  0.50063959  0.05339487  1  0  -0.307126  0  3.041548  0  0  -0.26075  0  3.319355  0  0  -0.274272  0  3.332928  0  -0.688613  0  -0.203326  -0.251595  0  3.310163  0
Cl  Cl104  1  0.05111587  0.80615442  0.34526382  1  0  -0.568455  0  0.941759  0  0  -0.498863  0  1.222042  0  0  -0.518086  0  1.199564  0  -0.636146  0  -0.294046  -0.485073  0  1.237361  0
Cl  Cl105  1  0.44888524  0.30615504  0.65473677  1  0  -0.568464  0  0.941759  0  0  -0.498867  0  1.222036  0  0  -0.518089  0  1.199558  0  -0.636145  0  -0.294047  -0.485079  0  1.237359  0
Cl  Cl106  1  0.94888634  0.19384587  0.65473662  1  0  -0.568463  0  0.94176  0  0  -0.498876  0  1.222049  0  0  -0.518096  0  1.199571  0  -0.636129  0  -0.29405  -0.485087  0  1.237371  0
Cl  Cl107  1  0.55111549  0.69384525  0.34526352  1  0  -0.568467  0  0.941767  0  0  -0.498874  0  1.22205  0  0  -0.518098  0  1.199573  0  -0.636142  0  -0.294047  -0.485084  0  1.237369  0
O  O108  1  0.85139768  0.68665760  0.13031942  1  0  -0.846348  0  2.002301  0  0  -0.763603  0  2.241572  0  0  -0.789637  0  2.204332  0  -1.273412  0  -0.579002  -0.744987  0  2.267084  0
O  O109  1  0.64860266  0.18665822  0.86968057  1  0  -0.846374  0  2.002256  0  0  -0.763628  0  2.241553  0  0  -0.789661  0  2.204313  0  -1.273409  0  -0.579005  -0.745012  0  2.267065  0
O  O110  1  0.14860304  0.31334193  0.86968163  1  0  -0.846347  0  2.002344  0  0  -0.76361  0  2.241626  0  0  -0.789644  0  2.204385  0  -1.273412  0  -0.579007  -0.744995  0  2.267137  0
O  O111  1  0.35139806  0.81334208  0.13031897  1  0  -0.846323  0  2.002337  0  0  -0.763579  0  2.2416  0  0  -0.789611  0  2.204362  0  -1.273405  0  -0.578996  -0.744962  0  2.267113  0
