# generated using pymatgen
data_HgH12C14(SN2)2
_symmetry_space_group_name_H-M   'P 1'
_cell_length_a   5.71403861
_cell_length_b   9.45263140
_cell_length_c   14.85070632
_cell_angle_alpha   94.25412147
_cell_angle_beta   89.99756080
_cell_angle_gamma   89.99973023
_symmetry_Int_Tables_number   1
_chemical_formula_structural   HgH12C14(SN2)2
_chemical_formula_sum   'Hg2 H24 C28 S4 N8'
_cell_volume   799.91677715
_cell_formula_units_Z   2
loop_
 _symmetry_equiv_pos_site_id
 _symmetry_equiv_pos_as_xyz
  1  'x, y, z'
loop_
 _atom_site_type_symbol
 _atom_site_label
 _atom_site_symmetry_multiplicity
 _atom_site_fract_x
 _atom_site_fract_y
 _atom_site_fract_z
 _atom_site_occupancy
 _atom_site_hle17_bader_spin_density
 _atom_site_hle17_ddec_charge
 _atom_site_hle17_ddec_spin_density
 _atom_site_hle17_ddec_sum_bond_order
 _atom_site_hle17_magmom
 _atom_site_hse06_10hf_bader_spin_density
 _atom_site_hse06_10hf_ddec_charge
 _atom_site_hse06_10hf_ddec_spin_density
 _atom_site_hse06_10hf_ddec_sum_bond_order
 _atom_site_hse06_10hf_magmom
 _atom_site_hse06_bader_spin_density
 _atom_site_hse06_ddec_charge
 _atom_site_hse06_ddec_spin_density
 _atom_site_hse06_ddec_sum_bond_order
 _atom_site_hse06_magmom
 _atom_site_pbe_bader_spin_density
 _atom_site_pbe_cm5_charge
 _atom_site_pbe_ddec_charge
 _atom_site_pbe_ddec_spin_density
 _atom_site_pbe_ddec_sum_bond_order
 _atom_site_pbe_magmom
Hg  Hg0  1  0.31256919  0.49999748  0.75000833  1  0  0.572824  0  2.118866  0  0  0.408897  0  2.602653  0  0  0.44864  0  2.581629  0  0  0.512973  0.383047  0  2.616983  0
Hg  Hg1  1  0.68743302  0.49999466  0.25000247  1  0  0.572884  0  2.118743  0  0  0.408931  0  2.602566  0  0  0.448678  0  2.581541  0  0  0.512942  0.383082  0  2.616896  0
H  H2  1  0.38520552  0.83301356  0.77618173  1  0  0.060278  0  0.964654  0  0  0.068234  0  1.031982  0  0  0.070348  0  1.030475  0  0  0.10263  0.066594  0  1.033443  0
H  H3  1  0.38518739  0.16699408  0.72381511  1  0  0.060244  0  0.964611  0  0  0.068207  0  1.03194  0  0  0.070322  0  1.030431  0  0  0.102644  0.066569  0  1.033399  0
H  H4  1  0.61476169  0.16699246  0.22382239  1  0  0.060237  0  0.964753  0  0  0.068214  0  1.03205  0  0  0.07033  0  1.030541  0  0  0.102628  0.066578  0  1.033506  0
H  H5  1  0.61479381  0.83301209  0.27617892  1  0  0.060245  0  0.964651  0  0  0.068198  0  1.031995  0  0  0.070313  0  1.030487  0  0  0.102606  0.066562  0  1.033451  0
H  H6  1  0.64209159  0.02521056  0.84894984  1  0  0.111329  0  0.964677  0  0  0.119942  0  1.027728  0  0  0.122481  0  1.028065  0  0  0.105222  0.118171  0  1.027818  0
H  H7  1  0.64206754  0.97481181  0.65104272  1  0  0.111354  0  0.964718  0  0  0.119936  0  1.02781  0  0  0.122502  0  1.028123  0  0  0.105247  0.118157  0  1.027906  0
H  H8  1  0.35788786  0.97478913  0.15105192  1  0  0.111384  0  0.964615  0  0  0.11997  0  1.027696  0  0  0.12253  0  1.028016  0  0  0.105248  0.11819  0  1.027796  0
H  H9  1  0.35791367  0.02519762  0.34894542  1  0  0.111408  0  0.9647  0  0  0.119982  0  1.027779  0  0  0.122539  0  1.028098  0  0  0.105221  0.1182  0  1.02788  0
H  H10  1  0.07344972  0.69704689  0.94907478  1  0  0.119456  0  0.96492  0  0  0.123337  0  1.037183  0  0  0.12699  0  1.035668  0  0  0.102377  0.120673  0  1.038406  0
H  H11  1  0.07347348  0.30295315  0.55092894  1  0  0.119481  0  0.964918  0  0  0.123397  0  1.037138  0  0  0.127049  0  1.035624  0  0  0.102393  0.120733  0  1.03836  0
H  H12  1  0.92655074  0.30296139  0.05092003  1  0  0.119459  0  0.964905  0  0  0.123352  0  1.037153  0  0  0.127003  0  1.035641  0  0  0.102389  0.120688  0  1.038377  0
H  H13  1  0.92657073  0.69703681  0.44908578  1  0  0.119473  0  0.964985  0  0  0.123348  0  1.037231  0  0  0.126999  0  1.035719  0  0  0.102412  0.120682  0  1.038454  0
H  H14  1  0.79102992  0.51919824  0.87853919  1  0  0.072102  0  0.972075  0  0  0.079999  0  1.039976  0  0  0.081655  0  1.03906  0  0  0.102081  0.078372  0  1.041443  0
H  H15  1  0.79107085  0.48080200  0.62146172  1  0  0.072103  0  0.972152  0  0  0.079992  0  1.04006  0  0  0.08165  0  1.039142  0  0  0.102064  0.078366  0  1.041526  0
H  H16  1  0.20897054  0.48080476  0.12145400  1  0  0.072046  0  0.97215  0  0  0.079969  0  1.040035  0  0  0.081626  0  1.039117  0  0  0.10204  0.078344  0  1.0415  0
H  H17  1  0.20899086  0.51919752  0.37855216  1  0  0.071971  0  0.972265  0  0  0.079908  0  1.040133  0  0  0.081564  0  1.039217  0  0  0.102052  0.078285  0  1.041592  0
H  H18  1  0.01577898  0.08778100  0.91736449  1  0  0.078936  0  0.969461  0  0  0.092245  0  1.03774  0  0  0.09364  0  1.037389  0  0  0.085132  0.090909  0  1.038856  0
H  H19  1  0.01574598  0.91222100  0.58263889  1  0  0.079014  0  0.969438  0  0  0.092317  0  1.03771  0  0  0.093721  0  1.037358  0  0  0.08518  0.09098  0  1.038825  0
H  H20  1  0.98420222  0.91223150  0.08263257  1  0  0.078983  0  0.969373  0  0  0.09231  0  1.037634  0  0  0.093692  0  1.03728  0  0  0.085213  0.090977  0  1.038755  0
H  H21  1  0.98426848  0.08777864  0.41736692  1  0  0.079081  0  0.969404  0  0  0.092392  0  1.037667  0  0  0.093792  0  1.037313  0  0  0.085216  0.091052  0  1.038783  0
H  H22  1  0.21920949  0.95485475  0.94579329  1  0  0.088277  0  0.934673  0  0  0.104663  0  0.995452  0  0  0.105468  0  0.996281  0  0  0.095225  0.104168  0  0.994702  0
H  H23  1  0.21920981  0.04513925  0.55421358  1  0  0.088239  0  0.934667  0  0  0.104648  0  0.995449  0  0  0.105457  0  0.996277  0  0  0.095183  0.104162  0  0.994688  0
H  H24  1  0.78076996  0.04515567  0.05420029  1  0  0.088247  0  0.934543  0  0  0.104684  0  0.995321  0  0  0.105478  0  0.996141  0  0  0.095262  0.104211  0  0.994553  0
H  H25  1  0.78080464  0.95485403  0.44579122  1  0  0.08828  0  0.934664  0  0  0.104672  0  0.995472  0  0  0.105479  0  0.996298  0  0  0.09521  0.104177  0  0.994718  0
C  C26  1  0.53960647  0.80808444  0.81539012  1  0  0.124251  0  3.744586  0  0  0.093758  0  3.994027  0  0  0.101172  0  4.013151  0  0  0.038671  0.089249  0  3.980767  0
C  C27  1  0.53958205  0.19193182  0.68460387  1  0  0.124416  0  3.744696  0  0  0.093912  0  3.994135  0  0  0.101325  0  4.013266  0  0  0.038687  0.0894  0  3.980878  0
C  C28  1  0.46037299  0.19191744  0.18460704  1  0  0.124293  0  3.74444  0  0  0.093815  0  3.993888  0  0  0.101226  0  4.013019  0  0  0.038731  0.089302  0  3.980636  0
C  C29  1  0.46039741  0.80807544  0.31538820  1  0  0.124417  0  3.744865  0  0  0.093885  0  3.994269  0  0  0.101302  0  4.013397  0  0  0.038753  0.089371  0  3.981013  0
C  C30  1  0.68348033  0.91367559  0.85477525  1  0  -0.171921  0  3.69993  0  0  -0.18624  0  3.940406  0  0  -0.194172  0  3.961661  0  0  -0.084377  -0.181229  0  3.926149  0
C  C31  1  0.68346088  0.08634112  0.64521887  1  0  -0.172009  0  3.700307  0  0  -0.18632  0  3.94082  0  0  -0.194279  0  3.96206  0  0  -0.084334  -0.1813  0  3.926568  0
C  C32  1  0.31650612  0.08632316  0.14521839  1  0  -0.172003  0  3.699526  0  0  -0.186296  0  3.940044  0  0  -0.194251  0  3.961294  0  0  -0.084412  -0.181281  0  3.925802  0
C  C33  1  0.31651508  0.91366832  0.35476859  1  0  -0.172185  0  3.700284  0  0  -0.186476  0  3.940787  0  0  -0.194429  0  3.962033  0  0  -0.084423  -0.181456  0  3.926539  0
C  C34  1  0.88148655  0.87610708  0.90322658  1  0  0.171177  0  3.698424  0  0  0.187223  0  3.93176  0  0  0.192644  0  3.95373  0  0  0.017465  0.183873  0  3.916166  0
C  C35  1  0.88148978  0.12390074  0.59677302  1  0  0.171087  0  3.69845  0  0  0.187145  0  3.931792  0  0  0.192569  0  3.953769  0  0  0.017366  0.1838  0  3.916189  0
C  C36  1  0.11849640  0.12389695  0.09676868  1  0  0.171144  0  3.698197  0  0  0.187174  0  3.931622  0  0  0.192577  0  3.953582  0  0  0.017472  0.183829  0  3.916031  0
C  C37  1  0.11851767  0.87610211  0.40323093  1  0  0.171305  0  3.698566  0  0  0.187349  0  3.931911  0  0  0.192774  0  3.953878  0  0  0.017482  0.184  0  3.916304  0
C  C38  1  0.92334397  0.73139564  0.91075972  1  0  -0.18095  0  3.706705  0  0  -0.197456  0  3.956523  0  0  -0.206619  0  3.979092  0  0  -0.089048  -0.190994  0  3.940805  0
C  C39  1  0.92336299  0.26860960  0.58924632  1  0  -0.180988  0  3.706812  0  0  -0.19753  0  3.95661  0  0  -0.206692  0  3.979178  0  0  -0.088971  -0.191067  0  3.940888  0
C  C40  1  0.07664774  0.26860941  0.08923829  1  0  -0.180966  0  3.706795  0  0  -0.197464  0  3.95663  0  0  -0.20663  0  3.979207  0  0  -0.089029  -0.191002  0  3.940913  0
C  C41  1  0.07667422  0.73139200  0.41077036  1  0  -0.181082  0  3.706897  0  0  -0.197593  0  3.956729  0  0  -0.206756  0  3.979296  0  0  -0.08907  -0.191128  0  3.941008  0
C  C42  1  0.76793737  0.63215962  0.87103945  1  0  0.113306  0  3.741202  0  0  0.082966  0  3.9934  0  0  0.089993  0  4.013192  0  0  0.033735  0.078681  0  3.980249  0
C  C43  1  0.76795614  0.36784558  0.62896585  1  0  0.113335  0  3.741305  0  0  0.083003  0  3.993471  0  0  0.090029  0  4.013261  0  0  0.033759  0.078717  0  3.98032  0
C  C44  1  0.23204908  0.36784327  0.12896114  1  0  0.113402  0  3.741312  0  0  0.083045  0  3.993536  0  0  0.090072  0  4.013326  0  0  0.03382  0.078757  0  3.980392  0
C  C45  1  0.23208281  0.63215708  0.37105088  1  0  0.113544  0  3.741313  0  0  0.083159  0  3.993453  0  0  0.090189  0  4.013245  0  0  0.033807  0.07887  0  3.980303  0
C  C46  1  0.03465436  0.98756159  0.94969219  1  0  -0.153266  0  3.66671  0  0  -0.191914  0  3.906018  0  0  -0.193838  0  3.917456  0  0  -0.155487  -0.190209  0  3.897852  0
C  C47  1  0.03465298  0.01243874  0.55030833  1  0  -0.153179  0  3.666746  0  0  -0.191879  0  3.90608  0  0  -0.193808  0  3.917562  0  0  -0.155466  -0.190185  0  3.897893  0
C  C48  1  0.96532335  0.01244672  0.05030061  1  0  -0.153211  0  3.666574  0  0  -0.191994  0  3.906059  0  0  -0.193835  0  3.917434  0  0  -0.155667  -0.190296  0  3.897845  0
C  C49  1  0.96535622  0.98756090  0.44969680  1  0  -0.153461  0  3.667  0  0  -0.192137  0  3.906286  0  0  -0.194045  0  3.917744  0  0  -0.155642  -0.190423  0  3.8981  0
C  C50  1  0.41938839  0.69838477  0.59332770  1  0  0.225538  0  3.943334  0  0  0.216661  0  4.251578  0  0  0.231587  0  4.268462  0  0  0.128934  0.206808  0  4.240246  0
C  C51  1  0.41939048  0.30160151  0.90667191  1  0  0.225453  0  3.943137  0  0  0.21658  0  4.251392  0  0  0.231508  0  4.268275  0  0  0.128909  0.20673  0  4.240059  0
C  C52  1  0.58060506  0.30161602  0.40667143  1  0  0.225496  0  3.943461  0  0  0.216625  0  4.251704  0  0  0.231553  0  4.268589  0  0  0.128979  0.206773  0  4.240377  0
C  C53  1  0.58064148  0.69836250  0.09330037  1  0  0.225646  0  3.942994  0  0  0.216783  0  4.251205  0  0  0.23171  0  4.268089  0  0  0.129158  0.206931  0  4.239884  0
S  S54  1  0.16260976  0.66235918  0.63915973  1  0  -0.214894  0  2.313908  0  0  -0.173483  0  2.666045  0  0  -0.188914  0  2.660437  0  0  -0.083882  -0.164049  0  2.671063  0
S  S55  1  0.16260940  0.33763768  0.86085559  1  0  -0.214851  0  2.313969  0  0  -0.173455  0  2.66614  0  0  -0.188883  0  2.660526  0  0  -0.083911  -0.164018  0  2.671147  0
S  S56  1  0.83738895  0.33764042  0.36084876  1  0  -0.214843  0  2.314089  0  0  -0.173443  0  2.666244  0  0  -0.188874  0  2.660634  0  0  -0.083862  -0.163996  0  2.67123  0
S  S57  1  0.83740155  0.66234401  0.13914254  1  0  -0.214942  0  2.313834  0  0  -0.173536  0  2.66597  0  0  -0.188968  0  2.660357  0  0  -0.08392  -0.164095  0  2.670973  0
N  N58  1  0.58078331  0.66947274  0.82315508  1  0  -0.297478  0  3.272748  0  0  -0.215638  0  3.533467  0  0  -0.236321  0  3.555723  0  0  -0.31765  -0.201909  0  3.518093  0
N  N59  1  0.58078127  0.33054098  0.67684535  1  0  -0.297537  0  3.272667  0  0  -0.215689  0  3.533378  0  0  -0.236371  0  3.555633  0  0  -0.317737  -0.20196  0  3.518007  0
N  N60  1  0.41919615  0.33053015  0.17684551  1  0  -0.297496  0  3.272626  0  0  -0.215714  0  3.533428  0  0  -0.236395  0  3.555679  0  0  -0.31776  -0.201988  0  3.518065  0
N  N61  1  0.41923144  0.66946715  0.32316023  1  0  -0.297551  0  3.272836  0  0  -0.215627  0  3.533487  0  0  -0.23631  0  3.555741  0  0  -0.317668  -0.201899  0  3.51812  0
N  N62  1  0.59691001  0.72871052  0.55917863  1  0  -0.432575  0  2.608029  0  0  -0.408721  0  2.839038  0  0  -0.420432  0  2.851608  0  0  -0.337511  -0.400617  0  2.830421  0
N  N63  1  0.59690146  0.27126644  0.94083057  1  0  -0.432517  0  2.607845  0  0  -0.408657  0  2.83886  0  0  -0.42037  0  2.85143  0  0  -0.337449  -0.400557  0  2.830242  0
N  N64  1  0.40309920  0.27128264  0.44083424  1  0  -0.432558  0  2.608035  0  0  -0.408716  0  2.839071  0  0  -0.420428  0  2.851641  0  0  -0.337555  -0.400615  0  2.830454  0
N  N65  1  0.40312174  0.72870587  0.05915561  1  0  -0.432681  0  2.607819  0  0  -0.408846  0  2.83885  0  0  -0.420558  0  2.851419  0  0  -0.337692  -0.400746  0  2.830238  0
