# generated using pymatgen
data_CdH19C24N3O5
_symmetry_space_group_name_H-M   'P 1'
_cell_length_a   12.07943415
_cell_length_b   15.57547870
_cell_length_c   16.27775815
_cell_angle_alpha   76.30704672
_cell_angle_beta   68.22680793
_cell_angle_gamma   67.19046755
_symmetry_Int_Tables_number   1
_chemical_formula_structural   CdH19C24N3O5
_chemical_formula_sum   'Cd4 H76 C96 N12 O20'
_cell_volume   2606.16251034
_cell_formula_units_Z   4
loop_
 _symmetry_equiv_pos_site_id
 _symmetry_equiv_pos_as_xyz
  1  'x, y, z'
loop_
 _atom_site_type_symbol
 _atom_site_label
 _atom_site_symmetry_multiplicity
 _atom_site_fract_x
 _atom_site_fract_y
 _atom_site_fract_z
 _atom_site_occupancy
 _atom_site_pbe_bader_charge
 _atom_site_pbe_bader_spin_density
 _atom_site_pbe_cm5_charge
 _atom_site_pbe_ddec_charge
 _atom_site_pbe_ddec_spin_density
 _atom_site_pbe_ddec_sum_bond_order
 _atom_site_pbe_magmom
Cd  Cd0  1  0.15216690  0.08681445  0.53299299  1  1.260282  0  0.754619  0.871058  0  2.167304  0
Cd  Cd1  1  0.22819018  0.58648627  0.03305883  1  1.261115  0  0.754889  0.870567  0  2.169391  0
Cd  Cd2  1  0.77181651  0.41351722  0.96694218  1  1.261174  0  0.754844  0.87051  0  2.169328  0
Cd  Cd3  1  0.84783470  0.91317798  0.46700619  1  1.260221  0  0.754644  0.871042  0  2.167221  0
H  H4  1  0.53293347  0.21187906  0.34829268  1  0.082365  0  0.100298  0.100261  0  1.022511  0
H  H5  1  0.62083295  0.33984909  0.31428734  1  0.062355  0  0.099531  0.098208  0  1.018737  0
H  H6  1  0.27267946  0.50519235  0.49049558  1  0.040661  0  0.099888  0.09696  0  1.01576  0
H  H7  1  0.18462259  0.37895905  0.51703399  1  0.103311  0  0.105665  0.1118  0  1.001312  0
H  H8  1  0.70309510  0.42737168  0.31926545  1  0.073187  0  0.107053  0.115326  0  1.022174  0
H  H9  1  0.85393798  0.44337639  0.20206985  1  0.105702  0  0.109191  0.121652  0  1.017319  0
H  H10  1  0.06335485  0.44547944  0.10706513  1  0.141465  0  0.112401  0.079976  0  1.045931  0
H  H11  1  0.03619580  0.66845014  0.21929241  1  0.112389  0  0.121306  0.097855  0  0.986016  0
H  H12  1  0.81706331  0.67755445  0.32187590  1  0.11828  0  0.11011  0.114869  0  1.030098  0
H  H13  1  0.33342470  0.61112976  0.44848435  1  0.061115  0  0.107458  0.111134  0  1.032536  0
H  H14  1  0.56773286  0.81087399  0.38221873  1  0.115335  0  0.109334  0.116881  0  1.02562  0
H  H15  1  0.43612356  0.96709328  0.44157581  1  0.130722  0  0.116134  0.095471  0  1.040739  0
H  H16  1  0.11583381  0.89073796  0.54886582  1  0.146599  0  0.115746  0.088474  0  1.048314  0
H  H17  1  0.22930810  0.73441742  0.49470190  1  0.086832  0  0.109393  0.11582  0  1.002504  0
H  H18  1  0.72036378  0.18175469  0.71564548  1  0.034639  0  0.091898  0.146647  0  1.013787  0
H  H19  1  0.72531219  0.06917994  0.70103807  1  0.06456  0  0.093062  0.149961  0  1.009915  0
H  H20  1  0.78992269  0.07831869  0.77866742  1  0.070297  0  0.098214  0.156352  0  0.998912  0
H  H21  1  0.08950270  0.16719167  0.36632414  1  0.5864  0  0.314967  0.392174  0  0.891661  0
H  H22  1  0.09521288  0.05991857  0.38050408  1  0.651051  0  0.278077  0.380743  0  0.969137  0
H  H23  1  0.90619182  0.71136689  0.84875052  1  0.060537  0  0.10045  0.099878  0  1.022917  0
H  H24  1  0.72446575  0.83944276  0.81474917  1  0.04752  0  0.099973  0.099243  0  1.019317  0
H  H25  1  0.73221448  0.00495427  0.99038083  1  0.038067  0  0.099921  0.098033  0  1.015283  0
H  H26  1  0.91992892  0.87852283  0.01689830  1  0.099363  0  0.106552  0.113468  0  0.999877  0
H  H27  1  0.55040693  0.92736442  0.81911972  1  0.064711  0  0.106268  0.114599  0  1.022516  0
H  H28  1  0.50008037  0.94302311  0.70246163  1  0.121054  0  0.109433  0.121773  0  1.017257  0
H  H29  1  0.38333194  0.94530330  0.60747250  1  0.141301  0  0.112528  0.079112  0  1.046526  0
H  H30  1  0.07643900  0.16925472  0.71897293  1  0.115039  0  0.121204  0.097654  0  0.985269  0
H  H31  1  0.18407928  0.17809630  0.82156365  1  0.11726  0  0.110239  0.115473  0  1.02966  0
H  H32  1  0.60704367  0.11073188  0.94889394  1  0.079366  0  0.106727  0.110975  0  1.031511  0
H  H33  1  0.23952258  0.31062643  0.88249121  1  0.114343  0  0.108721  0.116764  0  1.025356  0
H  H34  1  0.15568134  0.46684524  0.94178802  1  0.141392  0  0.116394  0.095337  0  1.042261  0
H  H35  1  0.44525045  0.39061212  0.04885361  1  0.119575  0  0.116073  0.089352  0  1.04669  0
H  H36  1  0.54196419  0.23417814  0.99490999  1  0.054608  0  0.109205  0.115714  0  1.003364  0
H  H37  1  0.38208472  0.68210801  0.21534389  1  0.058641  0  0.091961  0.146225  0  1.014784  0
H  H38  1  0.50433725  0.56956413  0.20108248  1  0.071715  0  0.092221  0.149268  0  1.010221  0
H  H39  1  0.35290877  0.57879869  0.27864269  1  0.074712  0  0.098453  0.155663  0  0.998408  0
H  H40  1  0.37669561  0.66690129  0.86608266  1  0.590406  0  0.315781  0.393301  0  0.89019  0
H  H41  1  0.46421607  0.55971472  0.88039527  1  0.659129  0  0.277328  0.380049  0  0.969975  0
H  H42  1  0.09382399  0.28864351  0.15122497  1  0.060535  0  0.100407  0.099885  0  1.022984  0
H  H43  1  0.27553842  0.16056749  0.18524268  1  0.04735  0  0.099932  0.099271  0  1.019245  0
H  H44  1  0.26778790  0.99505045  0.00962348  1  0.037744  0  0.099921  0.098005  0  1.015417  0
H  H45  1  0.08008587  0.12147750  0.98309638  1  0.099761  0  0.10654  0.113498  0  0.999985  0
H  H46  1  0.44958194  0.07264420  0.18087669  1  0.064652  0  0.106272  0.114638  0  1.022493  0
H  H47  1  0.49991545  0.05697881  0.29754287  1  0.121026  0  0.109457  0.121759  0  1.017145  0
H  H48  1  0.61667095  0.05470091  0.39252807  1  0.1412  0  0.11252  0.079142  0  1.046553  0
H  H49  1  0.92354892  0.83074259  0.28102625  1  0.115077  0  0.121232  0.097698  0  0.985317  0
H  H50  1  0.81590220  0.82190185  0.17844616  1  0.117111  0  0.110197  0.115464  0  1.029774  0
H  H51  1  0.39295443  0.88927294  0.05110829  1  0.079673  0  0.106726  0.111033  0  1.031422  0
H  H52  1  0.76048053  0.68938140  0.11750685  1  0.114138  0  0.108743  0.116734  0  1.025369  0
H  H53  1  0.84432576  0.53315867  0.05820482  1  0.141349  0  0.116377  0.095325  0  1.042328  0
H  H54  1  0.55474378  0.60939675  0.95115133  1  0.12004  0  0.116007  0.089323  0  1.046557  0
H  H55  1  0.45802238  0.76582442  0.00510894  1  0.054587  0  0.109185  0.115607  0  1.00355  0
H  H56  1  0.61792022  0.31789652  0.78465060  1  0.058777  0  0.09197  0.146159  0  1.014664  0
H  H57  1  0.49566252  0.43044492  0.79890571  1  0.071755  0  0.09226  0.149243  0  1.010195  0
H  H58  1  0.64708791  0.42120648  0.72135305  1  0.074673  0  0.098434  0.155637  0  0.998547  0
H  H59  1  0.62330526  0.33310590  0.13391419  1  0.590512  0  0.315801  0.393335  0  0.890077  0
H  H60  1  0.53577680  0.44028789  0.11960921  1  0.659202  0  0.277325  0.38002  0  0.970034  0
H  H61  1  0.46706378  0.78811468  0.65172149  1  0.082318  0  0.100323  0.100322  0  1.022219  0
H  H62  1  0.37917127  0.66013783  0.68572386  1  0.062233  0  0.099545  0.098186  0  1.01869  0
H  H63  1  0.72730292  0.49480883  0.50948271  1  0.040003  0  0.099956  0.0971  0  1.015654  0
H  H64  1  0.81536653  0.62104304  0.48295361  1  0.102923  0  0.105616  0.1118  0  1.001302  0
H  H65  1  0.29691292  0.57262105  0.68072783  1  0.073044  0  0.107062  0.115382  0  1.022176  0
H  H66  1  0.14607184  0.55662424  0.79791920  1  0.105559  0  0.109174  0.121591  0  1.017337  0
H  H67  1  0.93665240  0.55452358  0.89293153  1  0.141131  0  0.11241  0.079922  0  1.045955  0
H  H68  1  0.96379628  0.33154917  0.78070851  1  0.112853  0  0.121354  0.097902  0  0.985836  0
H  H69  1  0.18293136  0.32244483  0.67812563  1  0.118194  0  0.110106  0.114885  0  1.030076  0
H  H70  1  0.66657349  0.38885740  0.55153564  1  0.061182  0  0.107359  0.111017  0  1.032735  0
H  H71  1  0.43227547  0.18911592  0.61778851  1  0.115364  0  0.109322  0.116856  0  1.025567  0
H  H72  1  0.56387183  0.03290466  0.55842455  1  0.130598  0  0.116136  0.095532  0  1.040725  0
H  H73  1  0.88415526  0.10926186  0.45112526  1  0.146675  0  0.115718  0.088464  0  1.048039  0
H  H74  1  0.77068193  0.26557582  0.50529500  1  0.087076  0  0.109387  0.115841  0  1.002544  0
H  H75  1  0.27964441  0.81822946  0.28436523  1  0.034294  0  0.091895  0.146592  0  1.013928  0
H  H76  1  0.27470249  0.93080017  0.29896992  1  0.065057  0  0.093062  0.149978  0  1.009999  0
H  H77  1  0.21008161  0.92166506  0.22135107  1  0.069913  0  0.098284  0.156441  0  0.998897  0
H  H78  1  0.91049596  0.83281726  0.63367972  1  0.586462  0  0.314965  0.392122  0  0.891767  0
H  H79  1  0.90480739  0.94008656  0.61949217  1  0.650496  0  0.277992  0.380651  0  0.969246  0
C  C80  1  0.30148397  0.20751796  0.45933925  1  1.567656  0  0.183464  0.547511  0  4.263352  0
C  C81  1  0.35354548  0.28683896  0.43562879  1  -0.071306  0  -0.012364  -0.0101  0  3.94927  0
C  C82  1  0.47638526  0.27716643  0.37827476  1  -0.054652  0  -0.087624  -0.099037  0  3.99344  0
C  C83  1  0.52592491  0.34905088  0.36064114  1  -0.023915  0  -0.089402  -0.123553  0  3.979733  0
C  C84  1  0.45533292  0.43256337  0.40128388  1  -0.039318  0  -0.010034  0.051336  0  3.983489  0
C  C85  1  0.33097512  0.44227235  0.45705958  1  -0.024978  0  -0.088012  -0.118993  0  3.972733  0
C  C86  1  0.28067734  0.37114776  0.47332043  1  0.018377  0  -0.081764  -0.086882  0  3.967126  0
C  C87  1  0.50953061  0.50756430  0.38602894  1  -0.050635  0  0.012455  0.116334  0  4.003242  0
C  C88  1  0.63799354  0.49486680  0.34157138  1  -0.037645  0  -0.080996  -0.21488  0  3.89434  0
C  C89  1  0.68328387  0.56975516  0.32487432  1  0.561379  0  0.122076  0.204487  0  4.031165  0
C  C90  1  0.81619262  0.56089701  0.27195242  1  -0.03863  0  0.011738  0.077549  0  3.964505  0
C  C91  1  0.88954496  0.49329851  0.21210811  1  -0.066032  0  -0.083818  -0.173153  0  3.939235  0
C  C92  1  0.00878660  0.49448710  0.15711526  1  0.47622  0  0.04488  0.097248  0  3.959546  0
C  C93  1  0.99127119  0.61965921  0.21923183  1  0.478603  0  0.047694  0.094607  0  3.943926  0
C  C94  1  0.87060940  0.62418121  0.27604402  1  -0.015912  0  -0.077889  -0.158756  0  3.929296  0
C  C95  1  0.43410642  0.59621200  0.41468638  1  -0.002474  0  -0.078164  -0.207368  0  3.907889  0
C  C96  1  0.48718122  0.66615409  0.39947338  1  0.552598  0  0.122218  0.204373  0  4.01945  0
C  C97  1  0.41081515  0.75859052  0.43347228  1  -0.01219  0  0.015428  0.082385  0  3.954253  0
C  C98  1  0.46765886  0.82639081  0.41891554  1  -0.031513  0  -0.076086  -0.147027  0  3.919897  0
C  C99  1  0.39572710  0.91246044  0.45166294  1  0.48744  0  0.046671  0.085801  0  3.939995  0
C  C100  1  0.21633535  0.86951956  0.51245630  1  0.42164  0  0.043419  0.089683  0  3.957884  0
C  C101  1  0.28173518  0.78193316  0.48188039  1  0.014862  0  -0.081617  -0.166308  0  3.950512  0
C  C102  1  0.90485910  0.09338305  0.64512045  1  1.552211  0  0.19532  0.671565  0  4.169123  0
C  C103  1  0.77614440  0.10729077  0.71339692  1  -0.084509  0  -0.250972  -0.521142  0  3.905395  0
C  C104  1  0.03153099  0.70701101  0.95934379  1  1.570613  0  0.183543  0.547549  0  4.262607  0
C  C105  1  0.92401147  0.78649256  0.93556403  1  -0.012278  0  -0.010964  -0.009621  0  3.949728  0
C  C106  1  0.86783146  0.77679881  0.87846259  1  0.018109  0  -0.088576  -0.099019  0  3.99558  0
C  C107  1  0.76409336  0.84872122  0.86087571  1  -0.120312  0  -0.089297  -0.123493  0  3.979089  0
C  C108  1  0.71095614  0.93234414  0.90134071  1  0.029282  0  -0.009645  0.051968  0  3.983382  0
C  C109  1  0.77001556  0.94198387  0.95705088  1  -0.030546  0  -0.088305  -0.121093  0  3.972578  0
C  C110  1  0.87517700  0.87077470  0.97326404  1  -0.037427  0  -0.081855  -0.087244  0  3.96617  0
C  C111  1  0.59713632  0.00738358  0.88604470  1  -0.075598  0  0.01216  0.115449  0  4.003942  0
C  C112  1  0.52582002  0.99480371  0.84148512  1  -0.016289  0  -0.079921  -0.212954  0  3.89061  0
C  C113  1  0.42236106  0.06969435  0.82484225  1  0.534381  0  0.121864  0.204386  0  4.029417  0
C  C114  1  0.35106161  0.06097676  0.77193941  1  -0.072681  0  0.011516  0.076832  0  3.963638  0
C  C115  1  0.40472740  0.99323318  0.71227841  1  -0.019969  0  -0.084501  -0.174346  0  3.940965  0
C  C116  1  0.33916339  0.99454726  0.65730689  1  0.460928  0  0.045055  0.097975  0  3.959286  0
C  C117  1  0.17006935  0.12023887  0.71904905  1  0.490889  0  0.047617  0.094444  0  3.942738  0
C  C118  1  0.22945808  0.12457465  0.77588259  1  -0.045262  0  -0.077776  -0.159179  0  3.930653  0
C  C119  1  0.55518001  0.09593758  0.91490765  1  -0.008545  0  -0.077868  -0.208474  0  3.907099  0
C  C120  1  0.44746025  0.16594047  0.89964499  1  0.572624  0  0.122688  0.20654  0  4.017802  0
C  C121  1  0.39743330  0.25832028  0.93374746  1  -0.052598  0  0.017503  0.083476  0  3.956463  0
C  C122  1  0.28739068  0.32609526  0.91919563  1  -0.015339  0  -0.076728  -0.147468  0  3.92148  0
C  C123  1  0.24060529  0.41219167  0.95186397  1  0.476507  0  0.045917  0.0848  0  3.941547  0
C  C124  1  0.40225961  0.36936255  0.01255365  1  0.450038  0  0.04242  0.089139  0  3.95715  0
C  C125  1  0.45486683  0.28171005  0.98206871  1  0.030785  0  -0.081716  -0.166978  0  3.95323  0
C  C126  1  0.35659100  0.59340746  0.14514040  1  1.540585  0  0.195163  0.670088  0  4.172458  0
C  C127  1  0.40305401  0.60761420  0.21330742  1  -0.115867  0  -0.250389  -0.518945  0  3.906479  0
C  C128  1  0.96847885  0.29300647  0.04064301  1  1.569993  0  0.18371  0.547853  0  4.262765  0
C  C129  1  0.07598794  0.21351494  0.06442696  1  -0.01256  0  -0.011042  -0.009787  0  3.949318  0
C  C130  1  0.13218296  0.22321445  0.12152507  1  0.018331  0  -0.088459  -0.098918  0  3.995048  0
C  C131  1  0.23591075  0.15127552  0.13912091  1  -0.119533  0  -0.089298  -0.123638  0  3.979237  0
C  C132  1  0.28903536  0.06766109  0.09865380  1  0.028773  0  -0.009627  0.051982  0  3.98317  0
C  C133  1  0.22998109  0.05801786  0.04294361  1  -0.030205  0  -0.088353  -0.121107  0  3.972977  0
C  C134  1  0.12483485  0.12923078  0.02672555  1  -0.03757  0  -0.081834  -0.087206  0  3.966496  0
C  C135  1  0.40288569  0.99261150  0.11395715  1  -0.075557  0  0.012288  0.115809  0  4.003805  0
C  C136  1  0.47417058  0.00520281  0.15852478  1  -0.016547  0  -0.079914  -0.212995  0  3.890936  0
C  C137  1  0.57761708  0.93030959  0.17516369  1  0.534781  0  0.121825  0.20427  0  4.029443  0
C  C138  1  0.64893377  0.93902679  0.22806062  1  -0.071856  0  0.011561  0.076728  0  3.963378  0
C  C139  1  0.59526090  0.00676036  0.28773979  1  -0.018599  0  -0.084448  -0.174061  0  3.940655  0
C  C140  1  0.66084277  0.00545331  0.34269659  1  0.458967  0  0.044914  0.097601  0  3.959312  0
C  C141  1  0.82993179  0.87975515  0.28094629  1  0.490647  0  0.047573  0.094401  0  3.943031  0
C  C142  1  0.77054101  0.87541685  0.22412105  1  -0.045308  0  -0.077784  -0.159163  0  3.930725  0
C  C143  1  0.44481396  0.90406540  0.08510328  1  -0.008681  0  -0.077965  -0.20889  0  3.907388  0
C  C144  1  0.55254377  0.83406075  0.10035952  1  0.572811  0  0.122698  0.206644  0  4.017851  0
C  C145  1  0.60255408  0.74169436  0.06625383  1  -0.05183  0  0.017546  0.083589  0  3.956436  0
C  C146  1  0.71260604  0.67390891  0.08080581  1  -0.015659  0  -0.076697  -0.147451  0  3.921154  0
C  C147  1  0.75941141  0.58781445  0.04812681  1  0.476618  0  0.045917  0.084742  0  3.941487  0
C  C148  1  0.59775059  0.63065100  0.98744174  1  0.450027  0  0.042355  0.089049  0  3.957506  0
C  C149  1  0.54512251  0.71829370  0.01794073  1  0.030433  0  -0.081702  -0.166885  0  3.953687  0
C  C150  1  0.64341914  0.40660146  0.85485025  1  1.539515  0  0.195168  0.669985  0  4.172677  0
C  C151  1  0.59695145  0.39240106  0.78668204  1  -0.115872  0  -0.250445  -0.5188  0  3.906386  0
C  C152  1  0.69851278  0.79247383  0.54065874  1  1.567138  0  0.183256  0.547295  0  4.263408  0
C  C153  1  0.64643263  0.71316821  0.56436861  1  -0.070595  0  -0.012436  -0.01025  0  3.948951  0
C  C154  1  0.52360147  0.72282376  0.62172714  1  -0.054598  0  -0.08761  -0.098997  0  3.993348  0
C  C155  1  0.47407606  0.65093971  0.63936651  1  -0.024037  0  -0.089373  -0.12351  0  3.979392  0
C  C156  1  0.54468816  0.56742472  0.59870459  1  -0.03975  0  -0.010046  0.0514  0  3.982834  0
C  C157  1  0.66902960  0.55772620  0.54292920  1  -0.024997  0  -0.088139  -0.119188  0  3.972984  0
C  C158  1  0.71931786  0.62885208  0.52667041  1  0.019092  0  -0.081707  -0.086868  0  3.966853  0
C  C159  1  0.49046347  0.49242639  0.61397665  1  -0.050662  0  0.012478  0.116272  0  4.003008  0
C  C160  1  0.36200364  0.50512230  0.65843805  1  -0.040255  0  -0.081043  -0.214992  0  3.894851  0
C  C161  1  0.31672062  0.43024316  0.67511886  1  0.564696  0  0.122116  0.20444  0  4.031802  0
C  C162  1  0.18381140  0.43910303  0.72804798  1  -0.038297  0  0.011717  0.077472  0  3.964295  0
C  C163  1  0.11044794  0.50670075  0.78789385  1  -0.06583  0  -0.083848  -0.173083  0  3.939286  0
C  C164  1  0.99121345  0.50551231  0.84288373  1  0.476493  0  0.044861  0.097319  0  3.959713  0
C  C165  1  0.00873311  0.38034883  0.78074866  1  0.4744  0  0.047607  0.094668  0  3.94419  0
C  C166  1  0.12938365  0.37582042  0.72395257  1  -0.012242  0  -0.07784  -0.158809  0  3.929665  0
C  C167  1  0.56590116  0.40377701  0.58532489  1  -0.002184  0  -0.078029  -0.207113  0  3.907926  0
C  C168  1  0.51283557  0.33382534  0.60053423  1  0.551673  0  0.122143  0.20417  0  4.020009  0
C  C169  1  0.58918603  0.24140472  0.56652653  1  -0.011929  0  0.015466  0.082439  0  3.955008  0
C  C170  1  0.53234691  0.17360362  0.58108539  1  -0.03144  0  -0.076144  -0.14709  0  3.919817  0
C  C171  1  0.60427503  0.08752940  0.54834579  1  0.487611  0  0.046583  0.085637  0  3.939913  0
C  C172  1  0.78366150  0.13047690  0.48754581  1  0.421454  0  0.043398  0.089715  0  3.957579  0
C  C173  1  0.71825828  0.21806563  0.51811720  1  0.0148  0  -0.08159  -0.166324  0  3.950837  0
C  C174  1  0.09516004  0.90660380  0.35487856  1  1.553192  0  0.195312  0.671522  0  4.16946  0
C  C175  1  0.22387075  0.89268995  0.28661270  1  -0.084221  0  -0.251  -0.521157  0  3.905804  0
N  N176  1  0.60960389  0.65362226  0.35383480  1  -1.204421  0  -0.301425  -0.319287  0  3.293892  0
N  N177  1  0.05909378  0.55680693  0.15941597  1  -1.246269  0  -0.326243  -0.250628  0  3.487553  0
N  N178  1  0.27169298  0.93426437  0.49750883  1  -1.240424  0  -0.329154  -0.232049  0  3.501851  0
N  N179  1  0.38330136  0.15352754  0.85385172  1  -1.180444  0  -0.301445  -0.319904  0  3.294754  0
N  N180  1  0.22453381  0.05719629  0.65942636  1  -1.229208  0  -0.326242  -0.249503  0  3.483597  0
N  N181  1  0.29708975  0.43403788  0.99763071  1  -1.231879  0  -0.328703  -0.231543  0  3.502135  0
N  N182  1  0.61669860  0.84646512  0.14615645  1  -1.180957  0  -0.301385  -0.319756  0  3.294481  0
N  N183  1  0.77546660  0.94279568  0.34056826  1  -1.228807  0  -0.326125  -0.249325  0  3.48359  0
N  N184  1  0.70290397  0.56596810  0.00237607  1  -1.232224  0  -0.328618  -0.231433  0  3.502211  0
N  N185  1  0.39040768  0.34637509  0.64616363  1  -1.204798  0  -0.301313  -0.319038  0  3.294033  0
N  N186  1  0.94091643  0.44319201  0.84057881  1  -1.246398  0  -0.326238  -0.250726  0  3.487583  0
N  N187  1  0.72829779  0.06574207  0.50247579  1  -1.240258  0  -0.329016  -0.231919  0  3.501671  0
O  O188  1  0.37637081  0.12594926  0.44223190  1  -1.194119  0  -0.334313  -0.574665  0  2.158697  0
O  O189  1  0.18189085  0.22830882  0.49817837  1  -1.14467  0  -0.348627  -0.558798  0  2.196472  0
O  O190  1  0.96841770  0.01341010  0.61542585  1  -1.206295  0  -0.333998  -0.59902  0  2.210365  0
O  O191  1  0.94881111  0.16069461  0.62068488  1  -1.15981  0  -0.341958  -0.56204  0  2.146249  0
O  O192  1  0.13464536  0.10411835  0.38722383  1  -1.229671  0  -0.586148  -0.761215  0  2.05164  0
O  O193  1  0.05466383  0.62542246  0.94257788  1  -1.188068  0  -0.334022  -0.574156  0  2.160575  0
O  O194  1  0.09193022  0.72770139  0.99789636  1  -1.152023  0  -0.348949  -0.559282  0  2.196519  0
O  O195  1  0.40285169  0.51341050  0.11547767  1  -1.196309  0  -0.334444  -0.598337  0  2.211934  0
O  O196  1  0.26968065  0.66057455  0.12066819  1  -1.161851  0  -0.341464  -0.561387  0  2.146858  0
O  O197  1  0.37379967  0.60381635  0.88710093  1  -1.241348  0  -0.586047  -0.761705  0  2.051692  0
O  O198  1  0.94534438  0.37457504  0.05741763  1  -1.188303  0  -0.334092  -0.574256  0  2.161315  0
O  O199  1  0.90805440  0.27230083  0.00211570  1  -1.15148  0  -0.349012  -0.559404  0  2.196239  0
O  O200  1  0.59713999  0.48660067  0.88452318  1  -1.195678  0  -0.334463  -0.598427  0  2.211999  0
O  O201  1  0.73032464  0.33943491  0.87932537  1  -1.161493  0  -0.341409  -0.561245  0  2.146989  0
O  O202  1  0.62619041  0.39619276  0.11289942  1  -1.241552  0  -0.586066  -0.761721  0  2.051643  0
O  O203  1  0.62359748  0.87405221  0.55778113  1  -1.193774  0  -0.3343  -0.574781  0  2.158106  0
O  O204  1  0.81808786  0.77169362  0.50182954  1  -1.144517  0  -0.34843  -0.558494  0  2.196914  0
O  O205  1  0.03159463  0.98657708  0.38458027  1  -1.207205  0  -0.334068  -0.59907  0  2.210316  0
O  O206  1  0.05118733  0.83931527  0.37932749  1  -1.159858  0  -0.341964  -0.562021  0  2.146591  0
O  O207  1  0.86536100  0.89589144  0.61277681  1  -1.229161  0  -0.586092  -0.761073  0  2.051776  0
