# generated using pymatgen
data_Zn2H30C39S2N2O15
_symmetry_space_group_name_H-M   'P 1'
_cell_length_a   14.66819571
_cell_length_b   16.11548469
_cell_length_c   16.04327138
_cell_angle_alpha   90.13201807
_cell_angle_beta   90.43669033
_cell_angle_gamma   91.46736873
_symmetry_Int_Tables_number   1
_chemical_formula_structural   Zn2H30C39S2N2O15
_chemical_formula_sum   'Zn2 H30 C39 S2 N2 O15'
_cell_volume   3791.02444640
_cell_formula_units_Z   1
loop_
 _symmetry_equiv_pos_site_id
 _symmetry_equiv_pos_as_xyz
  1  'x, y, z'
loop_
 _atom_site_type_symbol
 _atom_site_label
 _atom_site_symmetry_multiplicity
 _atom_site_fract_x
 _atom_site_fract_y
 _atom_site_fract_z
 _atom_site_occupancy
 _atom_site_pbe_bader_charge
 _atom_site_pbe_bader_spin_density
 _atom_site_pbe_cm5_charge
 _atom_site_pbe_ddec_charge
 _atom_site_pbe_ddec_spin_density
 _atom_site_pbe_ddec_sum_bond_order
 _atom_site_pbe_magmom
Zn  Zn0  1  0.59714643  0.49858558  0.49788440  1  1.316242  0  0.675755  0.884123  0  2.432867  0
Zn  Zn1  1  0.40764208  0.49692119  0.49831236  1  1.318817  0  0.682817  0.884983  0  2.434727  0
H  H2  1  0.40273660  0.94134131  0.61292389  1  0.064735  0  0.101058  0.088614  0  0.990801  0
H  H3  1  0.38340974  0.41999624  0.92052863  1  0.013372  0  0.093403  0.092304  0  0.977474  0
H  H4  1  0.38010641  0.41850291  0.06657240  1  -0.00503  0  0.092695  0.09104  0  0.979883  0
H  H5  1  0.35677490  0.52537472  0.06724044  1  0.041898  0  0.091325  0.088644  0  0.982849  0
H  H6  1  0.60400676  0.60113602  0.92853515  1  0.018924  0  0.091651  0.088396  0  0.981555  0
H  H7  1  0.49001023  0.63351635  0.92594295  1  0.030977  0  0.093077  0.090956  0  0.977862  0
H  H8  1  0.60069011  0.59961514  0.07444229  1  0.01882  0  0.092324  0.089994  0  0.980528  0
H  H9  1  0.63794414  0.44729200  0.92771255  1  0.041148  0  0.092134  0.089656  0  0.981046  0
H  H10  1  0.63455220  0.44600964  0.07373093  1  0.031464  0  0.092371  0.089906  0  0.980137  0
H  H11  1  0.48680279  0.63221349  0.07185806  1  0.044122  0  0.092868  0.090482  0  0.978211  0
H  H12  1  0.91793875  0.51132388  0.63641063  1  0.120148  0  0.1203  0.142135  0  0.960176  0
H  H13  1  0.55436265  0.05270390  0.63409090  1  0.08042  0  0.101219  0.088911  0  0.990746  0
H  H14  1  0.08180237  0.38094556  0.56412831  1  0.149624  0  0.122579  0.12261  0  0.9636  0
H  H15  1  0.92438313  0.37784621  0.56249478  1  0.063365  0  0.113941  0.130101  0  0.950015  0
H  H16  1  0.92768112  0.37269271  0.45154151  1  0.107133  0  0.111296  0.124914  0  0.984355  0
H  H17  1  0.08478505  0.61016149  0.42403027  1  0.059804  0  0.110142  0.125033  0  0.975301  0
H  H18  1  0.08796530  0.51216890  0.37623703  1  0.080454  0  0.115516  0.126769  0  0.953516  0
H  H19  1  0.92542647  0.60470118  0.41934038  1  0.060567  0  0.10642  0.114337  0  0.965974  0
H  H20  1  0.91418407  0.60660090  0.58297845  1  0.080404  0  0.110196  0.119373  0  0.984054  0
H  H21  1  0.33991305  0.04051438  0.47885394  1  0.074933  0  0.099155  0.086222  0  0.993776  0
H  H22  1  0.92957335  0.50761564  0.36778553  1  0.091411  0  0.115376  0.124792  0  0.949587  0
H  H23  1  0.44101345  0.94286414  0.36646707  1  0.059665  0  0.101254  0.088601  0  0.990388  0
H  H24  1  0.59284303  0.05403332  0.38762676  1  0.064687  0  0.100822  0.088755  0  0.990138  0
H  H25  1  0.65561772  0.95505553  0.52181124  1  0.069235  0  0.096989  0.08272  0  0.997149  0
H  H26  1  0.54430431  0.37158390  0.07050029  1  0.029272  0  0.093324  0.091734  0  0.977167  0
H  H27  1  0.54759426  0.37295875  0.92459589  1  0.007872  0  0.093348  0.091649  0  0.97741  0
H  H28  1  0.36024036  0.52681820  0.92107636  1  0.018233  0  0.092856  0.09182  0  0.978468  0
H  H29  1  0.05094812  0.61766542  0.74790162  1  0.661945  0  0.335012  0.403335  0  0.882683  0
H  H30  1  0.17294808  0.36487403  0.43370317  1  0.067626  0  0.122869  0.065856  0  0.94344  0
H  H31  1  0.98207850  0.74356007  0.55768907  1  0.651707  0  0.371039  0.421735  0  0.807254  0
C  C32  1  0.51296429  0.50028468  0.66002064  1  1.698273  0  0.216698  0.679438  0  4.2299  0
C  C33  1  0.50119612  0.91254946  0.50032714  1  0.141893  0  0.006564  0.128287  0  3.797834  0
C  C34  1  0.55078845  0.02806371  0.43765935  1  -0.023406  0  -0.071033  -0.07813  0  3.634598  0
C  C35  1  0.49438138  0.08288336  0.50010078  1  0.123534  0  0.007448  0.128083  0  3.79985  0
C  C36  1  0.46609577  0.96825041  0.42585755  1  -0.014407  0  -0.069651  -0.075327  0  3.632511  0
C  C37  1  0.40993682  0.02063079  0.48838776  1  -0.038558  0  -0.072793  -0.082336  0  3.642839  0
C  C38  1  0.50307712  0.82480361  0.49944109  1  -0.535337  0  -0.04468  -0.072123  0  4.117595  0
C  C39  1  0.49258808  0.17061684  0.50046331  1  -0.551735  0  -0.043766  -0.069841  0  4.115049  0
C  C40  1  0.56875895  0.43365997  0.95061558  1  0.016239  0  -0.154318  -0.185674  0  3.853185  0
C  C41  1  0.40608667  0.48021267  0.94664218  1  0.041416  0  -0.154439  -0.184753  0  3.847397  0
C  C42  1  0.40385377  0.47925123  0.04312979  1  -0.042619  0  -0.155304  -0.187708  0  3.856851  0
C  C43  1  0.50358222  0.65950283  0.49695595  1  1.685181  0  0.214551  0.670379  0  4.244866  0
C  C44  1  0.50053004  0.49719651  0.24567193  1  0.211683  0  -0.065671  -0.220534  0  4.007362  0
C  C45  1  0.50414158  0.50022966  0.91610727  1  0.179695  0  -0.000185  0.169652  0  3.901294  0
C  C46  1  0.56652802  0.43275609  0.04695679  1  -0.057606  0  -0.153669  -0.183279  0  3.851007  0
C  C47  1  0.50023937  0.49868740  0.07940578  1  0.215712  0  -0.000762  0.169197  0  3.901772  0
C  C48  1  0.53287791  0.58523804  0.04774646  1  -0.082971  0  -0.153054  -0.182647  0  3.848297  0
C  C49  1  0.53507275  0.58617573  0.95134641  1  0.030855  0  -0.153186  -0.182674  0  3.849299  0
C  C50  1  0.49951373  0.49800098  0.16990325  1  -0.627552  0  -0.031601  -0.052479  0  4.053461  0
C  C51  1  0.50749541  0.50116243  0.82572282  1  -0.60209  0  -0.030602  -0.051752  0  4.051396  0
C  C52  1  0.51118822  0.50126891  0.75006970  1  0.197862  0  -0.063883  -0.216943  0  4.003226  0
C  C53  1  0.04925745  0.55166336  0.58674914  1  -0.195417  0  0.00903  -0.201861  0  3.631392  0
C  C54  1  0.50171197  0.49641120  0.33579442  1  1.699028  0  0.216488  0.682544  0  4.228072  0
C  C55  1  0.05556466  0.41210862  0.50819888  1  -0.09101  0  -0.077127  -0.108825  0  3.782969  0
C  C56  1  0.95076340  0.40867008  0.50641046  1  -0.023392  0  -0.14763  -0.224358  0  3.823728  0
C  C57  1  0.09124675  0.50516580  0.51049862  1  0.137209  0  0.024399  0.081048  0  3.84716  0
C  C58  1  0.94426372  0.54506548  0.58197480  1  -0.024644  0  -0.149486  -0.242551  0  3.876601  0
C  C59  1  0.91466548  0.49768539  0.50169252  1  0.173092  0  0.018206  0.133738  0  3.888523  0
C  C60  1  0.95287068  0.54213999  0.42333891  1  -0.068802  0  -0.145747  -0.191136  0  3.825121  0
C  C61  1  0.05803734  0.54626917  0.42820339  1  0.009454  0  -0.145734  -0.191629  0  3.807154  0
C  C62  1  0.81576306  0.49552766  0.49761251  1  0.83819  0  0.245188  0.294011  0  3.831086  0
C  C63  1  0.19056605  0.50573246  0.51150781  1  0.947562  0  0.228174  0.261091  0  3.912586  0
C  C64  1  0.49147685  0.33589492  0.49990614  1  1.693086  0  0.215444  0.672991  0  4.239876  0
C  C65  1  0.52936311  0.02726113  0.57468918  1  -0.040417  0  -0.070362  -0.077081  0  3.634525  0
C  C66  1  0.44473050  0.96734522  0.56287091  1  -0.016314  0  -0.070008  -0.076138  0  3.632169  0
C  C67  1  0.50407530  0.74920190  0.49807651  1  0.182789  0  -0.058703  -0.196443  0  4.009285  0
C  C68  1  0.49163353  0.24623534  0.50046070  1  0.197805  0  -0.058584  -0.197281  0  4.007786  0
C  C69  1  0.58554826  0.97482696  0.51218343  1  -0.048965  0  -0.074572  -0.08419  0  3.647809  0
C  C70  1  0.09702087  0.36611997  0.43430080  1  0.993662  0  0.117125  0.294149  0  3.868026  0
S  S71  1  0.08910125  0.50682305  0.68844662  1  3.104863  0  0.539593  1.101599  0  5.998793  0
S  S72  1  0.09110519  0.66313075  0.58913478  1  3.007316  0  0.552802  1.112409  0  5.874646  0
N  N73  1  0.73691292  0.49530920  0.49468316  1  -1.144514  0  -0.266104  -0.267705  0  3.096662  0
N  N74  1  0.26853756  0.49965846  0.50461429  1  -1.179592  0  -0.260381  -0.241849  0  3.094132  0
O  O75  1  0.59074587  0.49472346  0.62570594  1  -1.141192  0  -0.324415  -0.55628  0  2.241257  0
O  O76  1  0.43599383  0.50489333  0.62326601  1  -1.141074  0  -0.313311  -0.542234  0  2.262674  0
O  O77  1  0.58068785  0.62526169  0.50418255  1  -1.144542  0  -0.322546  -0.558681  0  2.254793  0
O  O78  1  0.42584195  0.62324679  0.48892355  1  -1.146838  0  -0.31469  -0.538446  0  2.253708  0
O  O79  1  0.57969665  0.50424352  0.37101152  1  -1.142547  0  -0.321325  -0.555022  0  2.252652  0
O  O80  1  0.42476523  0.48801685  0.37159182  1  -1.140346  0  -0.32099  -0.554898  0  2.25232  0
O  O81  1  0.56908711  0.37272513  0.49392105  1  -1.148769  0  -0.318633  -0.554095  0  2.262518  0
O  O82  1  0.41405886  0.36965080  0.50527802  1  -1.144437  0  -0.322279  -0.553529  0  2.245827  0
O  O83  1  0.05221760  0.42365360  0.69341409  1  -1.267771  0  -0.285327  -0.472079  0  2.127401  0
O  O84  1  0.18487448  0.52542809  0.69535921  1  -1.253448  0  -0.273018  -0.46947  0  2.149004  0
O  O85  1  0.03235610  0.55808002  0.75389678  1  -1.210025  0  -0.344376  -0.496388  0  2.161785  0
O  O86  1  0.05146446  0.33081297  0.38063461  1  -1.068691  0  -0.242706  -0.324312  0  2.107048  0
O  O87  1  0.07216192  0.69691178  0.67103084  1  -1.284008  0  -0.301094  -0.535048  0  2.150073  0
O  O88  1  0.17955882  0.66896097  0.55321180  1  -1.234797  0  -0.246538  -0.426479  0  2.163049  0
O  O89  1  0.02181646  0.70772845  0.52544148  1  -1.182563  0  -0.342561  -0.51491  0  2.155043  0
