# generated using pymatgen
data_CuMo3H8C8S2(NO5)2
_symmetry_space_group_name_H-M   'P 1'
_cell_length_a   7.64627307
_cell_length_b   10.56042625
_cell_length_c   20.20066671
_cell_angle_alpha   90.00094717
_cell_angle_beta   89.99994705
_cell_angle_gamma   89.99988583
_symmetry_Int_Tables_number   1
_chemical_formula_structural   CuMo3H8C8S2(NO5)2
_chemical_formula_sum   'Cu4 Mo12 H32 C32 S8 N8 O40'
_cell_volume   1631.16147385
_cell_formula_units_Z   4
loop_
 _symmetry_equiv_pos_site_id
 _symmetry_equiv_pos_as_xyz
  1  'x, y, z'
loop_
 _atom_site_type_symbol
 _atom_site_label
 _atom_site_symmetry_multiplicity
 _atom_site_fract_x
 _atom_site_fract_y
 _atom_site_fract_z
 _atom_site_occupancy
 _atom_site_hle17_ddec_charge
 _atom_site_hle17_ddec_spin_density
 _atom_site_hle17_ddec_sum_bond_order
 _atom_site_hle17_magmom
 _atom_site_hse06_ddec_charge
 _atom_site_hse06_ddec_spin_density
 _atom_site_hse06_ddec_sum_bond_order
 _atom_site_hse06_magmom
 _atom_site_pbe_cm5_charge
 _atom_site_pbe_ddec_charge
 _atom_site_pbe_ddec_spin_density
 _atom_site_pbe_ddec_sum_bond_order
 _atom_site_pbe_magmom
Cu  Cu0  1  0.16817096  0.65236476  0.18787977  1  0.986774  -0.71375  1.840752  -0.506  1.077042  -0.890508  2.165983  -0.723  0.757419  0.941624  -0.748731  2.289671  -0.57
Cu  Cu1  1  0.16817057  0.34763499  0.81212022  1  0.986708  0.713806  1.840804  0.506  1.077018  0.890503  2.166086  0.723  0.757417  0.941621  0.748738  2.28976  0.57
Cu  Cu2  1  0.83181639  0.15235424  0.31210656  1  0.986459  -0.713725  1.840728  -0.506  1.076878  -0.890523  2.165835  -0.723  0.757207  0.941424  -0.748733  2.289546  -0.57
Cu  Cu3  1  0.83181491  0.84764553  0.68789322  1  0.98645  0.713771  1.84072  0.506  1.076899  0.890517  2.16586  0.723  0.757205  0.941468  0.748711  2.289516  0.57
Mo  Mo4  1  0.44792050  0.65617842  0.04310037  1  2.231368  0.005865  4.05093  0.006  2.344336  0.002256  4.534147  0.003  1.516859  2.168741  0.002863  4.598163  0.003
Mo  Mo5  1  0.44792106  0.34381904  0.95689905  1  2.231373  -0.005873  4.05078  -0.006  2.344353  -0.002257  4.533977  -0.003  1.516857  2.168772  -0.002862  4.597963  -0.003
Mo  Mo6  1  0.55205375  0.15617947  0.45690482  1  2.231495  0.005875  4.050667  0.006  2.344422  0.002249  4.533917  0.003  1.5169  2.168807  0.002857  4.597899  0.003
Mo  Mo7  1  0.55205005  0.84381784  0.54309555  1  2.231368  -0.005855  4.050817  -0.006  2.344273  -0.002237  4.534092  -0.003  1.516811  2.168647  -0.002856  4.598083  -0.003
Mo  Mo8  1  0.19820308  0.39447105  0.08361031  1  2.189221  0.00647  4.101864  0.005  2.292453  -0.003745  4.602886  -0.007  1.500388  2.107457  -0.007564  4.678401  -0.011
Mo  Mo9  1  0.19820300  0.60552866  0.91638869  1  2.189246  -0.006455  4.101876  -0.005  2.292506  0.003749  4.602877  0.007  1.500445  2.10751  0.007563  4.67841  0.011
Mo  Mo10  1  0.80177311  0.89447272  0.41638358  1  2.189156  0.006483  4.102252  0.005  2.292443  -0.003742  4.603261  -0.007  1.50033  2.107416  -0.00756  4.678821  -0.011
Mo  Mo11  1  0.80177401  0.10552614  0.58361720  1  2.189116  -0.006461  4.102179  -0.005  2.292414  0.00375  4.603189  0.007  1.500323  2.107395  0.007557  4.678727  0.011
Mo  Mo12  1  0.92534972  0.34546552  0.96356163  1  2.253381  -0.00529  4.029266  -0.005  2.373439  0.003777  4.50621  0.006  1.532604  2.191797  0.007375  4.572644  0.01
Mo  Mo13  1  0.92534787  0.65453222  0.03643911  1  2.253368  0.005294  4.029351  0.005  2.373428  -0.003776  4.506289  -0.006  1.532631  2.191788  -0.007375  4.572743  -0.01
Mo  Mo14  1  0.07461746  0.84547047  0.53643695  1  2.253361  -0.005296  4.029243  -0.005  2.373438  0.003786  4.506187  0.006  1.532595  2.191793  0.007372  4.57263  0.01
Mo  Mo15  1  0.07461723  0.15453130  0.46356259  1  2.25337  0.005337  4.029182  0.005  2.373435  -0.003768  4.506128  -0.006  1.532596  2.191791  -0.007371  4.572602  -0.01
H  H16  1  0.36819210  0.78609196  0.41489263  1  0.164857  -0.000566  0.96439  -0.001  0.170797  -0.000177  1.02848  0.0  0.118534  0.165123  -0.000321  1.032194  0.0
H  H17  1  0.36819138  0.21390751  0.58510780  1  0.164883  0.000564  0.964464  0.001  0.170836  0.000177  1.028517  0.0  0.118519  0.165168  0.000321  1.032216  0.0
H  H18  1  0.63178440  0.28610867  0.08509883  1  0.164776  -0.000563  0.964323  -0.001  0.170761  -0.000177  1.028418  0.0  0.118455  0.165098  -0.000321  1.032097  0.0
H  H19  1  0.63176571  0.71389233  0.91489904  1  0.164776  0.000563  0.96441  0.001  0.170745  0.000177  1.028522  0.0  0.118444  0.165085  0.000321  1.0322  0.0
H  H20  1  0.25788949  0.37710678  0.24214806  1  0.153199  -0.000232  0.978064  0.0  0.174428  -0.000134  1.03574  0.0  0.098547  0.169379  -0.000222  1.037355  0.0
H  H21  1  0.25789632  0.62289190  0.75785389  1  0.153275  0.000234  0.978035  0.0  0.174478  0.000134  1.035724  0.0  0.098571  0.169425  0.000222  1.037346  0.0
H  H22  1  0.74217045  0.87709503  0.25781102  1  0.153314  -0.000233  0.977908  0.0  0.174397  -0.000134  1.035682  0.0  0.098558  0.169439  -0.000222  1.037169  0.0
H  H23  1  0.74216696  0.12290676  0.74218829  1  0.153285  0.000234  0.97786  0.0  0.174337  0.000133  1.035671  0.0  0.098542  0.169383  0.000222  1.037158  0.0
H  H24  1  0.19757772  0.32888846  0.32378625  1  0.14287  0.000563  0.952677  0.001  0.162706  9.3e-05  1.016707  0.0  0.096292  0.159284  2e-05  1.016767  0.0
H  H25  1  0.19758331  0.67111030  0.67621670  1  0.142972  -0.000561  0.952716  -0.001  0.16277  -9.3e-05  1.016769  0.0  0.09631  0.159346  -2e-05  1.016837  0.0
H  H26  1  0.80246405  0.82889299  0.17616548  1  0.143181  0.000562  0.952644  0.001  0.16309  9.3e-05  1.016493  0.0  0.096406  0.159629  2e-05  1.016612  0.0
H  H27  1  0.80246283  0.17110587  0.82383332  1  0.143156  -0.000559  0.952644  -0.001  0.163084  -9.3e-05  1.016465  0.0  0.096414  0.159619  -2e-05  1.016581  0.0
H  H28  1  0.42109709  0.33625793  0.30215281  1  0.141283  0.000492  0.944014  0.001  0.163323  0.000109  1.002808  0.0  0.095886  0.160215  0.000128  1.002371  0.0
H  H29  1  0.42110265  0.66373768  0.69784810  1  0.141276  -0.000489  0.944047  -0.001  0.163349  -0.000109  1.002785  0.0  0.095886  0.160241  -0.000128  1.002358  0.0
H  H30  1  0.57894727  0.83624263  0.19781087  1  0.141438  0.000492  0.944179  0.001  0.163517  0.000109  1.002846  0.0  0.095882  0.160408  0.000128  1.002424  0.0
H  H31  1  0.57894482  0.16376223  0.80218899  1  0.141417  -0.000491  0.944145  -0.001  0.163505  -0.000109  1.002807  0.0  0.09591  0.160396  -0.000128  1.00239  0.0
H  H32  1  0.11088797  0.86698054  0.08967208  1  0.136873  4e-05  0.990524  0.0  0.152502  7.5e-05  1.056498  0.0  0.097928  0.149527  4.9e-05  1.056878  0.0
H  H33  1  0.11089186  0.13302307  0.91032695  1  0.136877  -4e-05  0.990603  0.0  0.152514  -7.5e-05  1.056547  0.0  0.097924  0.14954  -4.9e-05  1.056926  0.0
H  H34  1  0.88907522  0.36696072  0.41031860  1  0.136799  4e-05  0.99063  0.0  0.152474  7.5e-05  1.056568  0.0  0.097853  0.149504  4.9e-05  1.056945  0.0
H  H35  1  0.88906546  0.63304276  0.58968116  1  0.136785  -4e-05  0.990656  0.0  0.152491  -7.5e-05  1.056569  0.0  0.097858  0.149515  -4.9e-05  1.056941  0.0
H  H36  1  0.24813123  0.00319990  0.08534419  1  0.150705  0.00055  0.925568  0.001  0.172287  0.00016  0.981178  0.0  0.103338  0.16859  0.000122  0.982924  0.0
H  H37  1  0.24813266  0.99680163  0.91465430  1  0.150659  -0.000549  0.925571  -0.001  0.172266  -0.00016  0.981164  0.0  0.103328  0.168572  -0.000122  0.982911  0.0
H  H38  1  0.75186439  0.50319591  0.41464283  1  0.150681  0.00055  0.925562  0.001  0.172252  0.00016  0.981194  0.0  0.103324  0.168555  0.000122  0.982942  0.0
H  H39  1  0.75185632  0.49680491  0.58535747  1  0.150643  -0.000547  0.925517  -0.001  0.172246  -0.00016  0.981123  0.0  0.103353  0.168549  -0.000122  0.982872  0.0
H  H40  1  0.02537036  0.02116365  0.10451397  1  0.143784  0.000605  0.934208  0.001  0.164815  0.000194  0.991836  0.0  0.099867  0.161502  0.000204  0.992393  0.0
H  H41  1  0.02537059  0.97883914  0.89548707  1  0.143788  -0.000603  0.934262  -0.001  0.164815  -0.000194  0.9919  0.0  0.099857  0.161501  -0.000204  0.992455  0.0
H  H42  1  0.97464089  0.52113791  0.39548410  1  0.143791  0.000605  0.934126  0.001  0.164822  0.000194  0.991767  0.0  0.099848  0.161507  0.000204  0.992328  0.0
H  H43  1  0.97463545  0.47886544  0.60451415  1  0.143807  -0.000604  0.934071  -0.001  0.16481  -0.000194  0.991738  0.0  0.099853  0.161496  -0.000204  0.992298  0.0
H  H44  1  0.31663484  0.00473326  0.34678407  1  0.174636  -0.000579  0.936443  -0.001  0.185427  -0.000211  0.991178  0.0  0.12323  0.17963  -0.000366  0.993848  0.0
H  H45  1  0.31662519  0.99526723  0.65321390  1  0.17465  0.000578  0.936533  0.001  0.185444  0.000211  0.991231  0.0  0.123265  0.179661  0.000366  0.993889  0.0
H  H46  1  0.68343923  0.50473535  0.15320247  1  0.174689  -0.000574  0.93635  -0.001  0.185503  -0.000211  0.991039  0.0  0.123321  0.179728  -0.000366  0.993675  0.0
H  H47  1  0.68346188  0.49526463  0.84680033  1  0.174764  0.000576  0.936338  0.001  0.185553  0.000211  0.991029  0.0  0.123336  0.179777  0.000366  0.993679  0.0
C  C48  1  0.33769112  0.71329038  0.37903311  1  -0.194325  0.003587  3.596922  0.003  -0.228283  -0.001408  3.896991  -0.002  -0.083247  -0.225249  -0.001859  3.870669  -0.002
C  C49  1  0.33769010  0.28670818  0.62096683  1  -0.194575  -0.003547  3.596989  -0.002  -0.228489  0.001408  3.896986  0.002  -0.083309  -0.22545  0.00186  3.870671  0.002
C  C50  1  0.66230652  0.21329965  0.12095128  1  -0.194416  0.003564  3.597031  0.002  -0.228283  -0.001423  3.897006  -0.002  -0.083165  -0.225229  -0.00186  3.870671  -0.002
C  C51  1  0.66229556  0.78670225  0.87904806  1  -0.194443  -0.003524  3.597225  -0.002  -0.228277  0.00142  3.897164  0.002  -0.083178  -0.22522  0.00186  3.870834  0.002
C  C52  1  0.29376572  0.38227403  0.29443496  1  -0.388093  -0.001275  3.681496  -0.002  -0.471276  -0.000566  3.92033  -0.001  -0.247853  -0.460836  -0.001111  3.908028  -0.001
C  C53  1  0.29377139  0.61772459  0.70556697  1  -0.38828  0.001267  3.681639  0.002  -0.47144  0.000567  3.920474  0.001  -0.247917  -0.461003  0.001112  3.908172  0.001
C  C54  1  0.70627328  0.88226731  0.20552466  1  -0.388804  -0.001273  3.681612  -0.002  -0.471819  -0.000566  3.920532  -0.001  -0.247976  -0.461447  -0.001111  3.908168  -0.001
C  C55  1  0.70626967  0.11773357  0.79447467  1  -0.388639  0.001265  3.681618  0.002  -0.471634  0.000566  3.920587  0.001  -0.247949  -0.461267  0.001111  3.908228  0.001
C  C56  1  0.13860066  0.95888057  0.11177669  1  -0.367389  -0.001211  3.674078  -0.002  -0.445924  -0.000502  3.90963  -0.001  -0.239796  -0.437695  -0.000949  3.899723  -0.001
C  C57  1  0.13859833  0.04112111  0.88822332  1  -0.367385  0.001206  3.67418  0.002  -0.445956  0.000502  3.909718  0.001  -0.239799  -0.43773  0.000949  3.899796  0.001
C  C58  1  0.86139889  0.45886577  0.38821676  1  -0.367276  -0.001212  3.673759  -0.002  -0.445886  -0.000501  3.909391  -0.001  -0.239707  -0.437656  -0.000949  3.899461  -0.001
C  C59  1  0.86139194  0.54113680  0.61178301  1  -0.36724  0.001204  3.673777  0.002  -0.445862  0.000502  3.909322  0.001  -0.239713  -0.43763  0.000949  3.899401  0.001
C  C60  1  0.27405201  0.96958753  0.29895618  1  -0.194922  0.002738  3.556933  0.002  -0.226098  -0.001787  3.851229  -0.002  -0.0837  -0.220978  -0.002067  3.824676  -0.002
C  C61  1  0.27404759  0.03041396  0.70104378  1  -0.195082  -0.00275  3.557153  -0.002  -0.226246  0.001781  3.851405  0.002  -0.083769  -0.221115  0.002068  3.824819  0.002
C  C62  1  0.72599590  0.46958408  0.20103192  1  -0.194961  0.002714  3.556629  0.002  -0.226137  -0.001803  3.850889  -0.002  -0.083783  -0.220989  -0.002067  3.824287  -0.002
C  C63  1  0.72600942  0.53041678  0.79896889  1  -0.195201  -0.002712  3.556831  -0.002  -0.226251  0.001796  3.851001  0.002  -0.083788  -0.221095  0.002067  3.824389  0.002
C  C64  1  0.30002476  0.51669697  0.31612394  1  0.252992  0.011044  3.674508  0.011  0.265227  0.001814  3.986273  0.003  0.132314  0.239402  7.7e-05  3.956336  0.001
C  C65  1  0.30002825  0.48330164  0.68387799  1  0.252971  -0.011037  3.674547  -0.011  0.265192  -0.001813  3.986346  -0.003  0.132352  0.239388  -7.7e-05  3.956383  -0.001
C  C66  1  0.69999174  0.01669396  0.18384488  1  0.253101  0.011027  3.674083  0.011  0.265169  0.001812  3.986192  0.003  0.132307  0.239425  7.6e-05  3.956134  0.001
C  C67  1  0.69998431  0.98330599  0.81615346  1  0.253074  -0.011027  3.674386  -0.011  0.265056  -0.001812  3.986576  -0.003  0.132303  0.239312  -7.6e-05  3.956503  -0.001
C  C68  1  0.24781328  0.84654771  0.28004192  1  0.166025  0.003729  3.838914  0.004  0.166228  0.000811  4.120259  0.001  0.084136  0.157242  -0.000393  4.081314  0.0
C  C69  1  0.24781238  0.15345287  0.71995904  1  0.166023  -0.003679  3.839087  -0.003  0.166329  -0.000807  4.12029  -0.001  0.08419  0.157336  0.000393  4.081358  0.0
C  C70  1  0.75220097  0.34654482  0.21994511  1  0.165804  0.003727  3.838607  0.004  0.166122  0.000826  4.119969  0.001  0.084131  0.157111  -0.000394  4.081083  0.0
C  C71  1  0.75220635  0.65345601  0.78005519  1  0.165941  -0.003696  3.838552  -0.003  0.166233  -0.000821  4.119908  -0.001  0.084138  0.157227  0.000393  4.081031  0.0
C  C72  1  0.18177064  0.94275447  0.18276190  1  0.275706  0.011196  3.642857  0.011  0.288844  0.002479  3.947622  0.003  0.141678  0.260885  0.000455  3.921627  0.001
C  C73  1  0.18176976  0.05724621  0.81723810  1  0.275732  -0.011177  3.642843  -0.011  0.28892  -0.002481  3.947572  -0.003  0.141716  0.260968  -0.000455  3.921568  -0.001
C  C74  1  0.81823942  0.44274317  0.31722944  1  0.275451  0.011191  3.642705  0.011  0.288535  0.002481  3.947583  0.003  0.141463  0.26058  0.000455  3.921578  0.001
C  C75  1  0.81823486  0.55725756  0.68277035  1  0.275411  -0.011163  3.642615  -0.011  0.288532  -0.00248  3.947478  -0.003  0.141433  0.260576  -0.000455  3.921475  -0.001
C  C76  1  0.27970345  0.73005863  0.31565459  1  0.153383  0.003281  3.856445  0.003  0.151568  0.000537  4.144174  0.001  0.078955  0.144409  -0.000651  4.103923  -0.001
C  C77  1  0.27969839  0.26994191  0.68434587  1  0.153469  -0.003274  3.856558  -0.003  0.151683  -0.000539  4.144204  -0.001  0.079004  0.144526  0.000649  4.103967  0.001
C  C78  1  0.72031114  0.23005561  0.18432995  1  0.153618  0.003285  3.856873  0.003  0.151621  0.00055  4.144907  0.001  0.079016  0.144441  -0.00065  4.104694  -0.001
C  C79  1  0.72030693  0.76994715  0.81567037  1  0.153481  -0.003277  3.857044  -0.003  0.151544  -0.000548  4.144973  -0.001  0.078988  0.144356  0.00065  4.104764  0.001
S  S80  1  0.36652759  0.55630168  0.39511060  1  0.237066  -0.009771  2.55544  -0.011  0.237793  -0.004782  2.887264  -0.006  0.165664  0.244265  -0.009615  2.881559  -0.011
S  S81  1  0.36652878  0.44369779  0.60489032  1  0.237132  0.009777  2.555372  0.011  0.237883  0.004782  2.887205  0.006  0.16569  0.244358  0.009615  2.881493  0.011
S  S82  1  0.63346657  0.05631143  0.10486450  1  0.237018  -0.009764  2.555199  -0.011  0.237759  -0.004778  2.887233  -0.006  0.165613  0.244214  -0.009614  2.881485  -0.011
S  S83  1  0.63345381  0.94369050  0.89513386  1  0.23699  0.009778  2.555366  0.011  0.237795  0.004781  2.887394  0.006  0.165612  0.244247  0.009614  2.881643  0.011
S  S84  1  0.23352513  0.06869582  0.23373066  1  0.189614  -0.01099  2.544173  -0.013  0.182446  -0.005653  2.889854  -0.007  0.147963  0.190618  -0.01013  2.884497  -0.011
S  S85  1  0.23352321  0.93130479  0.76626882  1  0.189658  0.010987  2.544214  0.013  0.182484  0.005655  2.889891  0.007  0.147975  0.190657  0.01013  2.884529  0.011
S  S86  1  0.76652261  0.56868903  0.26626039  1  0.18969  -0.010985  2.544098  -0.013  0.182552  -0.005651  2.88978  -0.007  0.147976  0.19072  -0.01013  2.884398  -0.011
S  S87  1  0.76653266  0.43131083  0.73374090  1  0.189654  0.010992  2.544129  0.013  0.182507  0.005651  2.889772  0.007  0.147922  0.190679  0.01013  2.884386  0.011
N  N88  1  0.25796888  0.61799444  0.28043745  1  -0.416789  -0.080456  3.265971  -0.099  -0.425598  -0.043796  3.598413  -0.061  -0.353483  -0.37146  -0.062133  3.566887  -0.078
N  N89  1  0.25796864  0.38200519  0.71956302  1  -0.41674  0.080449  3.266104  0.099  -0.425581  0.043795  3.598583  0.061  -0.353504  -0.371453  0.062129  3.56705  0.078
N  N90  1  0.74205518  0.11798775  0.21953820  1  -0.416596  -0.080425  3.266  -0.099  -0.425485  -0.043792  3.598768  -0.061  -0.353402  -0.371362  -0.062128  3.567207  -0.078
N  N91  1  0.74205336  0.88201308  0.78046162  1  -0.416653  0.080436  3.266179  0.099  -0.425447  0.04379  3.598839  0.061  -0.353406  -0.371339  0.062132  3.567291  0.078
N  N92  1  0.19301022  0.83342036  0.21482917  1  -0.401078  -0.082531  3.262024  -0.101  -0.401455  -0.046482  3.579029  -0.064  -0.354503  -0.3478  -0.064603  3.550222  -0.081
N  N93  1  0.19301042  0.16658030  0.78517082  1  -0.401056  0.082518  3.262059  0.101  -0.401497  0.046483  3.579042  0.064  -0.354528  -0.34785  0.064604  3.550238  0.081
N  N94  1  0.80698838  0.33340997  0.28515973  1  -0.400768  -0.082511  3.261855  -0.101  -0.401146  -0.046482  3.578843  -0.064  -0.354334  -0.347485  -0.064601  3.550024  -0.081
N  N95  1  0.80698604  0.66659173  0.71484006  1  -0.400688  0.082502  3.261798  0.101  -0.401145  0.04648  3.578864  0.064  -0.354287  -0.347488  0.064602  3.550036  0.081
O  O96  1  0.20381385  0.23969357  0.10705837  1  -0.664758  -0.005226  1.45432  -0.006  -0.679487  -0.001928  1.695309  -0.002  -0.50244  -0.635266  -0.003858  1.71183  -0.005
O  O97  1  0.20381470  0.76030423  0.89294063  1  -0.664729  0.005211  1.454325  0.006  -0.679487  0.00191  1.695333  0.002  -0.502465  -0.635273  0.003858  1.711859  0.005
O  O98  1  0.79616671  0.73969262  0.39294110  1  -0.664718  -0.005228  1.454396  -0.006  -0.679463  -0.001922  1.695395  -0.002  -0.502458  -0.63525  -0.003858  1.711927  -0.005
O  O99  1  0.79616711  0.26030625  0.60706067  1  -0.664674  0.005214  1.454396  0.006  -0.67943  0.001912  1.695393  0.002  -0.50243  -0.635223  0.003859  1.711929  0.005
O  O100  1  0.96181038  0.42863533  0.05359598  1  -0.955959  0.008758  1.746402  0.011  -0.992795  0.003568  2.029578  0.005  -0.598767  -0.920137  0.006632  2.041231  0.009
O  O101  1  0.96181294  0.57136331  0.94640376  1  -0.956025  -0.008748  1.746472  -0.011  -0.992867  -0.003564  2.029655  -0.005  -0.598797  -0.920205  -0.006632  2.041311  -0.009
O  O102  1  0.03815787  0.92864280  0.44640068  1  -0.956017  0.00876  1.746644  0.011  -0.992912  0.003568  2.029881  0.005  -0.598761  -0.920194  0.006633  2.041428  0.009
O  O103  1  0.03815764  0.07135902  0.55359985  1  -0.956011  -0.008748  1.74667  -0.011  -0.9929  -0.003563  2.029901  -0.005  -0.59874  -0.920194  -0.006632  2.04147  -0.009
O  O104  1  0.98408828  0.32304081  0.87862521  1  -0.817147  0.064038  1.72373  0.083  -0.874418  0.031388  2.037618  0.046  -0.55477  -0.799511  0.04606  2.062092  0.062
O  O105  1  0.98408223  0.67695590  0.12137501  1  -0.817176  -0.064023  1.723783  -0.083  -0.874396  -0.031386  2.037632  -0.046  -0.554786  -0.799484  -0.046056  2.062115  -0.062
O  O106  1  0.01588419  0.82303999  0.62137168  1  -0.816948  0.064029  1.723533  0.083  -0.87416  0.031381  2.037252  0.046  -0.554654  -0.799294  0.046057  2.06181  0.062
O  O107  1  0.01588281  0.17696471  0.37862837  1  -0.816984  -0.064035  1.723556  -0.083  -0.874186  -0.03139  2.037285  -0.046  -0.554667  -0.799318  -0.046056  2.061873  -0.062
O  O108  1  0.41992110  0.67480308  0.12782538  1  -0.738574  -0.003125  1.549607  -0.006  -0.779833  -0.001624  1.817672  -0.004  -0.528413  -0.727483  -0.002401  1.839844  -0.004
O  O109  1  0.41991801  0.32519348  0.87217355  1  -0.738594  0.003138  1.549535  0.006  -0.77986  0.001628  1.817604  0.004  -0.528458  -0.727531  0.002399  1.839797  0.004
O  O110  1  0.58008449  0.17481752  0.37218244  1  -0.738635  -0.003138  1.549401  -0.006  -0.779924  -0.001625  1.81751  -0.004  -0.528424  -0.727534  -0.002402  1.839607  -0.004
O  O111  1  0.58008454  0.82517692  0.62781792  1  -0.738591  0.003138  1.549497  0.006  -0.779847  0.001623  1.81757  0.004  -0.528377  -0.727462  0.002404  1.839672  0.004
O  O112  1  0.18000838  0.47927186  0.15913789  1  -0.790559  -0.068415  1.76635  -0.088  -0.835834  -0.034979  2.073105  -0.05  -0.555341  -0.758482  -0.050528  2.096103  -0.067
O  O113  1  0.18000874  0.52072598  0.84086111  1  -0.790559  0.068432  1.76638  0.088  -0.835848  0.034993  2.073144  0.05  -0.555351  -0.758508  0.050529  2.09616  0.067
O  O114  1  0.81995580  0.97926261  0.34085129  1  -0.790575  -0.068428  1.766159  -0.088  -0.835867  -0.03498  2.072835  -0.05  -0.555319  -0.758528  -0.050526  2.095858  -0.067
O  O115  1  0.81995675  0.02073718  0.65915048  1  -0.790565  0.068431  1.766163  0.088  -0.835868  0.034982  2.072813  0.05  -0.55534  -0.758528  0.050531  2.095811  0.067
O  O116  1  0.91066954  0.19439443  0.99205063  1  -0.628004  -0.001677  1.428861  -0.002  -0.647456  -0.000889  1.653791  -0.001  -0.485444  -0.607775  -0.000646  1.667278  -0.001
O  O117  1  0.91066473  0.80560239  0.00795012  1  -0.627984  0.00167  1.428895  0.002  -0.647452  0.000888  1.653855  0.001  -0.485402  -0.607751  0.000646  1.667318  0.001
O  O118  1  0.08930461  0.69440414  0.50793921  1  -0.627922  -0.001677  1.428794  -0.002  -0.647411  -0.000893  1.653741  -0.001  -0.485374  -0.607736  -0.000646  1.667246  -0.001
O  O119  1  0.08929733  0.30559856  0.49205983  1  -0.627927  0.001658  1.428699  0.002  -0.647383  0.000886  1.653594  0.001  -0.485369  -0.607709  0.000646  1.667109  0.001
O  O120  1  0.42793066  0.43453703  0.05700340  1  -0.965011  0.001333  1.72493  0.001  -0.993875  0.000635  1.998956  0.001  -0.593775  -0.924581  0.000848  2.014183  0.001
O  O121  1  0.42792932  0.56546140  0.94299651  1  -0.965026  -0.001331  1.724934  -0.001  -0.993897  -0.000636  1.998965  -0.001  -0.593788  -0.924597  -0.000848  2.014183  -0.001
O  O122  1  0.57204672  0.93453987  0.44299430  1  -0.965002  0.001335  1.72526  0.001  -0.993851  0.000636  1.999277  0.001  -0.593751  -0.92449  0.000848  2.014357  0.001
O  O123  1  0.57204650  0.06546026  0.55700606  1  -0.964965  -0.00133  1.725164  -0.001  -0.993825  -0.000636  1.999182  -0.001  -0.593733  -0.924479  -0.000848  2.014278  -0.001
O  O124  1  0.47084129  0.80708000  0.01393218  1  -0.654596  -7.3e-05  1.443237  0.0  -0.679152  4.2e-05  1.680811  0.0  -0.496898  -0.639077  0.000266  1.694884  0.0
O  O125  1  0.47084220  0.19291648  0.98606772  1  -0.65453  7.2e-05  1.443176  0.0  -0.679104  -4.4e-05  1.680746  0.0  -0.496857  -0.639031  -0.000265  1.694812  0.0
O  O126  1  0.52913122  0.30707442  0.48608273  1  -0.654541  -7.5e-05  1.443029  0.0  -0.679113  4.5e-05  1.68062  0.0  -0.496938  -0.639031  0.000266  1.694659  0.0
O  O127  1  0.52912148  0.69292198  0.51391765  1  -0.654501  6.2e-05  1.443078  0.0  -0.679068  -5e-05  1.680663  0.0  -0.496902  -0.638983  -0.000266  1.694703  0.0
O  O128  1  0.69168811  0.39132644  0.95785661  1  -0.861861  0.001122  1.80394  0.001  -0.899418  0.000516  2.093573  0.001  -0.589719  -0.827843  0.001523  2.109548  0.002
O  O129  1  0.69168769  0.60866785  0.04214322  1  -0.861792  -0.001121  1.803853  -0.001  -0.899366  -0.000519  2.093501  -0.001  -0.589762  -0.82783  -0.001523  2.109552  -0.002
O  O130  1  0.30828940  0.89132176  0.54214583  1  -0.861844  0.001126  1.804048  0.001  -0.899336  0.000514  2.093618  0.001  -0.589682  -0.827748  0.001522  2.109548  0.002
O  O131  1  0.30828669  0.10867968  0.45785511  1  -0.861854  -0.001125  1.803986  -0.001  -0.899339  -0.000518  2.093545  -0.001  -0.589682  -0.827753  -0.001521  2.109477  -0.002
O  O132  1  0.19689020  0.37059591  0.97711586  1  -1.104588  -0.008437  2.016176  -0.01  -1.144827  -0.003276  2.319034  -0.004  -0.623413  -1.055634  -0.00655  2.314725  -0.008
O  O133  1  0.19688846  0.62939811  0.02288413  1  -1.104552  0.008437  2.016173  0.01  -1.144781  0.003277  2.319028  0.004  -0.623384  -1.055575  0.00655  2.31469  0.008
O  O134  1  0.80308345  0.87059563  0.52287996  1  -1.104672  -0.008442  2.016088  -0.01  -1.144916  -0.00328  2.318945  -0.004  -0.623489  -1.055732  -0.006552  2.314641  -0.008
O  O135  1  0.80308456  0.12939945  0.47711934  1  -1.104734  0.00844  2.016129  0.01  -1.144978  0.00328  2.318984  0.004  -0.623547  -1.055801  0.006553  2.314688  0.008
