# generated using pymatgen
data_Zn4H8C25S4O13F2
_symmetry_space_group_name_H-M   'P 1'
_cell_length_a   19.60001550
_cell_length_b   19.74538965
_cell_length_c   33.33558067
_cell_angle_alpha   78.90274945
_cell_angle_beta   79.29822201
_cell_angle_gamma   63.99183898
_symmetry_Int_Tables_number   1
_chemical_formula_structural   Zn4H8C25S4O13F2
_chemical_formula_sum   'Zn16 H32 C100 S16 O52 F8'
_cell_volume   11302.61702582
_cell_formula_units_Z   4
loop_
 _symmetry_equiv_pos_site_id
 _symmetry_equiv_pos_as_xyz
  1  'x, y, z'
loop_
 _atom_site_type_symbol
 _atom_site_label
 _atom_site_symmetry_multiplicity
 _atom_site_fract_x
 _atom_site_fract_y
 _atom_site_fract_z
 _atom_site_occupancy
 _atom_site_pbe_bader_charge
 _atom_site_pbe_bader_spin_density
 _atom_site_pbe_cm5_charge
 _atom_site_pbe_ddec_charge
 _atom_site_pbe_ddec_spin_density
 _atom_site_pbe_ddec_sum_bond_order
 _atom_site_pbe_magmom
Zn  Zn0  1  0.05146950  0.40172505  0.47786023  1  1.321595  0  0.670793  0.969334  0  2.352162  0
Zn  Zn1  1  0.99047047  0.48210160  0.56100508  1  1.308266  0  0.675782  0.969015  0  2.360841  0
Zn  Zn2  1  0.05800940  0.56121451  0.48176744  1  1.318711  0  0.673119  0.960242  0  2.379095  0
Zn  Zn3  1  0.89857237  0.55435907  0.48116158  1  1.316717  0  0.673241  0.959496  0  2.380318  0
Zn  Zn4  1  0.69374461  0.34632918  0.27179514  1  1.317333  0  0.671023  0.964688  0  2.37985  0
Zn  Zn5  1  0.68720006  0.19005973  0.26465755  1  1.324464  0  0.671247  0.965438  0  2.366911  0
Zn  Zn6  1  0.77115496  0.26441489  0.19041857  1  1.315104  0  0.673303  0.958449  0  2.384448  0
Zn  Zn7  1  0.84770337  0.19333304  0.27428162  1  1.314869  0  0.67443  0.967558  0  2.35792  0
Zn  Zn8  1  0.27117885  0.76466993  0.69025252  1  1.316699  0  0.670893  0.961844  0  2.373254  0
Zn  Zn9  1  0.34852445  0.69935175  0.77475750  1  1.313913  0  0.673963  0.968501  0  2.364934  0
Zn  Zn10  1  0.19111288  0.84697169  0.77132630  1  1.315447  0  0.670921  0.958306  0  2.382422  0
Zn  Zn11  1  0.19392848  0.68527419  0.76569904  1  1.317888  0  0.674115  0.969408  0  2.357316  0
Zn  Zn12  1  0.56378636  0.05627729  0.98258117  1  1.318171  0  0.671812  0.964684  0  2.375703  0
Zn  Zn13  1  0.40132251  0.05645810  0.97927196  1  1.318093  0  0.671481  0.962587  0  2.370188  0
Zn  Zn14  1  0.55231992  0.90027426  0.97865048  1  1.318203  0  0.67239  0.967379  0  2.370899  0
Zn  Zn15  1  0.48731542  0.98095467  0.06083390  1  1.307465  0  0.671499  0.965211  0  2.36623  0
H  H16  1  0.95299730  0.25246028  0.35257763  1  0.133379  0  0.109221  0.116134  0  0.991522  0
H  H17  1  0.73959143  0.44981183  0.35253202  1  0.067698  0  0.105765  0.113682  0  1.006699  0
H  H18  1  0.99514534  0.30664593  0.40022685  1  0.085037  0  0.108509  0.115961  0  0.996287  0
H  H19  1  0.09635009  0.60290918  0.69673540  1  0.089407  0  0.11017  0.117863  0  0.990576  0
H  H20  1  0.21556967  0.69405055  0.59619219  1  0.118865  0  0.104923  0.112557  0  1.007361  0
H  H21  1  0.05048444  0.55746830  0.64646408  1  0.109214  0  0.110312  0.118276  0  0.992779  0
H  H22  1  0.45942786  0.23880569  0.33959162  1  0.128755  0  0.123139  0.149534  0  0.965866  0
H  H23  1  0.48504185  0.69299110  0.60666207  1  0.137209  0  0.122174  0.148519  0  0.967433  0
H  H24  1  0.20813823  0.97778158  0.60050905  1  0.130292  0  0.122356  0.148504  0  0.967763  0
H  H25  1  0.94828539  0.96253828  0.34102348  1  0.127689  0  0.123824  0.150719  0  0.964698  0
H  H26  1  0.56243166  0.04267029  0.15124429  1  0.090984  0  0.108979  0.116337  0  0.992292  0
H  H27  1  0.64750824  0.15883541  0.04622273  1  0.060385  0  0.10613  0.114469  0  1.004264  0
H  H28  1  0.61055295  0.09458206  0.19719467  1  0.133308  0  0.108273  0.114772  0  0.995971  0
H  H29  1  0.54994425  0.76725018  0.14920858  1  0.149546  0  0.123292  0.148914  0  0.966004  0
H  H30  1  0.16615802  0.15172083  0.04399606  1  0.123412  0  0.122915  0.148818  0  0.966354  0
H  H31  1  0.48857677  0.79900442  0.90327297  1  0.101941  0  0.109754  0.117458  0  0.990645  0
H  H32  1  0.29369092  0.01404191  0.89662110  1  0.073481  0  0.10519  0.113076  0  1.005998  0
H  H33  1  0.43580472  0.75604210  0.85520739  1  0.112038  0  0.110268  0.118074  0  0.994057  0
H  H34  1  0.30557850  0.27934640  0.90125485  1  0.109743  0  0.122516  0.148111  0  0.966949  0
H  H35  1  0.78235284  0.00571603  0.90260905  1  0.153728  0  0.122971  0.149262  0  0.966577  0
H  H36  1  0.78166862  0.57150661  0.38890066  1  0.080979  0  0.098754  0.142955  0  0.980729  0
H  H37  1  0.75312628  0.52749835  0.43565440  1  0.033523  0  0.096083  0.141561  0  0.995354  0
H  H38  1  0.70631342  0.54274775  0.39141790  1  0.040633  0  0.090344  0.122128  0  1.002341  0
H  H39  1  0.13046193  0.69617541  0.51630099  1  0.064627  0  0.097549  0.142557  0  0.987137  0
H  H40  1  0.20532015  0.60493283  0.51759065  1  0.067848  0  0.097207  0.142284  0  0.987549  0
H  H41  1  0.22045519  0.68104114  0.52986508  1  0.026024  0  0.090071  0.122072  0  1.002912  0
H  H42  1  0.76708491  0.19972014  0.08742921  1  0.097571  0  0.097892  0.14257  0  0.985792  0
H  H43  1  0.68167230  0.27976197  0.09692832  1  0.075041  0  0.097288  0.142449  0  0.987111  0
H  H44  1  0.69954383  0.23855129  0.05073839  1  0.018792  0  0.090966  0.123341  0  1.001294  0
H  H45  1  0.17287565  0.97145398  0.85627411  1  0.061722  0  0.097517  0.142192  0  0.986596  0
H  H46  1  0.22215253  0.99952212  0.81157751  1  0.071687  0  0.096207  0.140135  0  0.990677  0
H  H47  1  0.20124950  0.04595690  0.85619208  1  0.008056  0  0.090134  0.122425  0  1.002387  0
C  C48  1  0.06336026  0.31500108  0.56082507  1  1.571252  0  0.217109  0.630823  0  4.217409  0
C  C49  1  0.07539275  0.57174599  0.56589729  1  1.549892  0  0.230415  0.610355  0  4.154305  0
C  C50  1  0.18198424  0.43775724  0.43886387  1  1.582099  0  0.216425  0.632378  0  4.213949  0
C  C51  1  0.93257073  0.68271587  0.43830041  1  1.579396  0  0.215885  0.628796  0  4.21854  0
C  C52  1  0.92274029  0.43531612  0.43148383  1  1.547818  0  0.229171  0.608129  0  4.153629  0
C  C53  1  0.82255670  0.55716060  0.56674509  1  1.589093  0  0.216184  0.629913  0  4.21692  0
C  C54  1  0.56481392  0.30786795  0.31142226  1  1.5843  0  0.218446  0.609183  0  4.221234  0
C  C55  1  0.68469050  0.18131521  0.17771263  1  1.548737  0  0.229422  0.60838  0  4.155715  0
C  C56  1  0.68624621  0.43050628  0.18803151  1  1.588012  0  0.215142  0.6284  0  4.219091  0
C  C57  1  0.93812033  0.18904404  0.19271030  1  1.58007  0  0.217037  0.630724  0  4.215368  0
C  C58  1  0.81645686  0.31809830  0.32119073  1  1.536594  0  0.230738  0.608177  0  4.155915  0
C  C59  1  0.80735847  0.06382881  0.30951231  1  1.595431  0  0.218889  0.610548  0  4.219491  0
C  C60  1  0.43877939  0.68806923  0.69303179  1  1.559936  0  0.218166  0.609683  0  4.220177  0
C  C61  1  0.30901379  0.82833189  0.82092567  1  1.547244  0  0.228852  0.606303  0  4.155207  0
C  C62  1  0.19269991  0.93151002  0.68769969  1  1.581369  0  0.218859  0.611208  0  4.21896  0
C  C63  1  0.06457395  0.80371901  0.80873662  1  1.597581  0  0.21683  0.631039  0  4.213481  0
C  C64  1  0.18719575  0.67867061  0.67854142  1  1.540968  0  0.229351  0.605852  0  4.158434  0
C  C65  1  0.31608627  0.56766469  0.81363147  1  1.587448  0  0.216742  0.632642  0  4.212225  0
C  C66  1  0.44152491  0.18341839  0.93933605  1  1.583791  0  0.218216  0.609769  0  4.221397  0
C  C67  1  0.42409224  0.93583620  0.93149935  1  1.557161  0  0.229167  0.606044  0  4.161437  0
C  C68  1  0.68370612  0.93262371  0.93795503  1  1.590381  0  0.219274  0.611887  0  4.217907  0
C  C69  1  0.55994650  0.81443691  0.06214835  1  1.591266  0  0.219303  0.611401  0  4.218514  0
C  C70  1  0.57533049  0.06674100  0.06789447  1  1.556264  0  0.22997  0.60685  0  4.157577  0
C  C71  1  0.31920636  0.06093409  0.06348355  1  1.600744  0  0.219491  0.612144  0  4.21689  0
C  C72  1  0.89153639  0.40858189  0.40302365  1  0.068458  0  -0.013197  -0.098308  0  3.900303  0
C  C73  1  0.84343223  0.34857956  0.34971083  1  -0.119677  0  -0.015704  -0.025885  0  3.996855  0
C  C74  1  0.81776996  0.45086673  0.38986673  1  -0.040428  0  0.008681  0.173232  0  3.914869  0
C  C75  1  0.91593087  0.30735644  0.36304517  1  -0.017461  0  -0.084808  -0.101247  0  3.993706  0
C  C76  1  0.79582933  0.41902029  0.36324565  1  -0.002799  0  -0.082919  -0.158604  0  3.923057  0
C  C77  1  0.93907155  0.33761982  0.38941069  1  -0.010856  0  -0.082066  -0.087227  0  3.995284  0
C  C78  1  0.10629514  0.60098639  0.59317789  1  -0.007705  0  -0.013153  -0.098021  0  3.904502  0
C  C79  1  0.15869382  0.65143613  0.64912820  1  -0.076679  0  -0.015737  -0.024451  0  3.992465  0
C  C80  1  0.15358263  0.64002718  0.57788181  1  0.023863  0  0.00778  0.171954  0  3.916782  0
C  C81  1  0.11194709  0.61286449  0.66376728  1  -0.017553  0  -0.083809  -0.101332  0  3.989298  0
C  C82  1  0.17881260  0.66422986  0.60676315  1  -0.031771  0  -0.084445  -0.161103  0  3.923494  0
C  C83  1  0.08651644  0.58794488  0.63580929  1  -0.048211  0  -0.080022  -0.08506  0  3.991835  0
C  C84  1  0.30592081  0.44822127  0.40314140  1  0.520656  0  0.101099  0.251712  0  4.08218  0
C  C85  1  0.44417154  0.29407430  0.34874227  1  0.024228  0  -0.085695  -0.131269  0  3.955687  0
C  C86  1  0.25748264  0.41171603  0.41475088  1  -0.068142  0  -0.037064  -0.246709  0  3.978245  0
C  C87  1  0.49064319  0.33243908  0.33715423  1  -0.170622  0  -0.022201  -0.115683  0  3.97232  0
C  C88  1  0.37676144  0.33659458  0.37294753  1  -0.143787  0  -0.019971  0.007601  0  4.080928  0
C  C89  1  0.37395845  0.40640179  0.37926457  1  -0.09664  0  -0.0322  -0.136211  0  4.108369  0
C  C90  1  0.73217932  0.57663855  0.63492577  1  0.596627  0  0.102573  0.252293  0  4.079379  0
C  C91  1  0.53005081  0.66732226  0.62678323  1  -0.024209  0  -0.087878  -0.132509  0  3.963393  0
C  C92  1  0.74868489  0.58171070  0.59240611  1  -0.127145  0  -0.037188  -0.245887  0  3.978937  0
C  C93  1  0.51482816  0.66164000  0.66919505  1  -0.154737  0  -0.022198  -0.116602  0  3.975256  0
C  C94  1  0.60946172  0.63590701  0.61454205  1  -0.117317  0  -0.01988  0.007061  0  4.091647  0
C  C95  1  0.65302324  0.60716234  0.64812168  1  -0.108832  0  -0.031548  -0.135259  0  4.097481  0
C  C96  1  0.07894014  0.22266249  0.62806725  1  0.589341  0  0.102362  0.253485  0  4.080263  0
C  C97  1  0.17840291  0.02217798  0.62043428  1  0.070365  0  -0.08641  -0.131642  0  3.959227  0
C  C98  1  0.08842020  0.24015299  0.58561619  1  -0.125533  0  -0.036319  -0.244299  0  3.974512  0
C  C99  1  0.16786174  0.00656328  0.66282615  1  -0.218631  0  -0.022478  -0.117611  0  3.974925  0
C  C100  1  0.14561858  0.10126708  0.60786428  1  -0.118959  0  -0.019639  0.008794  0  4.080992  0
C  C101  1  0.11104638  0.14392313  0.64125703  1  -0.123838  0  -0.032222  -0.13735  0  4.108468  0
C  C102  1  0.83703272  0.80125441  0.39802555  1  0.470855  0  0.102069  0.252854  0  4.080165  0
C  C103  1  0.90195903  0.94440108  0.34763849  1  0.042565  0  -0.086271  -0.131617  0  3.958439  0
C  C104  1  0.90737429  0.75634762  0.41241978  1  -0.019331  0  -0.037206  -0.245897  0  3.979577  0
C  C105  1  0.83127077  0.98832355  0.33384887  1  -0.199547  0  -0.022399  -0.115946  0  3.975753  0
C  C106  1  0.90391247  0.87580176  0.37066428  1  -0.15618  0  -0.01928  0.008618  0  4.0872  0
C  C107  1  0.83410353  0.86942283  0.37403895  1  -0.110656  0  -0.03263  -0.137698  0  4.106225  0
C  C108  1  0.65677290  0.15484778  0.14759085  1  -0.046437  0  -0.01266  -0.096378  0  3.906791  0
C  C109  1  0.60312945  0.09739737  0.09589087  1  -0.042751  0  -0.014531  -0.023087  0  3.994981  0
C  C110  1  0.66777326  0.17467947  0.10442786  1  0.0629  0  0.008056  0.171999  0  3.917357  0
C  C111  1  0.59183019  0.07911860  0.13859117  1  -0.026894  0  -0.085797  -0.104261  0  3.993504  0
C  C112  1  0.64025078  0.14479825  0.07953766  1  -0.005727  0  -0.082833  -0.159781  0  3.921784  0
C  C113  1  0.61855832  0.10794569  0.16391115  1  -0.085012  0  -0.081447  -0.085465  0  3.995728  0
C  C114  1  0.66751722  0.52276642  0.12059873  1  0.560958  0  0.101432  0.252429  0  4.079917  0
C  C115  1  0.57616695  0.72308267  0.12903088  1  -0.002259  0  -0.086118  -0.13018  0  3.957843  0
C  C116  1  0.66068763  0.50507961  0.16310050  1  -0.086108  0  -0.03662  -0.245885  0  3.978724  0
C  C117  1  0.58395829  0.73907445  0.08661150  1  -0.124275  0  -0.021619  -0.116731  0  3.973895  0
C  C118  1  0.60650006  0.64393630  0.14124554  1  -0.20703  0  -0.019415  0.007467  0  4.083512  0
C  C119  1  0.63687784  0.60158272  0.10758399  1  -0.111161  0  -0.031467  -0.136056  0  4.105459  0
C  C120  1  0.08519231  0.11895053  0.18054871  1  0.612802  0  0.102221  0.252732  0  4.079342  0
C  C121  1  0.17385288  0.12993332  0.07614466  1  0.035853  0  -0.086575  -0.130417  0  3.958241  0
C  C122  1  0.01315483  0.16366989  0.16814646  1  -0.132189  0  -0.037187  -0.245715  0  3.977216  0
C  C123  1  0.24502186  0.08537602  0.08925102  1  -0.162969  0  -0.022525  -0.117906  0  3.974285  0
C  C124  1  0.11577280  0.14203037  0.10963978  1  -0.12829  0  -0.019243  0.008523  0  4.082552  0
C  C125  1  0.14436110  0.10604627  0.14761530  1  -0.189538  0  -0.032444  -0.137112  0  4.102425  0
C  C126  1  0.33504614  0.86034654  0.84921025  1  -0.113227  0  -0.012659  -0.095518  0  3.898792  0
C  C127  1  0.39352284  0.90928877  0.90282463  1  -0.060042  0  -0.014643  -0.023987  0  3.998765  0
C  C128  1  0.29308741  0.93476809  0.86045761  1  0.05474  0  0.007893  0.171072  0  3.916768  0
C  C129  1  0.43447495  0.83614738  0.89128257  1  0.005108  0  -0.084227  -0.101447  0  3.991993  0
C  C130  1  0.32413819  0.95724493  0.88732591  1  0.002031  0  -0.083759  -0.160557  0  3.924453  0
C  C131  1  0.40500363  0.81254250  0.86471758  1  -0.023916  0  -0.080934  -0.08556  0  3.993268  0
C  C132  1  0.40859445  0.45106384  0.85661321  1  0.541246  0  0.102184  0.252257  0  4.081566  0
C  C133  1  0.34949587  0.30021490  0.89799564  1  0.109064  0  -0.0866  -0.129948  0  3.959457  0
C  C134  1  0.34129281  0.49313521  0.83870504  1  -0.066994  0  -0.036535  -0.246424  0  3.978074  0
C  C135  1  0.41743898  0.25896438  0.91508328  1  -0.245959  0  -0.022531  -0.117508  0  3.976871  0
C  C136  1  0.34678801  0.37015684  0.87652354  1  -0.132331  0  -0.019435  0.006978  0  4.08706  0
C  C137  1  0.41287858  0.38066326  0.87811701  1  -0.154991  0  -0.031859  -0.135142  0  4.103103  0
C  C138  1  0.94621266  0.78697435  0.84982377  1  0.56715  0  0.102188  0.252826  0  4.079847  0
C  C139  1  0.80110610  0.94732807  0.89716216  1  0.055803  0  -0.086111  -0.131413  0  3.959478  0
C  C140  1  0.99001891  0.82741552  0.83376854  1  -0.07977  0  -0.036912  -0.246657  0  3.978568  0
C  C141  1  0.75830925  0.90601737  0.91272415  1  -0.188663  0  -0.022252  -0.116879  0  3.974421  0
C  C142  1  0.86950203  0.90356849  0.87415172  1  -0.16371  0  -0.019668  0.008784  0  4.087137  0
C  C143  1  0.87723708  0.82952262  0.87289189  1  -0.179138  0  -0.031401  -0.135859  0  4.100174  0
C  C144  1  0.76153146  0.52713085  0.40223201  1  -0.046845  0  -0.237953  -0.412698  0  3.974755  0
C  C145  1  0.17899031  0.65636337  0.53302958  1  -0.059355  0  -0.238784  -0.4141  0  3.976014  0
C  C146  1  0.70590680  0.22602005  0.08371967  1  -0.086088  0  -0.237427  -0.412359  0  3.971984  0
C  C147  1  0.21837294  0.99109033  0.84531457  1  -0.026587  0  -0.237976  -0.412365  0  3.976288  0
S  S148  1  0.29605880  0.32407202  0.39625541  1  0.268938  0  0.085873  0.140099  0  2.734847  0
S  S149  1  0.45347997  0.41998701  0.35552770  1  0.292736  0  0.093994  0.157419  0  2.741987  0
S  S150  1  0.66596266  0.62464531  0.56791296  1  0.267749  0  0.084301  0.13856  0  2.753924  0
S  S151  1  0.59641756  0.61824734  0.69463839  1  0.284688  0  0.097499  0.16099  0  2.727391  0
S  S152  1  0.13759329  0.15854756  0.56120859  1  0.273559  0  0.084631  0.137554  0  2.734602  0
S  S153  1  0.11826772  0.08730495  0.68783908  1  0.27662  0  0.093522  0.156977  0  2.742991  0
S  S154  1  0.97148539  0.79808180  0.39630712  1  0.275299  0  0.086967  0.141515  0  2.745826  0
S  S155  1  0.76666315  0.94696134  0.34843990  1  0.302002  0  0.092162  0.154581  0  2.735956  0
S  S156  1  0.61574904  0.58647639  0.18780367  1  0.270023  0  0.086963  0.141872  0  2.739283  0
S  S157  1  0.62791852  0.65868025  0.06111946  1  0.2926  0  0.096113  0.160486  0  2.738452  0
S  S158  1  0.01757486  0.19051919  0.11512678  1  0.287223  0  0.086937  0.141184  0  2.743222  0
S  S159  1  0.24231048  0.05770009  0.14217266  1  0.298515  0  0.094548  0.158178  0  2.734773  0
S  S160  1  0.28169514  0.44594016  0.84843897  1  0.284399  0  0.088389  0.143839  0  2.743294  0
S  S161  1  0.47848544  0.30449970  0.90548193  1  0.295931  0  0.093452  0.156399  0  2.73608  0
S  S162  1  0.94626204  0.91937524  0.84713357  1  0.285216  0  0.085743  0.139839  0  2.748726  0
S  S163  1  0.80043478  0.81390005  0.89968193  1  0.294065  0  0.096505  0.160254  0  2.730118  0
O  O164  1  0.99988314  0.49918955  0.50044886  1  -1.220783  0  -0.571624  -1.030203  0  2.531859  0
O  O165  1  0.07801861  0.31481080  0.52172646  1  -1.148836  0  -0.321657  -0.548622  0  2.315713  0
O  O166  1  0.04716844  0.52453089  0.58324727  1  -1.169355  0  -0.315108  -0.549445  0  2.340516  0
O  O167  1  0.15692000  0.50191303  0.45204851  1  -1.163492  0  -0.316684  -0.539622  0  2.327949  0
O  O168  1  0.02973286  0.37280333  0.58029288  1  -1.160435  0  -0.314643  -0.535954  0  2.326639  0
O  O169  1  0.14843696  0.39319884  0.44426638  1  -1.148319  0  -0.321034  -0.548521  0  2.314662  0
O  O170  1  0.07874731  0.59604556  0.52751202  1  -1.173345  0  -0.306598  -0.537342  0  2.372158  0
O  O171  1  0.00283096  0.65273576  0.44495481  1  -1.167102  0  -0.320815  -0.547002  0  2.325511  0
O  O172  1  0.88297787  0.50193164  0.44177219  1  -1.16938  0  -0.305368  -0.533956  0  2.376455  0
O  O173  1  0.88325438  0.65554220  0.45181550  1  -1.15624  0  -0.315053  -0.53485  0  2.320649  0
O  O174  1  0.98755570  0.38914107  0.44346253  1  -1.174919  0  -0.316481  -0.5524  0  2.343331  0
O  O175  1  0.88291389  0.52839027  0.58471981  1  -1.152041  0  -0.31256  -0.532087  0  2.314523  0
O  O176  1  0.81852668  0.56759996  0.52789825  1  -1.153585  0  -0.322657  -0.55109  0  2.335068  0
O  O177  1  0.75010617  0.24794760  0.25057768  1  -1.239124  0  -0.571175  -1.029139  0  2.531646  0
O  O178  1  0.59601567  0.35465006  0.30387151  1  -1.181574  0  -0.318836  -0.546719  0  2.33795  0
O  O179  1  0.65847085  0.17267920  0.21554995  1  -1.167863  0  -0.317243  -0.551878  0  2.34286  0
O  O180  1  0.72086696  0.37222869  0.16891227  1  -1.156549  0  -0.315554  -0.537505  0  2.326648  0
O  O181  1  0.59102296  0.24292258  0.29899685  1  -1.170797  0  -0.314769  -0.534885  0  2.308402  0
O  O182  1  0.67123606  0.43134266  0.22706809  1  -1.169133  0  -0.32013  -0.545704  0  2.325256  0
O  O183  1  0.73306987  0.20965503  0.16381338  1  -1.171811  0  -0.306627  -0.535649  0  2.375306  0
O  O184  1  0.88098961  0.22897290  0.17221734  1  -1.170286  0  -0.321452  -0.54769  0  2.328553  0
O  O185  1  0.85997333  0.25131219  0.31190903  1  -1.165053  0  -0.314327  -0.546786  0  2.329462  0
O  O186  1  0.93611061  0.16963446  0.23150861  1  -1.134877  0  -0.314594  -0.536078  0  2.316677  0
O  O187  1  0.75185633  0.36150022  0.30832559  1  -1.1742  0  -0.314975  -0.545658  0  2.349004  0
O  O188  1  0.74106575  0.09201806  0.29730116  1  -1.171902  0  -0.319441  -0.546859  0  2.331329  0
O  O189  1  0.85480176  0.09398031  0.30307623  1  -1.153272  0  -0.314351  -0.536134  0  2.314312  0
O  O190  1  0.25136905  0.74875720  0.75047103  1  -1.231064  0  -0.570901  -1.029148  0  2.52939  0
O  O191  1  0.38165486  0.72136398  0.67228898  1  -1.176027  0  -0.316951  -0.540951  0  2.317066  0
O  O192  1  0.35752759  0.76553207  0.80838367  1  -1.181315  0  -0.315354  -0.549921  0  2.352452  0
O  O193  1  0.17435294  0.93180572  0.72660774  1  -1.165612  0  -0.319474  -0.547307  0  2.337481  0
O  O194  1  0.43710531  0.67520248  0.73221189  1  -1.138275  0  -0.31677  -0.541525  0  2.328945  0
O  O195  1  0.22978499  0.87353136  0.66847701  1  -1.174183  0  -0.315582  -0.537541  0  2.308223  0
O  O196  1  0.24079162  0.86511347  0.81146919  1  -1.166121  0  -0.306191  -0.534615  0  2.371201  0
O  O197  1  0.09058040  0.85475023  0.79846843  1  -1.168211  0  -0.322862  -0.5498  0  2.330929  0
O  O198  1  0.17027596  0.66147328  0.71686998  1  -1.167042  0  -0.312853  -0.545575  0  2.336339  0
O  O199  1  0.09653544  0.73601180  0.79957330  1  -1.162868  0  -0.313698  -0.534284  0  2.314447  0
O  O200  1  0.22615101  0.71703785  0.66304812  1  -1.164828  0  -0.315372  -0.546718  0  2.341761  0
O  O201  1  0.35890887  0.60278745  0.80855176  1  -1.14035  0  -0.314501  -0.536619  0  2.316845  0
O  O202  1  0.25242662  0.59019275  0.79914006  1  -1.172268  0  -0.32019  -0.548059  0  2.325806  0
O  O203  1  0.50103494  0.99857703  0.00039430  1  -1.22173  0  -0.570483  -1.029429  0  2.527274  0
O  O204  1  0.50878622  0.15440749  0.95035471  1  -1.169  0  -0.318952  -0.545899  0  2.336086  0
O  O205  1  0.38184300  0.00104610  0.94319071  1  -1.169725  0  -0.31521  -0.546686  0  2.340338  0
O  O206  1  0.65268699  0.88573272  0.94799610  1  -1.164971  0  -0.318562  -0.544569  0  2.328147  0
O  O207  1  0.39342449  0.15385748  0.94712751  1  -1.164668  0  -0.315959  -0.538235  0  2.312  0
O  O208  1  0.65686904  0.99994154  0.94745201  1  -1.17362  0  -0.316211  -0.540143  0  2.315964  0
O  O209  1  0.49020424  0.89098535  0.94209994  1  -1.180772  0  -0.313792  -0.545591  0  2.344209  0
O  O210  1  0.57169510  0.81488421  0.02305367  1  -1.159729  0  -0.318441  -0.546004  0  2.336799  0
O  O211  1  0.53624184  0.02916055  0.08484669  1  -1.167817  0  -0.314809  -0.548071  0  2.338571  0
O  O212  1  0.52998481  0.87198844  0.08191247  1  -1.165061  0  -0.315442  -0.536744  0  2.307767  0
O  O213  1  0.59288285  0.08044303  0.02928394  1  -1.16966  0  -0.315212  -0.545314  0  2.341479  0
O  O214  1  0.31778193  0.08153472  0.02480951  1  -1.179286  0  -0.315844  -0.53892  0  2.310359  0
O  O215  1  0.37826809  0.02119639  0.08241960  1  -1.174347  0  -0.31925  -0.546674  0  2.330461  0
F  F216  1  0.29094595  0.51665904  0.41300501  1  -0.62009  0  -0.088695  -0.106916  0  1.35019  0
F  F217  1  0.78507111  0.54597633  0.66142234  1  -0.633164  0  -0.087061  -0.104189  0  1.347435  0
F  F218  1  0.04294331  0.27416057  0.65468268  1  -0.618229  0  -0.087086  -0.10422  0  1.34901  0
F  F219  1  0.77697939  0.78293103  0.40565463  1  -0.617501  0  -0.089306  -0.107411  0  1.347541  0
F  F220  1  0.69974876  0.47118951  0.09385367  1  -0.624049  0  -0.088492  -0.107015  0  1.3491  0
F  F221  1  0.09874047  0.09005145  0.21968052  1  -0.61866  0  -0.088675  -0.106211  0  1.346715  0
F  F222  1  0.46503285  0.47350299  0.85395892  1  -0.620594  0  -0.08802  -0.105297  0  1.347505  0
F  F223  1  0.96616588  0.71471080  0.84438289  1  -0.615962  0  -0.08728  -0.104685  0  1.346781  0
