# generated using pymatgen
data_CuH24C22(NO)6
_symmetry_space_group_name_H-M   'P 1'
_cell_length_a   8.48217241
_cell_length_b   11.99314072
_cell_length_c   12.00850586
_cell_angle_alpha   112.02525710
_cell_angle_beta   89.99991806
_cell_angle_gamma   90.00013713
_symmetry_Int_Tables_number   1
_chemical_formula_structural   CuH24C22(NO)6
_chemical_formula_sum   'Cu2 H48 C44 N12 O12'
_cell_volume   1132.44589518
_cell_formula_units_Z   2
loop_
 _symmetry_equiv_pos_site_id
 _symmetry_equiv_pos_as_xyz
  1  'x, y, z'
loop_
 _atom_site_type_symbol
 _atom_site_label
 _atom_site_symmetry_multiplicity
 _atom_site_fract_x
 _atom_site_fract_y
 _atom_site_fract_z
 _atom_site_occupancy
 _atom_site_pbe_bader_charge
 _atom_site_pbe_bader_spin_density
 _atom_site_pbe_cm5_charge
 _atom_site_pbe_ddec_charge
 _atom_site_pbe_ddec_spin_density
 _atom_site_pbe_ddec_sum_bond_order
 _atom_site_pbe_magmom
Cu  Cu0  1  0.99999983  0.49999997  0.99999937  1  1.089467  -0.588476  0.734258  0.785544  -0.746902  2.236653  -0.587
Cu  Cu1  1  0.49999960  0.50000081  0.49999992  1  1.089431  -0.588477  0.734282  0.785603  -0.746902  2.236517  -0.587
H  H2  1  0.05462651  0.57859317  0.79312852  1  0.633216  7.7e-05  0.276406  0.368935  6e-05  0.978739  0.0
H  H3  1  0.55462796  0.42140679  0.70687290  1  0.633219  7.7e-05  0.276399  0.368928  6e-05  0.978751  0.0
H  H4  1  0.94537388  0.42140575  0.20687114  1  0.633223  7.7e-05  0.276402  0.368922  6e-05  0.97876  0.0
H  H5  1  0.44537125  0.57859393  0.29312827  1  0.63309  7.7e-05  0.276445  0.368957  6e-05  0.978676  0.0
H  H6  1  0.88606081  0.52571538  0.81252972  1  0.62016  -1.9e-05  0.272275  0.352039  0.00013  1.007926  0.0
H  H7  1  0.38606276  0.47428420  0.68747039  1  0.620163  -1.9e-05  0.27226  0.352033  0.00013  1.007941  0.0
H  H8  1  0.11393958  0.47428445  0.18747028  1  0.620151  -1.9e-05  0.272289  0.352078  0.00013  1.007862  0.0
H  H9  1  0.61393645  0.52571563  0.31252961  1  0.620169  -1.9e-05  0.272255  0.352036  0.00013  1.007931  0.0
H  H10  1  0.20822957  0.40698652  0.78276400  1  0.123726  -0.002064  0.118671  0.090185  -0.000948  1.03427  -0.002
H  H11  1  0.70822922  0.59301548  0.71723720  1  0.123737  -0.002063  0.118668  0.090177  -0.000948  1.034267  -0.002
H  H12  1  0.79177200  0.59301331  0.21723600  1  0.123727  -0.002064  0.118667  0.090179  -0.000948  1.034255  -0.002
H  H13  1  0.29176999  0.40698524  0.28276397  1  0.123724  -0.002064  0.118663  0.090162  -0.000948  1.034296  -0.002
H  H14  1  0.92942879  0.25249922  0.96879144  1  0.13207  -0.001964  0.113833  0.088812  -0.000888  1.040865  -0.002
H  H15  1  0.42942845  0.74750222  0.53121016  1  0.13209  -0.001965  0.113828  0.088805  -0.000889  1.040846  -0.002
H  H16  1  0.07057160  0.74750151  0.03120890  1  0.132073  -0.001964  0.113835  0.088822  -0.000888  1.040855  -0.002
H  H17  1  0.57057194  0.25250030  0.46879086  1  0.132075  -0.001965  0.113823  0.088804  -0.000889  1.040861  -0.002
H  H18  1  0.27476188  0.21031541  0.62732622  1  0.093973  -0.001076  0.109686  0.123753  -0.000554  1.000635  -0.001
H  H19  1  0.77476187  0.78968579  0.87267711  1  0.094055  -0.001076  0.109722  0.123785  -0.000554  1.000564  -0.001
H  H20  1  0.72523851  0.78968532  0.37267412  1  0.093972  -0.001076  0.109692  0.123776  -0.000554  1.000607  -0.001
H  H21  1  0.22523734  0.21031493  0.12732489  1  0.093971  -0.001076  0.109699  0.123767  -0.000554  1.000589  -0.001
H  H22  1  0.97274534  0.04683197  0.81462436  1  0.091797  -0.001041  0.105877  0.113167  -0.000529  1.032741  -0.001
H  H23  1  0.47274773  0.95316953  0.68537722  1  0.09184  -0.001041  0.105887  0.113193  -0.000529  1.0327  -0.001
H  H24  1  0.02725387  0.95316965  0.18537632  1  0.091663  -0.001041  0.105873  0.11318  -0.000529  1.032721  -0.001
H  H25  1  0.52725384  0.04683119  0.31462312  1  0.091854  -0.001041  0.105888  0.113182  -0.000529  1.032721  -0.001
H  H26  1  0.30469978  0.00648905  0.46727753  1  0.099793  -4.6e-05  0.107258  0.136459  -3.1e-05  1.016567  0.0
H  H27  1  0.80469998  0.99351221  0.03272428  1  0.099723  -4.6e-05  0.107268  0.136468  -3.1e-05  1.016667  0.0
H  H28  1  0.69530061  0.99350988  0.53272213  1  0.099769  -4.6e-05  0.107247  0.136437  -3.1e-05  1.016568  0.0
H  H29  1  0.19530041  0.00648851  0.96727606  1  0.099749  -4.6e-05  0.107258  0.136449  -3.1e-05  1.016546  0.0
H  H30  1  0.23284222  0.76431107  0.35961695  1  0.174823  1.9e-05  0.12405  0.130917  2.6e-05  1.017309  0.0
H  H31  1  0.73283964  0.23568738  0.14038387  1  0.174827  1.9e-05  0.124028  0.130873  2.6e-05  1.017446  0.0
H  H32  1  0.76715581  0.23568786  0.64038271  1  0.174584  1.9e-05  0.124047  0.130906  2.6e-05  1.017329  0.0
H  H33  1  0.26715721  0.76431154  0.85961579  1  0.174577  1.9e-05  0.12404  0.130909  2.6e-05  1.017339  0.0
H  H34  1  0.06672528  0.62350653  0.41449520  1  0.101517  -0.000307  0.116382  0.102181  -0.000236  0.991381  0.0
H  H35  1  0.56672565  0.37649257  0.08550520  1  0.101544  -0.000307  0.116386  0.102165  -0.000236  0.991381  0.0
H  H36  1  0.93327393  0.37649329  0.58550480  1  0.101524  -0.000307  0.116392  0.102176  -0.000236  0.991393  0.0
H  H37  1  0.43327474  0.62350636  0.91449446  1  0.101528  -0.000307  0.116401  0.102205  -0.000236  0.991335  0.0
H  H38  1  0.89047540  0.70023869  0.48161997  1  0.075499  5.6e-05  0.111944  0.097235  8.3e-05  0.973775  0.0
H  H39  1  0.39047711  0.29976000  0.01838079  1  0.075514  5.6e-05  0.111953  0.097243  8.3e-05  0.973777  0.0
H  H40  1  0.10952263  0.29976113  0.51838003  1  0.075518  5.6e-05  0.11195  0.097268  8.3e-05  0.973772  0.0
H  H41  1  0.60952328  0.70023982  0.98161921  1  0.07551  5.6e-05  0.111955  0.09725  8.3e-05  0.973772  0.0
H  H42  1  0.94073108  0.58436556  0.59826818  1  0.071908  2e-06  0.106265  0.129219  8.7e-05  1.015023  0.0
H  H43  1  0.44073122  0.41563320  0.90173323  1  0.071949  2e-06  0.10628  0.129237  8.7e-05  1.015005  0.0
H  H44  1  0.05926813  0.41563427  0.40173265  1  0.071936  2e-06  0.10627  0.129216  8.7e-05  1.015019  0.0
H  H45  1  0.55926917  0.58436663  0.09826677  1  0.07195  2e-06  0.10627  0.129221  8.7e-05  1.015023  0.0
H  H46  1  0.01668965  0.72508106  0.68714145  1  0.094742  -0.001428  0.107438  0.128651  -0.000703  1.001235  -0.001
H  H47  1  0.51668567  0.27491795  0.81285882  1  0.094721  -0.001429  0.107419  0.128623  -0.000703  1.001272  -0.001
H  H48  1  0.98331428  0.27491877  0.31285855  1  0.094741  -0.001428  0.107426  0.12864  -0.000703  1.001244  -0.001
H  H49  1  0.48331354  0.72508188  0.18714118  1  0.09475  -0.001429  0.107423  0.12864  -0.000703  1.001239  -0.001
C  C50  1  0.15965107  0.32487388  0.78733346  1  0.434874  0.000446  0.043879  0.090841  0.000898  3.954044  0.0
C  C51  1  0.65965336  0.67512625  0.71266792  1  0.4345  0.000447  0.043818  0.090785  0.000898  3.953816  0.0
C  C52  1  0.84034814  0.67512595  0.21266571  1  0.434977  0.000446  0.043859  0.090833  0.000898  3.953947  0.0
C  C53  1  0.34034703  0.32487538  0.28733359  1  0.434884  0.000447  0.043809  0.090806  0.000898  3.953794  0.0
C  C54  1  0.00244227  0.23816431  0.89028964  1  0.442841  0.00056  0.037698  0.093224  0.000991  3.950323  0.0
C  C55  1  0.50244389  0.76183648  0.60971215  1  0.442856  0.00056  0.037726  0.0932  0.000991  3.950416  0.0
C  C56  1  0.99755812  0.76183732  0.10971104  1  0.442818  0.00056  0.037704  0.093216  0.000991  3.950323  0.0
C  C57  1  0.49755768  0.23816604  0.39028970  1  0.442858  0.00056  0.03769  0.093188  0.000991  3.950366  0.0
C  C58  1  0.19504638  0.21337246  0.69956632  1  -0.001777  -0.006171  -0.082727  -0.171663  -0.004134  3.923587  -0.005
C  C59  1  0.69504416  0.78663042  0.80043439  1  -0.002091  -0.006171  -0.082752  -0.171737  -0.004133  3.923729  -0.005
C  C60  1  0.80495401  0.78662736  0.30043368  1  -0.001875  -0.006171  -0.082751  -0.171692  -0.004134  3.923606  -0.005
C  C61  1  0.30495387  0.21337030  0.19956595  1  -0.001824  -0.006171  -0.082734  -0.171725  -0.004134  3.923614  -0.005
C  C62  1  0.02918060  0.12435389  0.80529289  1  0.011949  -0.005769  -0.084559  -0.172859  -0.003831  3.939914  -0.005
C  C63  1  0.52918125  0.87564784  0.69470756  1  0.011913  -0.00577  -0.084555  -0.172846  -0.003832  3.939756  -0.005
C  C64  1  0.97081861  0.87564594  0.19470711  1  0.012076  -0.005768  -0.084579  -0.172883  -0.00383  3.939967  -0.005
C  C65  1  0.47081914  0.12435288  0.30529278  1  0.011925  -0.00577  -0.084539  -0.172811  -0.003832  3.939796  -0.005
C  C66  1  0.12546733  0.10938754  0.70515323  1  -9.5e-05  0.00349  0.018549  0.107299  0.003941  3.997707  0.002
C  C67  1  0.62547136  0.89061163  0.79484949  1  3.2e-05  0.00349  0.018534  0.107302  0.00394  3.997756  0.002
C  C68  1  0.87453424  0.89061229  0.29484677  1  -0.00011  0.00349  0.018553  0.107214  0.003941  3.997732  0.002
C  C69  1  0.37453139  0.10938909  0.20515251  1  -0.000123  0.00349  0.018564  0.107303  0.00394  3.997739  0.002
C  C70  1  0.14385807  0.99076577  0.61089956  1  0.477997  -0.000484  0.087082  0.120008  -0.000262  4.085372  0.0
C  C71  1  0.64386129  0.00923524  0.88910050  1  0.478431  -0.000484  0.087151  0.120155  -0.000262  4.085149  0.0
C  C72  1  0.85613996  0.00923316  0.38910010  1  0.47798  -0.000484  0.08717  0.120242  -0.000262  4.085142  0.0
C  C73  1  0.35614028  0.99076549  0.11089984  1  0.478416  -0.000484  0.087142  0.120143  -0.000262  4.085256  0.0
C  C74  1  0.23018977  0.95316941  0.50162339  1  -0.04907  0.00049  -0.112183  -0.246743  0.000538  3.990213  0.0
C  C75  1  0.73019644  0.04682542  0.99837759  1  -0.049183  0.00049  -0.112179  -0.246765  0.000538  3.989647  0.0
C  C76  1  0.76980826  0.04682952  0.49837544  1  -0.049093  0.00049  -0.112195  -0.246803  0.000538  3.990211  0.0
C  C77  1  0.26980749  0.95316990  0.00162321  1  -0.049084  0.00049  -0.112153  -0.246712  0.000538  3.990073  0.0
C  C78  1  0.19572793  0.83192719  0.44478575  1  0.267933  -0.000154  0.016679  -0.069958  -6e-05  3.912309  0.0
C  C79  1  0.69572766  0.16807839  0.05522114  1  0.268064  -0.000154  0.016661  -0.06991  -6e-05  3.911816  0.0
C  C80  1  0.80427128  0.16807264  0.55521425  1  0.268234  -0.000154  0.0167  -0.069883  -6e-05  3.912225  0.0
C  C81  1  0.30427155  0.83192772  0.94478540  1  0.268226  -0.000154  0.016667  -0.069975  -6e-05  3.912287  0.0
C  C82  1  0.01614157  0.68905009  0.49700832  1  0.283324  -0.000334  -0.050854  -0.066779  -0.000194  3.881116  0.0
C  C83  1  0.51614188  0.31094894  0.00299210  1  0.283188  -0.000334  -0.050888  -0.066785  -0.000194  3.881145  0.0
C  C84  1  0.98385764  0.31094974  0.50299168  1  0.283338  -0.000334  -0.050844  -0.066778  -0.000194  3.881143  0.0
C  C85  1  0.48385851  0.68905089  0.99700790  1  0.283318  -0.000334  -0.050875  -0.066802  -0.000195  3.881055  0.0
C  C86  1  0.03491843  0.64867231  0.60213930  1  -0.05415  -0.010198  -0.16805  -0.339269  -0.007022  3.926547  -0.008
C  C87  1  0.53491807  0.35132583  0.89785979  1  -0.054161  -0.010196  -0.168039  -0.339226  -0.00702  3.926515  -0.008
C  C88  1  0.96508078  0.35132751  0.39786070  1  -0.054199  -0.010197  -0.168054  -0.339257  -0.007021  3.926577  -0.008
C  C89  1  0.46508232  0.64867310  0.10213904  1  -0.054214  -0.010196  -0.168048  -0.33927  -0.007021  3.926569  -0.008
C  C90  1  0.19134641  0.58897448  0.60755559  1  1.559455  0.000349  0.213617  0.628899  0.000745  4.130217  0.002
C  C91  1  0.69134626  0.41102301  0.89243894  1  1.55947  0.000349  0.213602  0.628924  0.000744  4.130249  0.002
C  C92  1  0.80865398  0.41102445  0.39244158  1  1.559427  0.000348  0.213586  0.628863  0.000745  4.130252  0.002
C  C93  1  0.30865531  0.58897591  0.10756155  1  1.55942  0.000349  0.213586  0.62894  0.000745  4.130282  0.002
N  N94  1  0.06382059  0.33804511  0.88063431  1  -1.214214  -0.086742  -0.355742  -0.240491  -0.056954  3.614116  -0.075
N  N95  1  0.56381949  0.66195668  0.61936530  1  -1.213792  -0.086744  -0.355685  -0.240378  -0.056955  3.613911  -0.075
N  N96  1  0.93617862  0.66195562  0.11936520  1  -1.21419  -0.086742  -0.355682  -0.24041  -0.056954  3.613937  -0.075
N  N97  1  0.43617972  0.33804405  0.38063504  1  -1.214237  -0.086745  -0.35568  -0.240421  -0.056956  3.614005  -0.075
N  N98  1  0.06216539  0.89757823  0.61960198  1  -0.634649  0.000455  -0.226067  -0.289247  0.000555  3.121964  0.0
N  N99  1  0.56217130  0.10242085  0.88039827  1  -0.634993  0.000455  -0.226144  -0.289328  0.000554  3.122006  0.0
N  N100  1  0.93783382  0.10242069  0.38039768  1  -0.634625  0.000455  -0.22616  -0.289389  0.000554  3.121809  0.0
N  N101  1  0.43783263  0.89757988  0.11960124  1  -0.635013  0.000455  -0.226134  -0.289335  0.000554  3.122014  0.0
N  N102  1  0.09545515  0.80334612  0.51895944  1  -0.773708  0.000581  -0.136255  0.200243  0.000657  3.759671  0.0
N  N103  1  0.59545646  0.19665301  0.98103996  1  -0.77362  0.00058  -0.136208  0.200207  0.000657  3.75963  0.0
N  N104  1  0.90454406  0.19665370  0.48104056  1  -0.773739  0.00058  -0.136262  0.200204  0.000657  3.759662  0.0
N  N105  1  0.40454393  0.80334682  0.01895838  1  -0.773738  0.00058  -0.136268  0.200211  0.000657  3.759628  0.0
O  O106  1  0.77581633  0.44366409  0.98746405  1  -1.137434  -0.09358  -0.317696  -0.539376  -0.059409  2.377616  -0.086
O  O107  1  0.27581419  0.55633532  0.51253694  1  -1.137502  -0.093572  -0.317732  -0.539369  -0.059403  2.377694  -0.086
O  O108  1  0.22418406  0.55633665  0.01253296  1  -1.137194  -0.0936  -0.317677  -0.539397  -0.059421  2.377497  -0.086
O  O109  1  0.72418384  0.44366361  0.48746356  1  -1.137409  -0.093586  -0.317654  -0.539296  -0.059412  2.377651  -0.086
O  O110  1  0.96248352  0.59233795  0.84728799  1  -1.277375  0.000613  -0.609391  -0.797696  0.000826  2.053965  0.0
O  O111  1  0.46248178  0.40766174  0.65271375  1  -1.277382  0.000611  -0.609377  -0.797722  0.000825  2.053953  0.0
O  O112  1  0.03751569  0.40766098  0.15271167  1  -1.277385  0.000613  -0.6094  -0.797724  0.000827  2.053934  0.0
O  O113  1  0.53751743  0.59233808  0.34728791  1  -1.277252  0.000611  -0.60941  -0.797728  0.000826  2.053992  0.0
O  O114  1  0.22549909  0.57336494  0.70368736  1  -1.193805  -0.001517  -0.311181  -0.560813  -0.000327  2.204185  -0.002
O  O115  1  0.72549802  0.42663259  0.79631297  1  -1.193855  -0.001515  -0.311193  -0.560798  -0.000325  2.20436  -0.002
O  O116  1  0.77450012  0.42663219  0.29631162  1  -1.193838  -0.001516  -0.311219  -0.56082  -0.000326  2.20422  -0.002
O  O117  1  0.27450237  0.57336725  0.20368287  1  -1.194061  -0.001514  -0.311181  -0.560794  -0.000324  2.20452  -0.002
