# generated using pymatgen
data_Ag2H6C7SO7
_symmetry_space_group_name_H-M   'P 1'
_cell_length_a   7.35332927
_cell_length_b   8.33318294
_cell_length_c   16.27165080
_cell_angle_alpha   89.99949354
_cell_angle_beta   90.00027355
_cell_angle_gamma   92.18424677
_symmetry_Int_Tables_number   1
_chemical_formula_structural   Ag2H6C7SO7
_chemical_formula_sum   'Ag8 H24 C28 S4 O28'
_cell_volume   996.34761616
_cell_formula_units_Z   4
loop_
 _symmetry_equiv_pos_site_id
 _symmetry_equiv_pos_as_xyz
  1  'x, y, z'
loop_
 _atom_site_type_symbol
 _atom_site_label
 _atom_site_symmetry_multiplicity
 _atom_site_fract_x
 _atom_site_fract_y
 _atom_site_fract_z
 _atom_site_occupancy
 _atom_site_hle17_bader_spin_density
 _atom_site_hle17_ddec_charge
 _atom_site_hle17_ddec_spin_density
 _atom_site_hle17_ddec_sum_bond_order
 _atom_site_hle17_magmom
 _atom_site_hse06_10hf_bader_spin_density
 _atom_site_hse06_10hf_ddec_charge
 _atom_site_hse06_10hf_ddec_spin_density
 _atom_site_hse06_10hf_ddec_sum_bond_order
 _atom_site_hse06_10hf_magmom
 _atom_site_hse06_bader_spin_density
 _atom_site_hse06_ddec_charge
 _atom_site_hse06_ddec_spin_density
 _atom_site_hse06_ddec_sum_bond_order
 _atom_site_hse06_magmom
 _atom_site_pbe_bader_spin_density
 _atom_site_pbe_cm5_charge
 _atom_site_pbe_ddec_charge
 _atom_site_pbe_ddec_spin_density
 _atom_site_pbe_ddec_sum_bond_order
 _atom_site_pbe_magmom
Ag  Ag0  1  0.24999858  0.25000125  0.51137745  1  0  0.769965  0  1.052504  0  0  0.670652  0  1.446311  0  0  0.70071  0  1.393331  0  0  0.451192  0.648183  0  1.484001  0
Ag  Ag1  1  0.75000223  0.74999934  0.48862256  1  0  0.769941  0  1.052546  0  0  0.670647  0  1.446334  0  0  0.700708  0  1.393353  0  0  0.451191  0.648177  0  1.484023  0
Ag  Ag2  1  0.25000470  0.74999826  0.51552033  1  0  0.751882  0  1.117202  0  0  0.656533  0  1.518629  0  0  0.68608  0  1.465086  0  0  0.447248  0.634634  0  1.556647  0
Ag  Ag3  1  0.75000149  0.25000111  0.48447967  1  0  0.751956  0  1.117156  0  0  0.656584  0  1.518592  0  0  0.686132  0  1.465049  0  0  0.447259  0.634685  0  1.556608  0
Ag  Ag4  1  0.74999109  0.24999982  0.07438361  1  0  0.602034  0  1.24876  0  0  0.460416  0  1.695317  0  0  0.501838  0  1.632931  0  0  0.397962  0.430941  0  1.738667  0
Ag  Ag5  1  0.25000564  0.75000079  0.92561824  1  0  0.602062  0  1.248716  0  0  0.460439  0  1.695278  0  0  0.501861  0  1.632895  0  0  0.397995  0.430963  0  1.738628  0
Ag  Ag6  1  0.75000557  0.24999953  0.24204699  1  0  0.596021  0  1.545326  0  0  0.493593  0  2.023493  0  0  0.521943  0  1.963117  0  0  0.444347  0.474083  0  2.065012  0
Ag  Ag7  1  0.24999797  0.75000104  0.75795425  1  0  0.595988  0  1.545312  0  0  0.493561  0  2.023483  0  0  0.521911  0  1.963106  0  0  0.444339  0.474052  0  2.065002  0
H  H8  1  0.95203290  0.86060665  0.04032014  1  0  0.392525  0  0.884096  0  0  0.364233  0  0.956054  0  0  0.376935  0  0.942793  0  0  0.302703  0.355318  0  0.965185  0
H  H9  1  0.54796548  0.63939244  0.04032511  1  0  0.392528  0  0.884118  0  0  0.364236  0  0.956075  0  0  0.376938  0  0.942816  0  0  0.30271  0.355322  0  0.965206  0
H  H10  1  0.04795710  0.13939519  0.95968110  1  0  0.392556  0  0.884081  0  0  0.364253  0  0.956055  0  0  0.376957  0  0.942794  0  0  0.302731  0.355339  0  0.965186  0
H  H11  1  0.45203670  0.36060814  0.95967489  1  0  0.392533  0  0.884121  0  0  0.364241  0  0.956081  0  0  0.376945  0  0.94282  0  0  0.302715  0.355327  0  0.965213  0
H  H12  1  0.51965470  0.50245589  0.58612066  1  0  0.434526  0  0.864962  0  0  0.405872  0  0.926219  0  0  0.415606  0  0.911882  0  0  0.294794  0.398952  0  0.936404  0
H  H13  1  0.98034552  0.99754597  0.58612066  1  0  0.434554  0  0.864924  0  0  0.405894  0  0.926191  0  0  0.415627  0  0.911857  0  0  0.294797  0.398973  0  0.936377  0
H  H14  1  0.48034470  0.49754351  0.41387935  1  0  0.434525  0  0.864967  0  0  0.405867  0  0.92623  0  0  0.415597  0  0.9119  0  0  0.294789  0.398945  0  0.936419  0
H  H15  1  0.01965666  0.00245461  0.41387996  1  0  0.434527  0  0.864958  0  0  0.405865  0  0.926226  0  0  0.415598  0  0.911892  0  0  0.294777  0.398942  0  0.936416  0
H  H16  1  0.33411834  0.50580609  0.63109069  1  0  0.426268  0  0.844085  0  0  0.399201  0  0.914616  0  0  0.408202  0  0.904499  0  0  0.301673  0.392745  0  0.921889  0
H  H17  1  0.16588558  0.99419210  0.63109002  1  0  0.426283  0  0.844082  0  0  0.399202  0  0.914612  0  0  0.408202  0  0.904496  0  0  0.301694  0.39275  0  0.921871  0
H  H18  1  0.66588242  0.49419330  0.36890993  1  0  0.42626  0  0.844107  0  0  0.399189  0  0.914648  0  0  0.40819  0  0.904531  0  0  0.301681  0.392735  0  0.921914  0
H  H19  1  0.83411790  0.00580728  0.36890999  1  0  0.42628  0  0.844081  0  0  0.39921  0  0.914617  0  0  0.40821  0  0.904503  0  0  0.30169  0.392755  0  0.921885  0
H  H20  1  0.97358874  0.79279080  0.31012515  1  0  0.112879  0  0.968723  0  0  0.120003  0  1.036118  0  0  0.124144  0  1.03199  0  0  0.110261  0.116922  0  1.039245  0
H  H21  1  0.52641109  0.70720732  0.31012854  1  0  0.112915  0  0.968599  0  0  0.120052  0  1.035988  0  0  0.124195  0  1.031857  0  0  0.110308  0.116972  0  1.039116  0
H  H22  1  0.02641338  0.20720858  0.68987486  1  0  0.112894  0  0.968691  0  0  0.120016  0  1.036082  0  0  0.124158  0  1.031954  0  0  0.110279  0.116935  0  1.039211  0
H  H23  1  0.47359233  0.29279085  0.68987208  1  0  0.112888  0  0.968628  0  0  0.120022  0  1.036032  0  0  0.124164  0  1.031902  0  0  0.110303  0.116941  0  1.039161  0
H  H24  1  0.17028303  0.35724018  0.20663852  1  0  0.102008  0  0.93807  0  0  0.11537  0  0.994402  0  0  0.118221  0  0.991544  0  0  0.109159  0.113215  0  0.996638  0
H  H25  1  0.32972447  0.14276141  0.20663979  1  0  0.102053  0  0.938067  0  0  0.115414  0  0.994396  0  0  0.118263  0  0.991544  0  0  0.109175  0.113262  0  0.996626  0
H  H26  1  0.82971927  0.64276280  0.79335841  1  0  0.101992  0  0.938048  0  0  0.115353  0  0.994387  0  0  0.118202  0  0.991533  0  0  0.10916  0.113201  0  0.996617  0
H  H27  1  0.67028179  0.85723915  0.79336083  1  0  0.102022  0  0.938052  0  0  0.115381  0  0.994389  0  0  0.118232  0  0.991533  0  0  0.109158  0.113227  0  0.996623  0
H  H28  1  0.12862978  0.46751189  0.06529547  1  0  0.125307  0  0.943672  0  0  0.135614  0  1.001667  0  0  0.13977  0  0.999524  0  0  0.10666  0.132619  0  1.003427  0
H  H29  1  0.37137078  0.03248973  0.06529672  1  0  0.125337  0  0.943648  0  0  0.135651  0  1.001631  0  0  0.139805  0  0.999491  0  0  0.106684  0.132649  0  1.003398  0
H  H30  1  0.87136572  0.53249113  0.93470331  1  0  0.125312  0  0.943705  0  0  0.13561  0  1.001695  0  0  0.139766  0  0.999553  0  0  0.106669  0.132608  0  1.003461  0
H  H31  1  0.62863128  0.96750845  0.93470391  1  0  0.125296  0  0.943707  0  0  0.135597  0  1.001701  0  0  0.139752  0  0.99956  0  0  0.106661  0.132585  0  1.003477  0
C  C32  1  0.98179878  0.78492108  0.17808325  1  0  -0.203415  0  3.753369  0  0  -0.183126  0  3.993431  0  0  -0.198472  0  4.017281  0  0  -0.035524  -0.173225  0  3.977558  0
C  C33  1  0.51819568  0.71507930  0.17808659  1  0  -0.203447  0  3.753381  0  0  -0.183173  0  3.993508  0  0  -0.198522  0  4.017358  0  0  -0.035593  -0.173271  0  3.977638  0
C  C34  1  0.01819252  0.21507955  0.82191737  1  0  -0.203477  0  3.75336  0  0  -0.183119  0  3.993331  0  0  -0.198465  0  4.017182  0  0  -0.035524  -0.173217  0  3.977461  0
C  C35  1  0.48180643  0.28492008  0.82191403  1  0  -0.203587  0  3.753404  0  0  -0.1832  0  3.993418  0  0  -0.198549  0  4.017268  0  0  -0.035579  -0.173296  0  3.977547  0
C  C36  1  0.00741352  0.72177093  0.25664351  1  0  -0.014711  0  3.709926  0  0  -0.052319  0  3.957354  0  0  -0.045766  0  3.974776  0  0  -0.075784  -0.056388  0  3.945647  0
C  C37  1  0.49258379  0.77822882  0.25664575  1  0  -0.014729  0  3.709782  0  0  -0.052332  0  3.957243  0  0  -0.045781  0  3.974665  0  0  -0.075818  -0.056403  0  3.945538  0
C  C38  1  0.99258304  0.27822608  0.74335588  1  0  -0.014686  0  3.709905  0  0  -0.052293  0  3.957331  0  0  -0.045741  0  3.974752  0  0  -0.075815  -0.056361  0  3.945624  0
C  C39  1  0.50741827  0.22176936  0.74335425  1  0  -0.014596  0  3.709803  0  0  -0.052236  0  3.957236  0  0  -0.045683  0  3.974656  0  0  -0.075784  -0.056308  0  3.945532  0
C  C40  1  0.07343817  0.56950403  0.26668962  1  0  -0.150721  0  3.763697  0  0  -0.123687  0  4.013789  0  0  -0.134576  0  4.036294  0  0  -0.033195  -0.116817  0  3.998765  0
C  C41  1  0.42656604  0.93049552  0.26669165  1  0  -0.150644  0  3.763486  0  0  -0.123649  0  4.013647  0  0  -0.134536  0  4.03614  0  0  -0.033156  -0.116778  0  3.998624  0
C  C42  1  0.92656117  0.43049417  0.73330854  1  0  -0.150758  0  3.763676  0  0  -0.123758  0  4.013809  0  0  -0.134649  0  4.036314  0  0  -0.033173  -0.116887  0  3.998785  0
C  C43  1  0.57343744  0.06950386  0.73330898  1  0  -0.150727  0  3.763702  0  0  -0.123724  0  4.01385  0  0  -0.134615  0  4.036361  0  0  -0.033196  -0.116854  0  3.998828  0
C  C44  1  0.11751031  0.47658027  0.19802137  1  0  -0.030352  0  3.767847  0  0  -0.060571  0  4.031734  0  0  -0.054294  0  4.046638  0  0  -0.079065  -0.064445  0  4.021632  0
C  C45  1  0.38249450  0.02342388  0.19802207  1  0  -0.03049  0  3.767746  0  0  -0.060703  0  4.031667  0  0  -0.054425  0  4.046567  0  0  -0.079082  -0.064577  0  4.021565  0
C  C46  1  0.88248784  0.52342153  0.80197680  1  0  -0.030292  0  3.767817  0  0  -0.060517  0  4.031716  0  0  -0.054238  0  4.046618  0  0  -0.079063  -0.064391  0  4.021612  0
C  C47  1  0.61750768  0.97657670  0.80197794  1  0  -0.030407  0  3.767886  0  0  -0.060621  0  4.031777  0  0  -0.054343  0  4.046677  0  0  -0.079075  -0.064494  0  4.02167  0
C  C48  1  0.09457994  0.53759786  0.11937584  1  0  -0.201891  0  3.720853  0  0  -0.222426  0  3.98793  0  0  -0.231335  0  4.00594  0  0  -0.107073  -0.21672  0  3.976006  0
C  C49  1  0.40542282  0.96240419  0.11937829  1  0  -0.201872  0  3.720933  0  0  -0.222378  0  3.987985  0  0  -0.231287  0  4.005996  0  0  -0.107121  -0.216668  0  3.97606  0
C  C50  1  0.90541278  0.46240397  0.88062233  1  0  -0.201889  0  3.721048  0  0  -0.222386  0  3.988124  0  0  -0.231293  0  4.006135  0  0  -0.107043  -0.216673  0  3.9762  0
C  C51  1  0.59458059  0.03759399  0.88062234  1  0  -0.201804  0  3.720992  0  0  -0.222273  0  3.988014  0  0  -0.231182  0  4.006025  0  0  -0.107031  -0.216553  0  3.97609  0
C  C52  1  0.02559549  0.69125467  0.10897819  1  0  0.344091  0  3.773528  0  0  0.325679  0  4.032399  0  0  0.34181  0  4.047585  0  0  0.090326  0.314786  0  4.02193  0
C  C53  1  0.47440167  0.80874637  0.10898148  1  0  0.344018  0  3.773684  0  0  0.325577  0  4.032617  0  0  0.34171  0  4.047801  0  0  0.090336  0.314684  0  4.022145  0
C  C54  1  0.97439303  0.30874477  0.89102059  1  0  0.344115  0  3.773624  0  0  0.325628  0  4.032535  0  0  0.341758  0  4.047722  0  0  0.090297  0.314735  0  4.022064  0
C  C55  1  0.52559896  0.19125061  0.89101914  1  0  0.344031  0  3.773646  0  0  0.325529  0  4.032592  0  0  0.341661  0  4.047777  0  0  0.090279  0.314635  0  4.022119  0
C  C56  1  0.90888425  0.94789427  0.16930250  1  0  0.656389  0  3.89777  0  0  0.601865  0  4.184184  0  0  0.63737  0  4.181479  0  0  0.208068  0.577802  0  4.185074  0
C  C57  1  0.59111568  0.55210863  0.16930490  1  0  0.656405  0  3.897745  0  0  0.601889  0  4.184158  0  0  0.637396  0  4.18145  0  0  0.20809  0.577825  0  4.185051  0
C  C58  1  0.09111118  0.05210755  0.83069750  1  0  0.65643  0  3.897711  0  0  0.601908  0  4.184091  0  0  0.637413  0  4.181387  0  0  0.208124  0.577845  0  4.184981  0
C  C59  1  0.40888094  0.44788957  0.83069634  1  0  0.656367  0  3.897791  0  0  0.601819  0  4.184218  0  0  0.637326  0  4.181511  0  0  0.208039  0.577754  0  4.185112  0
S  S60  1  0.08105981  0.48961559  0.36749888  1  0  1.322014  0  5.604474  0  0  1.224556  0  6.103334  0  0  1.272208  0  6.08484  0  0  0.511699  1.191652  0  6.114894  0
S  S61  1  0.41894133  0.01038811  0.36749849  1  0  1.322045  0  5.604369  0  0  1.224609  0  6.103217  0  0  1.272273  0  6.084717  0  0  0.511705  1.191704  0  6.114778  0
S  S62  1  0.91893977  0.51038740  0.63250051  1  0  1.321913  0  5.604502  0  0  1.224516  0  6.103326  0  0  1.27218  0  6.084831  0  0  0.511689  1.191611  0  6.114884  0
S  S63  1  0.58106078  0.98961127  0.63250029  1  0  1.322004  0  5.604308  0  0  1.224595  0  6.103128  0  0  1.272256  0  6.084633  0  0  0.51174  1.191692  0  6.114688  0
O  O64  1  0.26575482  0.43344045  0.38216152  1  0  -0.673311  0  2.051687  0  0  -0.609429  0  2.31383  0  0  -0.633276  0  2.298722  0  0  -0.328317  -0.592405  0  2.323478  0
O  O65  1  0.23424611  0.06655580  0.38216231  1  0  -0.673345  0  2.051701  0  0  -0.609452  0  2.313828  0  0  -0.633321  0  2.298729  0  0  -0.328327  -0.592429  0  2.323476  0
O  O66  1  0.73424310  0.56655655  0.61783665  1  0  -0.673297  0  2.051728  0  0  -0.609428  0  2.313855  0  0  -0.6333  0  2.298757  0  0  -0.328336  -0.592405  0  2.323502  0
O  O67  1  0.76575607  0.93344478  0.61783708  1  0  -0.673325  0  2.05164  0  0  -0.609453  0  2.313766  0  0  -0.633318  0  2.298666  0  0  -0.328365  -0.592427  0  2.323405  0
O  O68  1  0.03296057  0.62203929  0.42262692  1  0  -0.717308  0  2.153199  0  0  -0.654527  0  2.464394  0  0  -0.679194  0  2.443925  0  0  -0.345888  -0.636859  0  2.477912  0
O  O69  1  0.46704409  0.87796363  0.42262866  1  0  -0.717388  0  2.153129  0  0  -0.654601  0  2.464345  0  0  -0.679272  0  2.443871  0  0  -0.345949  -0.636935  0  2.477865  0
O  O70  1  0.96704315  0.37796489  0.57737308  1  0  -0.717342  0  2.153228  0  0  -0.654562  0  2.464398  0  0  -0.679227  0  2.443923  0  0  -0.345911  -0.636894  0  2.477917  0
O  O71  1  0.53295814  0.12203816  0.57737196  1  0  -0.717421  0  2.153172  0  0  -0.654614  0  2.464342  0  0  -0.679282  0  2.443868  0  0  -0.345925  -0.636946  0  2.477861  0
O  O72  1  0.94333397  0.35593145  0.36704227  1  0  -0.688726  0  2.084811  0  0  -0.622449  0  2.377716  0  0  -0.647161  0  2.358861  0  0  -0.344397  -0.604872  0  2.390123  0
O  O73  1  0.55666378  0.14407277  0.36704233  1  0  -0.688667  0  2.084807  0  0  -0.622442  0  2.377743  0  0  -0.647152  0  2.358884  0  0  -0.344369  -0.604866  0  2.39015  0
O  O74  1  0.05666034  0.64407518  0.63295774  1  0  -0.688605  0  2.084782  0  0  -0.622405  0  2.377727  0  0  -0.647114  0  2.358868  0  0  -0.344393  -0.604834  0  2.390146  0
O  O75  1  0.44333963  0.85592540  0.63295768  1  0  -0.688599  0  2.084799  0  0  -0.622408  0  2.377742  0  0  -0.647116  0  2.358883  0  0  -0.344385  -0.604831  0  2.390147  0
O  O76  1  0.87311505  0.02283878  0.23488671  1  0  -0.59208  0  2.152759  0  0  -0.511309  0  2.419847  0  0  -0.543085  0  2.41053  0  0  -0.314205  -0.489374  0  2.425555  0
O  O77  1  0.62688792  0.47716165  0.23489157  1  0  -0.592137  0  2.152665  0  0  -0.511378  0  2.419764  0  0  -0.543155  0  2.410444  0  0  -0.31423  -0.489441  0  2.425473  0
O  O78  1  0.12688441  0.97716182  0.76511452  1  0  -0.592181  0  2.152694  0  0  -0.5114  0  2.419757  0  0  -0.543175  0  2.410436  0  0  -0.314274  -0.489467  0  2.425465  0
O  O79  1  0.37311154  0.52283895  0.76510844  1  0  -0.592103  0  2.152612  0  0  -0.511345  0  2.41972  0  0  -0.543123  0  2.4104  0  0  -0.314219  -0.489407  0  2.42543  0
O  O80  1  0.88671670  0.00237595  0.09583758  1  0  -0.635188  0  2.064054  0  0  -0.555412  0  2.311839  0  0  -0.587415  0  2.300789  0  0  -0.316254  -0.533116  0  2.318664  0
O  O81  1  0.61328077  0.49762565  0.09584169  1  0  -0.635152  0  2.064206  0  0  -0.555344  0  2.311941  0  0  -0.587349  0  2.300891  0  0  -0.316222  -0.533048  0  2.318767  0
O  O82  1  0.11328281  0.99762584  0.90416304  1  0  -0.635128  0  2.063991  0  0  -0.555356  0  2.311778  0  0  -0.58736  0  2.300728  0  0  -0.316223  -0.533058  0  2.3186  0
O  O83  1  0.38671857  0.50237254  0.90415770  1  0  -0.635117  0  2.064264  0  0  -0.55531  0  2.312004  0  0  -0.587313  0  2.300953  0  0  -0.316193  -0.533014  0  2.318831  0
O  O84  1  0.00212770  0.74877829  0.03184204  1  0  -0.526934  0  2.179432  0  0  -0.459712  0  2.417119  0  0  -0.483439  0  2.404068  0  0  -0.347753  -0.442788  0  2.425565  0
O  O85  1  0.49786871  0.75122406  0.03184503  1  0  -0.526883  0  2.179417  0  0  -0.459677  0  2.417159  0  0  -0.483399  0  2.404096  0  0  -0.347746  -0.442751  0  2.425601  0
O  O86  1  0.99785952  0.25122236  0.96815920  1  0  -0.526949  0  2.17935  0  0  -0.459709  0  2.417073  0  0  -0.483437  0  2.40402  0  0  -0.347772  -0.442785  0  2.42552  0
O  O87  1  0.50213204  0.24877533  0.96815498  1  0  -0.526892  0  2.179421  0  0  -0.459689  0  2.417194  0  0  -0.483406  0  2.404116  0  0  -0.347751  -0.442763  0  2.425639  0
O  O88  1  0.38677962  0.48746010  0.57685228  1  0  -0.841325  0  1.935875  0  0  -0.778  0  2.168088  0  0  -0.801512  0  2.135677  0  0  -0.578253  -0.760901  0  2.190628  0
O  O89  1  0.11322090  0.01254127  0.57685183  1  0  -0.841372  0  1.935843  0  0  -0.778018  0  2.168094  0  0  -0.80153  0  2.135683  0  0  -0.578276  -0.760917  0  2.190634  0
O  O90  1  0.61322119  0.51254049  0.42314772  1  0  -0.841317  0  1.935884  0  0  -0.777997  0  2.168113  0  0  -0.801509  0  2.135706  0  0  -0.578266  -0.760896  0  2.190654  0
O  O91  1  0.88677985  0.98745812  0.42314818  1  0  -0.84135  0  1.935853  0  0  -0.778022  0  2.168073  0  0  -0.801533  0  2.135661  0  0  -0.578264  -0.760921  0  2.190616  0
