# generated using pymatgen
data_CdH12C26(NO4)2
_symmetry_space_group_name_H-M   'P 1'
_cell_length_a   6.84296220
_cell_length_b   12.54050255
_cell_length_c   14.48018274
_cell_angle_alpha   115.67246887
_cell_angle_beta   94.74909092
_cell_angle_gamma   89.98061621
_symmetry_Int_Tables_number   1
_chemical_formula_structural   CdH12C26(NO4)2
_chemical_formula_sum   'Cd2 H24 C52 N4 O16'
_cell_volume   1115.22317786
_cell_formula_units_Z   2
loop_
 _symmetry_equiv_pos_site_id
 _symmetry_equiv_pos_as_xyz
  1  'x, y, z'
loop_
 _atom_site_type_symbol
 _atom_site_label
 _atom_site_symmetry_multiplicity
 _atom_site_fract_x
 _atom_site_fract_y
 _atom_site_fract_z
 _atom_site_occupancy
 _atom_site_hle17_bader_spin_density
 _atom_site_hle17_ddec_charge
 _atom_site_hle17_ddec_spin_density
 _atom_site_hle17_ddec_sum_bond_order
 _atom_site_hle17_magmom
 _atom_site_hse06_10hf_bader_spin_density
 _atom_site_hse06_10hf_ddec_charge
 _atom_site_hse06_10hf_ddec_spin_density
 _atom_site_hse06_10hf_ddec_sum_bond_order
 _atom_site_hse06_10hf_magmom
 _atom_site_hse06_bader_spin_density
 _atom_site_hse06_ddec_charge
 _atom_site_hse06_ddec_spin_density
 _atom_site_hse06_ddec_sum_bond_order
 _atom_site_hse06_magmom
 _atom_site_pbe_bader_spin_density
 _atom_site_pbe_cm5_charge
 _atom_site_pbe_ddec_charge
 _atom_site_pbe_ddec_spin_density
 _atom_site_pbe_ddec_sum_bond_order
 _atom_site_pbe_magmom
Cd  Cd0  1  0.74989639  0.89985296  0.99997039  1  0  1.175441  0  1.694878  0  0  0.986125  0  2.157814  0  0  1.043101  0  2.100184  0  0  0.791101  0.945479  0  2.19758  0
Cd  Cd1  1  0.25010345  0.10014803  0.00003089  1  0  1.175449  0  1.694809  0  0  0.986131  0  2.157736  0  0  1.043106  0  2.100108  0  0  0.791121  0.945487  0  2.197502  0
H  H2  1  0.45131997  0.17074994  0.80150120  1  0  0.13169  0  0.944625  0  0  0.138212  0  1.008431  0  0  0.142382  0  1.005917  0  0  0.114321  0.135153  0  1.010344  0
H  H3  1  0.04889877  0.36904805  0.19855455  1  0  0.131697  0  0.944202  0  0  0.138267  0  1.008045  0  0  0.142441  0  1.005477  0  0  0.114496  0.135253  0  1.009927  0
H  H4  1  0.54867384  0.82924841  0.19849744  1  0  0.131729  0  0.944587  0  0  0.13823  0  1.008415  0  0  0.142412  0  1.005877  0  0  0.114312  0.13517  0  1.010328  0
H  H5  1  0.95110101  0.63095205  0.80144639  1  0  0.131708  0  0.944191  0  0  0.138275  0  1.008037  0  0  0.14245  0  1.005469  0  0  0.114492  0.135259  0  1.009926  0
H  H6  1  0.69149509  0.82527183  0.66280423  1  0  0.119163  0  0.942629  0  0  0.125265  0  1.009071  0  0  0.129108  0  1.006816  0  0  0.111227  0.122452  0  1.010826  0
H  H7  1  0.80878595  0.16234470  0.33719696  1  0  0.119742  0  0.942736  0  0  0.125414  0  1.009556  0  0  0.129225  0  1.007299  0  0  0.111415  0.122622  0  1.011286  0
H  H8  1  0.30850758  0.17472740  0.33719511  1  0  0.119125  0  0.942734  0  0  0.125283  0  1.009107  0  0  0.129127  0  1.006848  0  0  0.111239  0.122467  0  1.01086  0
H  H9  1  0.19121817  0.83765452  0.66280382  1  0  0.119749  0  0.942701  0  0  0.125406  0  1.009544  0  0  0.129217  0  1.007287  0  0  0.111415  0.122614  0  1.011276  0
H  H10  1  0.49549026  0.72397869  0.78981388  1  0  0.085938  0  0.948966  0  0  0.094067  0  1.011793  0  0  0.096113  0  1.010903  0  0  0.116138  0.092532  0  1.012537  0
H  H11  1  0.00487921  0.93393024  0.21004284  1  0  0.085512  0  0.949109  0  0  0.09403  0  1.011358  0  0  0.096103  0  1.010457  0  0  0.11636  0.09242  0  1.012163  0
H  H12  1  0.50450972  0.27602408  0.21018669  1  0  0.085934  0  0.948949  0  0  0.094055  0  1.011776  0  0  0.096101  0  1.010887  0  0  0.116148  0.09252  0  1.012517  0
H  H13  1  0.99512059  0.06606987  0.78995672  1  0  0.085492  0  0.949129  0  0  0.094005  0  1.011387  0  0  0.096079  0  1.010484  0  0  0.116347  0.092396  0  1.012194  0
H  H14  1  0.40074043  0.50628769  0.68233372  1  0  0.109228  0  0.950107  0  0  0.118196  0  1.010247  0  0  0.121191  0  1.009873  0  0  0.106469  0.116031  0  1.010689  0
H  H15  1  0.09966605  0.82365987  0.31742179  1  0  0.110089  0  0.9504  0  0  0.118308  0  1.011252  0  0  0.121232  0  1.010948  0  0  0.106701  0.116203  0  1.011626  0
H  H16  1  0.59925668  0.49371597  0.31766638  1  0  0.109167  0  0.950108  0  0  0.118158  0  1.010234  0  0  0.121153  0  1.00986  0  0  0.10646  0.11599  0  1.010677  0
H  H17  1  0.90033663  0.17633936  0.68257686  1  0  0.11006  0  0.950424  0  0  0.118283  0  1.011274  0  0  0.121208  0  1.010969  0  0  0.106691  0.116179  0  1.011648  0
H  H18  1  0.50569376  0.36383108  0.75308728  1  0  0.099947  0  0.969046  0  0  0.107513  0  1.031832  0  0  0.1108  0  1.029231  0  0  0.106474  0.105092  0  1.033784  0
H  H19  1  0.99416898  0.61055352  0.24675692  1  0  0.101111  0  0.967396  0  0  0.108124  0  1.03089  0  0  0.111418  0  1.028278  0  0  0.10663  0.105675  0  1.032856  0
H  H20  1  0.49430032  0.63617081  0.24691133  1  0  0.099967  0  0.969017  0  0  0.107555  0  1.031776  0  0  0.110848  0  1.029172  0  0  0.106465  0.105134  0  1.03373  0
H  H21  1  0.00583365  0.38944482  0.75324071  1  0  0.101137  0  0.96738  0  0  0.108163  0  1.030855  0  0  0.111457  0  1.028243  0  0  0.106684  0.105711  0  1.032822  0
H  H22  1  0.69233705  0.43848581  0.92519335  1  0  0.103789  0  0.95589  0  0  0.117509  0  1.009332  0  0  0.120357  0  1.009416  0  0  0.107078  0.115454  0  1.009463  0
H  H23  1  0.80701117  0.51327061  0.07476066  1  0  0.104071  0  0.954924  0  0  0.117122  0  1.009188  0  0  0.119994  0  1.009194  0  0  0.106772  0.115016  0  1.009405  0
H  H24  1  0.30765691  0.56151431  0.07480458  1  0  0.103763  0  0.955878  0  0  0.117488  0  1.009316  0  0  0.120333  0  1.009406  0  0  0.107065  0.115431  0  1.009447  0
H  H25  1  0.19299005  0.48672862  0.92523725  1  0  0.104062  0  0.954928  0  0  0.117091  0  1.009205  0  0  0.119998  0  1.00917  0  0  0.10676  0.114985  0  1.009419  0
C  C26  1  0.60006602  0.99909900  0.84666569  1  0  0.658733  0  3.923948  0  0  0.604989  0  4.220232  0  0  0.640661  0  4.212417  0  0  0.204735  0.580757  0  4.224747  0
C  C27  1  0.89993046  0.15226406  0.15333580  1  0  0.658179  0  3.924564  0  0  0.605001  0  4.220251  0  0  0.640701  0  4.212458  0  0  0.204841  0.580748  0  4.224757  0
C  C28  1  0.39993516  0.00090022  0.15333497  1  0  0.658678  0  3.924002  0  0  0.604952  0  4.220291  0  0  0.640643  0  4.212449  0  0  0.204683  0.580714  0  4.224811  0
C  C29  1  0.10006791  0.84773693  0.84666541  1  0  0.658162  0  3.924493  0  0  0.604977  0  4.220196  0  0  0.640676  0  4.212404  0  0  0.204794  0.580718  0  4.224711  0
C  C30  1  0.57403664  0.99820669  0.74154654  1  0  -0.028911  0  3.707929  0  0  -0.005336  0  3.950101  0  0  -0.011845  0  3.970117  0  0  -0.004074  -0.0013  0  3.93669  0
C  C31  1  0.92617166  0.25649651  0.25845701  1  0  -0.03058  0  3.710711  0  0  -0.007015  0  3.952646  0  0  -0.013648  0  3.972799  0  0  -0.004471  -0.002894  0  3.939145  0
C  C32  1  0.42596007  0.00179164  0.25845429  1  0  -0.028661  0  3.70775  0  0  -0.005213  0  3.950076  0  0  -0.011727  0  3.970091  0  0  -0.004016  -0.001173  0  3.936661  0
C  C33  1  0.07382954  0.74350271  0.74154297  1  0  -0.03053  0  3.710682  0  0  -0.006963  0  3.952615  0  0  -0.013594  0  3.972769  0  0  -0.00443  -0.002839  0  3.939116  0
C  C34  1  0.49171257  0.09620179  0.73260906  1  0  -0.143555  0  3.67033  0  0  -0.183328  0  3.932031  0  0  -0.183438  0  3.9481  0  0  -0.07644  -0.1829  0  3.921224  0
C  C35  1  0.00850583  0.36340827  0.26743416  1  0  -0.142916  0  3.670143  0  0  -0.182764  0  3.932155  0  0  -0.182797  0  3.948296  0  0  -0.0769  -0.182423  0  3.921271  0
C  C36  1  0.50828263  0.90379567  0.26739068  1  0  -0.143657  0  3.670373  0  0  -0.18339  0  3.932064  0  0  -0.183503  0  3.948128  0  0  -0.07644  -0.182964  0  3.921256  0
C  C37  1  0.99149385  0.63659007  0.73256473  1  0  -0.142994  0  3.670203  0  0  -0.182836  0  3.932214  0  0  -0.182871  0  3.948355  0  0  -0.076929  -0.182492  0  3.921323  0
C  C38  1  0.46295157  0.09565188  0.63639219  1  0  0.24761  0  3.757609  0  0  0.231915  0  4.026012  0  0  0.239971  0  4.041475  0  0  0.095117  0.226178  0  4.015588  0
C  C39  1  0.03712791  0.45914423  0.36364947  1  0  0.248203  0  3.757743  0  0  0.23253  0  4.026453  0  0  0.240606  0  4.041973  0  0  0.095869  0.226761  0  4.016001  0
C  C40  1  0.53704815  0.90434734  0.36360841  1  0  0.247527  0  3.757786  0  0  0.23187  0  4.026112  0  0  0.239933  0  4.041576  0  0  0.095107  0.22613  0  4.015686  0
C  C41  1  0.96287194  0.54085676  0.63635111  1  0  0.248185  0  3.757811  0  0  0.23249  0  4.026525  0  0  0.240567  0  4.042043  0  0  0.095827  0.226733  0  4.016072  0
C  C42  1  0.51657563  0.99897554  0.54870898  1  0  -0.022768  0  3.836838  0  0  -0.025795  0  4.074319  0  0  -0.02567  0  4.09641  0  0  -0.00479  -0.025745  0  4.059396  0
C  C43  1  0.98346858  0.45020962  0.45130854  1  0  -0.022902  0  3.835986  0  0  -0.026412  0  4.074588  0  0  -0.026276  0  4.096689  0  0  -0.004835  -0.026356  0  4.059646  0
C  C44  1  0.48342710  0.00102457  0.45129070  1  0  -0.022778  0  3.836895  0  0  -0.025803  0  4.074345  0  0  -0.025679  0  4.096435  0  0  -0.004791  -0.025754  0  4.059422  0
C  C45  1  0.01653261  0.54978960  0.54869143  1  0  -0.022903  0  3.83611  0  0  -0.026381  0  4.074654  0  0  -0.026244  0  4.096753  0  0  -0.004805  -0.026317  0  4.059712  0
C  C46  1  0.59991030  0.90083906  0.55796492  1  0  -0.092021  0  3.795547  0  0  -0.077159  0  4.034723  0  0  -0.085883  0  4.057014  0  0  -0.010781  -0.071524  0  4.019716  0
C  C47  1  0.90026578  0.34278466  0.44204283  1  0  -0.090601  0  3.793942  0  0  -0.075598  0  4.033298  0  0  -0.084286  0  4.055543  0  0  -0.011084  -0.070019  0  4.018348  0
C  C48  1  0.40009083  0.09915928  0.44203472  1  0  -0.091862  0  3.795465  0  0  -0.077014  0  4.034615  0  0  -0.085736  0  4.056908  0  0  -0.010734  -0.07138  0  4.019604  0
C  C49  1  0.09973808  0.65721101  0.55795730  1  0  -0.090647  0  3.794049  0  0  -0.075589  0  4.033307  0  0  -0.08427  0  4.055557  0  0  -0.01108  -0.07003  0  4.018393  0
C  C50  1  0.62845314  0.90073098  0.65461542  1  0  -0.06084  0  3.668294  0  0  -0.101733  0  3.922896  0  0  -0.099382  0  3.940647  0  0  -0.069433  -0.103066  0  3.910945  0
C  C51  1  0.87184900  0.24596921  0.34539069  1  0  -0.061064  0  3.668081  0  0  -0.101528  0  3.92278  0  0  -0.099091  0  3.940504  0  0  -0.069122  -0.1029  0  3.910844  0
C  C52  1  0.37154806  0.09926824  0.34538455  1  0  -0.060956  0  3.668427  0  0  -0.101854  0  3.923038  0  0  -0.099505  0  3.940789  0  0  -0.069478  -0.10319  0  3.911089  0
C  C53  1  0.12815506  0.75402912  0.65460976  1  0  -0.061021  0  3.668068  0  0  -0.101494  0  3.922754  0  0  -0.099059  0  3.94048  0  0  -0.069113  -0.10286  0  3.910825  0
C  C54  1  0.64869803  0.79858134  0.46462538  1  0  0.597731  0  3.759287  0  0  0.548956  0  4.056326  0  0  0.583175  0  4.046435  0  0  0.24034  0.525774  0  4.062612  0
C  C55  1  0.85141964  0.33395916  0.53539512  1  0  0.59647  0  3.763454  0  0  0.547607  0  4.060402  0  0  0.581859  0  4.050589  0  0  0.240737  0.524411  0  4.066635  0
C  C56  1  0.35130056  0.20142232  0.53537477  1  0  0.597564  0  3.759514  0  0  0.548826  0  4.056507  0  0  0.583036  0  4.04662  0  0  0.240245  0.525649  0  4.062788  0
C  C57  1  0.14858327  0.66604360  0.46460557  1  0  0.596543  0  3.763741  0  0  0.547634  0  4.060709  0  0  0.581864  0  4.05093  0  0  0.240732  0.524433  0  4.066947  0
C  C58  1  0.53319252  0.65703555  0.81670117  1  0  0.136418  0  3.700561  0  0  0.108807  0  3.949069  0  0  0.114689  0  3.968685  0  0  0.052976  0.104993  0  3.935694  0
C  C59  1  0.96691793  0.84012850  0.18317075  1  0  0.136944  0  3.701493  0  0  0.109234  0  3.949341  0  0  0.115076  0  3.968953  0  0  0.052862  0.105495  0  3.935985  0
C  C60  1  0.46680601  0.34296722  0.18329865  1  0  0.136472  0  3.700482  0  0  0.108878  0  3.948989  0  0  0.114759  0  3.968605  0  0  0.05299  0.105063  0  3.935615  0
C  C61  1  0.03307887  0.15987072  0.81682904  1  0  0.136949  0  3.701456  0  0  0.109239  0  3.9493  0  0  0.11508  0  3.96891  0  0  0.052876  0.1055  0  3.935946  0
C  C62  1  0.48213330  0.53741333  0.75780949  1  0  -0.111298  0  3.70985  0  0  -0.126478  0  3.963644  0  0  -0.13321  0  3.985003  0  0  -0.081692  -0.122107  0  3.949186  0
C  C63  1  0.01802788  0.77934381  0.24200403  1  0  -0.112295  0  3.712876  0  0  -0.126938  0  3.966657  0  0  -0.133603  0  3.988026  0  0  -0.081819  -0.122611  0  3.952171  0
C  C64  1  0.51786522  0.46258944  0.24219033  1  0  -0.111205  0  3.709723  0  0  -0.126419  0  3.963535  0  0  -0.133149  0  3.984897  0  0  -0.081676  -0.122043  0  3.949081  0
C  C65  1  0.98197180  0.22065453  0.75799485  1  0  -0.112254  0  3.71282  0  0  -0.126906  0  3.966605  0  0  -0.133571  0  3.987976  0  0  -0.08182  -0.122579  0  3.95212  0
C  C66  1  0.54064268  0.45799322  0.79759417  1  0  0.002002  0  3.725068  0  0  -0.019767  0  3.985211  0  0  -0.016182  0  4.002793  0  0  -0.069169  -0.021827  0  3.973054  0
C  C67  1  0.95916720  0.66021196  0.20226214  1  0  0.000358  0  3.726403  0  0  -0.020964  0  3.985956  0  0  -0.017414  0  4.003579  0  0  -0.069904  -0.022975  0  3.973799  0
C  C68  1  0.45935574  0.54200778  0.20240428  1  0  0.001939  0  3.72501  0  0  -0.019848  0  3.98516  0  0  -0.016269  0  4.002748  0  0  -0.069173  -0.021909  0  3.973006  0
C  C69  1  0.04083407  0.33978815  0.79773748  1  0  0.000317  0  3.726361  0  0  -0.021006  0  3.985915  0  0  -0.017458  0  4.003549  0  0  -0.069954  -0.023013  0  3.973758  0
C  C70  1  0.64524846  0.50020193  0.89408950  1  0  -0.159277  0  3.73046  0  0  -0.179506  0  3.982964  0  0  -0.18708  0  4.005179  0  0  -0.085562  -0.174495  0  3.967883  0
C  C71  1  0.85424675  0.60605806  0.10584448  1  0  -0.157826  0  3.729912  0  0  -0.177477  0  3.982095  0  0  -0.185059  0  4.004297  0  0  -0.084531  -0.172436  0  3.967028  0
C  C72  1  0.35474843  0.49979819  0.10590856  1  0  -0.15925  0  3.730415  0  0  -0.179489  0  3.982912  0  0  -0.187065  0  4.005133  0  0  -0.085562  -0.174486  0  3.967822  0
C  C73  1  0.14575301  0.39394117  0.89415336  1  0  -0.15782  0  3.72983  0  0  -0.17744  0  3.982032  0  0  -0.185049  0  4.004215  0  0  -0.084509  -0.172398  0  3.966962  0
C  C74  1  0.69206274  0.62179628  0.94874505  1  0  0.174043  0  3.762199  0  0  0.17067  0  4.002708  0  0  0.177408  0  4.022733  0  0  0.121001  0.166153  0  3.989109  0
C  C75  1  0.80739223  0.67305076  0.05126990  1  0  0.172255  0  3.763787  0  0  0.168743  0  4.004394  0  0  0.175541  0  4.024352  0  0  0.119845  0.164221  0  3.990802  0
C  C76  1  0.30793559  0.37820383  0.05125445  1  0  0.174043  0  3.762186  0  0  0.170714  0  4.002663  0  0  0.177452  0  4.022687  0  0  0.121022  0.166225  0  3.989027  0
C  C77  1  0.19260610  0.32694935  0.94872960  1  0  0.172264  0  3.763676  0  0  0.168693  0  4.004334  0  0  0.175492  0  4.024296  0  0  0.119816  0.164164  0  3.990739  0
N  N78  1  0.63575882  0.69743878  0.90896204  1  0  -0.336904  0  3.220949  0  0  -0.268016  0  3.472764  0  0  -0.286059  0  3.490021  0  0  -0.315718  -0.255629  0  3.460859  0
N  N79  1  0.86403065  0.78841063  0.09100435  1  0  -0.33674  0  3.220287  0  0  -0.267661  0  3.471902  0  0  -0.285708  0  3.489183  0  0  -0.315423  -0.255279  0  3.459945  0
N  N80  1  0.36424104  0.30256222  0.09103786  1  0  -0.336939  0  3.220965  0  0  -0.268069  0  3.472766  0  0  -0.286113  0  3.490022  0  0  -0.31573  -0.255692  0  3.460855  0
N  N81  1  0.13596767  0.21158948  0.90899584  1  0  -0.336745  0  3.220261  0  0  -0.267638  0  3.471879  0  0  -0.285686  0  3.489157  0  0  -0.315419  -0.255256  0  3.459925  0
O  O82  1  0.67348657  0.90632078  0.84873422  1  0  -0.643966  0  2.050637  0  0  -0.573675  0  2.308102  0  0  -0.605214  0  2.298433  0  0  -0.322453  -0.551489  0  2.313949  0
O  O83  1  0.82614198  0.05751257  0.15124565  1  0  -0.642765  0  2.049317  0  0  -0.573417  0  2.307571  0  0  -0.604891  0  2.297737  0  0  -0.322363  -0.551239  0  2.313453  0
O  O84  1  0.32651913  0.09368021  0.15126730  1  0  -0.64398  0  2.050606  0  0  -0.573663  0  2.308038  0  0  -0.605209  0  2.298361  0  0  -0.322442  -0.551474  0  2.313884  0
O  O85  1  0.17385352  0.94248931  0.84875578  1  0  -0.642733  0  2.049311  0  0  -0.573391  0  2.307577  0  0  -0.604863  0  2.297744  0  0  -0.322319  -0.551208  0  2.313457  0
O  O86  1  0.55005394  0.08890927  0.92283659  1  0  -0.642851  0  2.012803  0  0  -0.589636  0  2.268113  0  0  -0.61525  0  2.254811  0  0  -0.333965  -0.571622  0  2.276671  0
O  O87  1  0.95010120  0.16580824  0.07717652  1  0  -0.642481  0  2.012809  0  0  -0.589269  0  2.267859  0  0  -0.614949  0  2.254652  0  0  -0.333938  -0.571201  0  2.276326  0
O  O88  1  0.44994418  0.91108818  0.07716396  1  0  -0.642859  0  2.012886  0  0  -0.589641  0  2.268201  0  0  -0.615264  0  2.254892  0  0  -0.333941  -0.571621  0  2.276749  0
O  O89  1  0.04989711  0.83419187  0.92282436  1  0  -0.642493  0  2.01272  0  0  -0.58928  0  2.267779  0  0  -0.614962  0  2.254581  0  0  -0.333935  -0.571208  0  2.276245  0
O  O90  1  0.38040327  0.19185390  0.62824250  1  0  -0.313949  0  2.327417  0  0  -0.242084  0  2.552914  0  0  -0.262434  0  2.551549  0  0  -0.126356  -0.228148  0  2.553636  0
O  O91  1  0.11965548  0.56348808  0.37178748  1  0  -0.315256  0  2.329074  0  0  -0.242873  0  2.55417  0  0  -0.263385  0  2.552946  0  0  -0.127077  -0.228807  0  2.554794  0
O  O92  1  0.61959647  0.80814533  0.37175672  1  0  -0.313934  0  2.327464  0  0  -0.242058  0  2.552951  0  0  -0.26243  0  2.551601  0  0  -0.126358  -0.228115  0  2.553665  0
O  O93  1  0.88034435  0.43651291  0.62821448  1  0  -0.315239  0  2.329083  0  0  -0.242852  0  2.554169  0  0  -0.263369  0  2.552935  0  0  -0.127074  -0.228815  0  2.55481  0
O  O94  1  0.71315502  0.70589020  0.45997392  1  0  -0.497689  0  1.932554  0  0  -0.466449  0  2.145691  0  0  -0.48557  0  2.139196  0  0  -0.270747  -0.453295  0  2.149809  0
O  O95  1  0.78700452  0.24596876  0.54010159  1  0  -0.496946  0  1.9338  0  0  -0.465804  0  2.147086  0  0  -0.484897  0  2.140574  0  0  -0.270908  -0.452657  0  2.151187  0
O  O96  1  0.28684743  0.29410636  0.54002649  1  0  -0.497534  0  1.932829  0  0  -0.466304  0  2.145946  0  0  -0.485423  0  2.139458  0  0  -0.27064  -0.453152  0  2.150061  0
O  O97  1  0.21298917  0.75402869  0.45990085  1  0  -0.496958  0  1.934177  0  0  -0.465778  0  2.147444  0  0  -0.484857  0  2.140933  0  0  -0.270868  -0.452633  0  2.151549  0
