# generated using pymatgen
data_Zn2H12C41N2O14F9
_symmetry_space_group_name_H-M   'P 1'
_cell_length_a   13.27569980
_cell_length_b   13.79584118
_cell_length_c   28.42968162
_cell_angle_alpha   90.32502279
_cell_angle_beta   89.79923223
_cell_angle_gamma   89.89459062
_symmetry_Int_Tables_number   1
_chemical_formula_structural   Zn2H12C41N2O14F9
_chemical_formula_sum   'Zn4 H24 C82 N4 O28 F18'
_cell_volume   5206.75569550
_cell_formula_units_Z   2
loop_
 _symmetry_equiv_pos_site_id
 _symmetry_equiv_pos_as_xyz
  1  'x, y, z'
loop_
 _atom_site_type_symbol
 _atom_site_label
 _atom_site_symmetry_multiplicity
 _atom_site_fract_x
 _atom_site_fract_y
 _atom_site_fract_z
 _atom_site_occupancy
 _atom_site_pbe_bader_charge
 _atom_site_pbe_bader_spin_density
 _atom_site_pbe_cm5_charge
 _atom_site_pbe_ddec_charge
 _atom_site_pbe_ddec_spin_density
 _atom_site_pbe_ddec_sum_bond_order
 _atom_site_pbe_magmom
Zn  Zn0  1  0.50887093  0.40310854  0.49796467  1  1.261803  0  0.674389  0.821323  0  2.407844  0
Zn  Zn1  1  0.48819505  0.60479642  0.50217167  1  1.304437  0  0.676105  0.826882  0  2.409032  0
Zn  Zn2  1  0.50954135  0.59721306  0.03584752  1  1.261183  0  0.674628  0.821239  0  2.409102  0
Zn  Zn3  1  0.48924276  0.39556356  0.03156989  1  1.300964  0  0.675947  0.826723  0  2.409984  0
H  H4  1  0.39560935  0.26142752  0.54633132  1  0.101566  0  0.120841  0.089601  0  1.02815  0
H  H5  1  0.62146428  0.24742869  0.44753667  1  0.092102  0  0.12554  0.092906  0  0.998935  0
H  H6  1  0.60191141  0.74688860  0.45352421  1  0.078597  0  0.120764  0.091063  0  1.034184  0
H  H7  1  0.37210582  0.76097835  0.55020952  1  0.084326  0  0.123911  0.090636  0  1.003536  0
H  H8  1  0.50800875  0.65124291  0.64583732  1  0.059876  0  0.098257  0.090473  0  1.048374  0
H  H9  1  0.49700935  0.34408638  0.64632328  1  0.051224  0  0.098796  0.091269  0  1.043786  0
H  H10  1  0.50724329  0.34892587  0.88794615  1  0.061863  0  0.09795  0.090081  0  1.049888  0
H  H11  1  0.49847099  0.65614062  0.88751695  1  0.091042  0  0.098748  0.091143  0  1.044033  0
H  H12  1  0.39607159  0.73925105  0.98787720  1  0.105283  0  0.120778  0.090072  0  1.027036  0
H  H13  1  0.62244444  0.75236446  0.08565376  1  0.064362  0  0.125635  0.092952  0  0.998614  0
H  H14  1  0.60314541  0.25301239  0.07976837  1  0.103218  0  0.1206  0.090592  0  1.034557  0
H  H15  1  0.37318996  0.23974963  0.98391177  1  0.084156  0  0.123751  0.09073  0  1.003785  0
H  H16  1  0.28551255  0.85270394  0.58322014  1  0.592254  0  0.341325  0.363572  0  0.885046  0
H  H17  1  0.28729134  0.18069167  0.57308496  1  0.601553  0  0.334429  0.368273  0  0.888709  0
H  H18  1  0.68610499  0.82618668  0.41471002  1  0.607986  0  0.338226  0.364498  0  0.8884  0
H  H19  1  0.69699845  0.15618906  0.40921110  1  0.594116  0  0.341255  0.363509  0  0.884757  0
H  H20  1  0.50954370  0.75874302  0.84657027  1  0.579938  0  0.326056  0.349681  0  0.911127  0
H  H21  1  0.51340033  0.75486987  0.68627822  1  0.588784  0  0.324942  0.348391  0  0.914977  0
H  H22  1  0.51198543  0.24525698  0.84751143  1  0.612147  0  0.32476  0.347969  0  0.913708  0
H  H23  1  0.50699390  0.24120450  0.68726627  1  0.616618  0  0.326298  0.349261  0  0.911708  0
H  H24  1  0.28700288  0.14855953  0.95101292  1  0.58522  0  0.340803  0.362308  0  0.886795  0
H  H25  1  0.28801213  0.82048390  0.96127591  1  0.610398  0  0.334187  0.36302  0  0.896166  0
H  H26  1  0.68931673  0.17331584  0.11740854  1  0.617003  0  0.338287  0.365821  0  0.887213  0
H  H27  1  0.69853188  0.84321324  0.12343221  1  0.587706  0  0.341381  0.363444  0  0.885714  0
C  C28  1  0.50220516  0.49802496  0.59051992  1  1.568775  0  0.213605  0.597504  0  4.15602  0
C  C29  1  0.30464425  0.49071383  0.50334150  1  1.627156  0  0.215467  0.629421  0  4.167553  0
C  C30  1  0.50012762  0.50919847  0.40978485  1  1.617425  0  0.213828  0.627646  0  4.166701  0
C  C31  1  0.69247685  0.51812173  0.49617750  1  1.639465  0  0.214398  0.62487  0  4.169151  0
C  C32  1  0.50280414  0.50209807  0.94326831  1  1.503482  0  0.212969  0.596874  0  4.155959  0
C  C33  1  0.30558612  0.51090989  0.03129470  1  1.667473  0  0.215144  0.628602  0  4.168911  0
C  C34  1  0.50098781  0.49029259  0.12395438  1  1.655026  0  0.213871  0.626016  0  4.168711  0
C  C35  1  0.69346473  0.48263842  0.03752238  1  1.668628  0  0.214538  0.626421  0  4.168582  0
C  C36  1  0.44106835  0.21214855  0.52490043  1  0.473235  0  0.046054  0.038089  0  3.907209  0
C  C37  1  0.43157315  0.11117176  0.52666079  1  0.076208  0  -0.007135  -0.056643  0  4.070462  0
C  C38  1  0.35875281  0.06357320  0.55583052  1  0.618998  0  0.080874  0.159566  0  4.062459  0
C  C39  1  0.57030915  0.20411470  0.46895647  1  0.579861  0  0.050828  0.039941  0  3.907162  0
C  C40  1  0.56902179  0.10241709  0.46793510  1  -0.085445  0  -0.005897  -0.057737  0  4.067049  0
C  C41  1  0.63474334  0.04561653  0.43860383  1  0.519405  0  0.081745  0.158395  0  4.063586  0
C  C42  1  0.55340252  0.79635165  0.47332031  1  0.515368  0  0.049027  0.045465  0  3.896145  0
C  C43  1  0.56053508  0.89742787  0.47036988  1  0.039097  0  -0.005642  -0.055404  0  4.062883  0
C  C44  1  0.63084976  0.94506658  0.43990366  1  0.637967  0  0.083261  0.162969  0  4.05904  0
C  C45  1  0.42336554  0.80434704  0.52885295  1  0.516333  0  0.046252  0.032295  0  3.916093  0
C  C46  1  0.42341967  0.90606178  0.52928793  1  0.000759  0  -0.007723  -0.059857  0  4.070657  0
C  C47  1  0.35559739  0.96307570  0.55758927  1  0.489469  0  0.080124  0.156555  0  4.064358  0
C  C48  1  0.49815956  0.05505488  0.49790602  1  -0.017693  0  0.002072  0.022581  0  4.000084  0
C  C49  1  0.49400224  0.95350515  0.49917796  1  0.051663  0  0.002909  0.023064  0  4.001426  0
C  C50  1  0.50693639  0.55685555  0.20732370  1  0.525223  0  0.111595  0.260199  0  3.997452  0
C  C51  1  0.51523342  0.38520312  0.19708346  1  0.564848  0  0.09575  0.174708  0  4.069229  0
C  C52  1  0.51354828  0.37172312  0.24508627  1  0.535486  0  0.086804  0.129588  0  4.075771  0
C  C53  1  0.50915759  0.45151364  0.27669722  1  0.130892  0  -0.017601  -0.099166  0  4.058499  0
C  C54  1  0.50567081  0.44227262  0.32639289  1  0.48557  0  0.112108  0.259606  0  3.996562  0
C  C55  1  0.51565111  0.61382815  0.33659007  1  0.47247  0  0.095658  0.17451  0  4.071159  0
C  C56  1  0.51471647  0.62727861  0.28859653  1  0.616623  0  0.087375  0.130801  0  4.076289  0
C  C57  1  0.50981713  0.54752022  0.25701138  1  0.023166  0  -0.018026  -0.101259  0  4.059267  0
C  C58  1  0.50871348  0.47842396  0.17652584  1  0.061571  0  -0.025574  -0.221346  0  3.962729  0
C  C59  1  0.50800120  0.52072529  0.35716351  1  0.127688  0  -0.026262  -0.222656  0  3.963713  0
C  C60  1  0.50508565  0.58601675  0.66736664  1  0.028513  0  -0.097751  -0.160138  0  3.982555  0
C  C61  1  0.50404392  0.58893894  0.71666602  1  -0.046212  0  -0.016803  -0.016671  0  4.079205  0
C  C62  1  0.50557440  0.67879005  0.74233222  1  0.460169  0  0.06601  0.140578  0  4.079363  0
C  C63  1  0.49978644  0.41027371  0.66753499  1  -0.022909  0  -0.097121  -0.158835  0  3.979754  0
C  C64  1  0.50144477  0.40920354  0.71689701  1  -0.094968  0  -0.016293  -0.017113  0  4.07368  0
C  C65  1  0.50291165  0.32033819  0.74292595  1  0.545957  0  0.065826  0.140679  0  4.079993  0
C  C66  1  0.50491238  0.41416245  0.86641404  1  -0.083401  0  -0.097533  -0.160838  0  3.985835  0
C  C67  1  0.50373272  0.41125072  0.81713141  1  0.049877  0  -0.017095  -0.015939  0  4.080287  0
C  C68  1  0.50448917  0.32138565  0.79147261  1  0.531189  0  0.065767  0.139736  0  4.07894  0
C  C69  1  0.50081608  0.58994488  0.86627977  1  -0.101166  0  -0.097025  -0.160106  0  3.980892  0
C  C70  1  0.50230037  0.59101064  0.81691177  1  0.014904  0  -0.015919  -0.015877  0  4.074627  0
C  C71  1  0.50428120  0.67986086  0.79089146  1  0.583443  0  0.065849  0.139839  0  4.081328  0
C  C72  1  0.50231808  0.49777697  0.64307266  1  -0.000487  0  -0.022736  -0.013877  0  4.00862  0
C  C73  1  0.50256732  0.49955518  0.74206767  1  0.001639  0  -0.007566  0.002347  0  3.980329  0
C  C74  1  0.50282061  0.50242369  0.89072427  1  0.037855  0  -0.022755  -0.01209  0  4.007274  0
C  C75  1  0.50272203  0.50064701  0.79173781  1  0.057913  0  -0.007578  0.001999  0  3.981557  0
C  C76  1  0.87011685  0.44904009  0.49842240  1  0.526701  0  0.114852  0.265086  0  3.987133  0
C  C77  1  0.85259676  0.62092136  0.49346578  1  0.572099  0  0.096402  0.176324  0  4.065583  0
C  C78  1  0.95579746  0.63192412  0.49294469  1  0.520493  0  0.087216  0.129538  0  4.079615  0
C  C79  1  0.02135460  0.55121255  0.49649508  1  0.061693  0  -0.016822  -0.098165  0  4.062577  0
C  C80  1  0.12797413  0.55857603  0.49704444  1  0.478187  0  0.112456  0.259915  0  3.9965  0
C  C81  1  0.14487119  0.38879414  0.51028906  1  0.463033  0  0.095958  0.174482  0  4.06594  0
C  C82  1  0.04202366  0.37655753  0.50782901  1  0.558994  0  0.088682  0.132671  0  4.072779  0
C  C83  1  0.97664803  0.45663407  0.50058996  1  0.058415  0  -0.017447  -0.101002  0  4.053274  0
C  C84  1  0.80565110  0.52861285  0.49581723  1  0.113409  0  -0.02615  -0.225281  0  3.947265  0
C  C85  1  0.19157212  0.48004339  0.50393558  1  0.198391  0  -0.024843  -0.220015  0  3.965739  0
C  C86  1  0.44170007  0.78837639  0.00907762  1  0.469299  0  0.045578  0.038321  0  3.907096  0
C  C87  1  0.43234858  0.88940180  0.00729718  1  0.04259  0  -0.007534  -0.058006  0  4.071136  0
C  C88  1  0.35955708  0.93730571  0.97836362  1  0.528637  0  0.080866  0.161296  0  4.059651  0
C  C89  1  0.57122570  0.79590398  0.06446058  1  0.586515  0  0.050773  0.040499  0  3.906919  0
C  C90  1  0.57007326  0.89759435  0.06544838  1  -0.056176  0  -0.005755  -0.057148  0  4.067995  0
C  C91  1  0.63611567  0.95410788  0.09442493  1  0.491916  0  0.081912  0.158215  0  4.062531  0
C  C92  1  0.55474919  0.20372107  0.06006618  1  0.54271  0  0.048837  0.046731  0  3.894416  0
C  C93  1  0.56194071  0.10260784  0.06295071  1  -0.027886  0  -0.005015  -0.055863  0  4.060202  0
C  C94  1  0.63244118  0.05468129  0.09307943  1  0.616969  0  0.083602  0.163948  0  4.057938  0
C  C95  1  0.42455466  0.19622339  0.00504703  1  0.488103  0  0.046094  0.031132  0  3.918901  0
C  C96  1  0.42455400  0.09451882  0.00461303  1  0.033553  0  -0.006822  -0.058606  0  4.072661  0
C  C97  1  0.35660425  0.03782713  0.97658523  1  0.588324  0  0.080024  0.15591  0  4.06559  0
C  C98  1  0.49914336  0.94524173  0.03575926  1  0.009701  0  0.00207  0.021949  0  4.002354  0
C  C99  1  0.49520613  0.04679380  0.03444565  1  0.046911  0  0.001864  0.022869  0  4.001336  0
C  C100  1  0.87073734  0.55231655  0.03527800  1  0.50293  0  0.115402  0.266427  0  3.98359  0
C  C101  1  0.85434451  0.38080606  0.04271903  1  0.501732  0  0.096309  0.176446  0  4.06628  0
C  C102  1  0.95757109  0.37023938  0.04386569  1  0.574618  0  0.086732  0.128403  0  4.081682  0
C  C103  1  0.02265333  0.45087601  0.03931951  1  0.118258  0  -0.016609  -0.096369  0  4.06354  0
C  C104  1  0.12927255  0.44368921  0.03896285  1  0.482666  0  0.112154  0.259883  0  3.997865  0
C  C105  1  0.14552099  0.61271793  0.02363021  1  0.475923  0  0.096077  0.175134  0  4.063293  0
C  C106  1  0.04253027  0.62490226  0.02579953  1  0.582087  0  0.089475  0.133329  0  4.070736  0
C  C107  1  0.97743718  0.54502622  0.03376661  1  0.097958  0  -0.017605  -0.103529  0  4.054496  0
C  C108  1  0.80671737  0.47269674  0.03869194  1  0.06869  0  -0.025962  -0.225878  0  3.944414  0
C  C109  1  0.19250542  0.52187213  0.03098755  1  0.10068  0  -0.024406  -0.219574  0  3.966122  0
N  N110  1  0.50845517  0.25577334  0.49684218  1  -1.243039  0  -0.32387  -0.174168  0  3.574579  0
N  N111  1  0.48674682  0.75253913  0.50164366  1  -1.267058  0  -0.323098  -0.178068  0  3.571291  0
N  N112  1  0.50917227  0.74450987  0.03686398  1  -1.211979  0  -0.323767  -0.174832  0  3.577966  0
N  N113  1  0.48799436  0.24779303  0.03201619  1  -1.231521  0  -0.322965  -0.178169  0  3.570906  0
O  O114  1  0.48286098  0.41854941  0.56930813  1  -1.169058  0  -0.319471  -0.551034  0  2.322618  0
O  O115  1  0.52156014  0.57857285  0.57052037  1  -1.167491  0  -0.323228  -0.549221  0  2.325898  0
O  O116  1  0.34013213  0.57045735  0.51820019  1  -1.150172  0  -0.315647  -0.541898  0  2.311996  0
O  O117  1  0.35416979  0.41872207  0.48760923  1  -1.151588  0  -0.313138  -0.54211  0  2.311577  0
O  O118  1  0.45872901  0.57892066  0.43190203  1  -1.141923  0  -0.314801  -0.538708  0  2.314761  0
O  O119  1  0.53506845  0.43193328  0.42744508  1  -1.146009  0  -0.313767  -0.540082  0  2.314791  0
O  O120  1  0.65735216  0.43748303  0.50965098  1  -1.141472  0  -0.312346  -0.530729  0  2.329669  0
O  O121  1  0.64111085  0.59104824  0.48329346  1  -1.15927  0  -0.316173  -0.55471  0  2.340878  0
O  O122  1  0.48341643  0.58156993  0.96459665  1  -1.176325  0  -0.318987  -0.550873  0  2.322798  0
O  O123  1  0.52222805  0.42141531  0.96312640  1  -1.168708  0  -0.322798  -0.548624  0  2.328123  0
O  O124  1  0.34105777  0.43110440  0.01624924  1  -1.152182  0  -0.315118  -0.541518  0  2.311811  0
O  O125  1  0.35499266  0.58274987  0.04691844  1  -1.151226  0  -0.313142  -0.541102  0  2.310249  0
O  O126  1  0.45954291  0.42086755  0.10189053  1  -1.148187  0  -0.315103  -0.538382  0  2.317357  0
O  O127  1  0.53592782  0.56751736  0.10626397  1  -1.152437  0  -0.313538  -0.539617  0  2.314962  0
O  O128  1  0.65821469  0.56318833  0.02391578  1  -1.147162  0  -0.313324  -0.532143  0  2.329977  0
O  O129  1  0.64212939  0.40944341  0.04998136  1  -1.169936  0  -0.315825  -0.555062  0  2.343204  0
O  O130  1  0.28584253  0.92291440  0.58665596  1  -1.080585  0  -0.334558  -0.390134  0  2.273665  0
O  O131  1  0.29179865  0.11337273  0.58309641  1  -1.089047  0  -0.33634  -0.399017  0  2.266939  0
O  O132  1  0.69545838  0.89580159  0.41133686  1  -1.090544  0  -0.333883  -0.390177  0  2.273631  0
O  O133  1  0.70296648  0.08587238  0.40878924  1  -1.078437  0  -0.334348  -0.390459  0  2.27297  0
O  O134  1  0.50568969  0.76833758  0.81273220  1  -1.074471  0  -0.350884  -0.403044  0  2.274258  0
O  O135  1  0.50839868  0.76629315  0.72002525  1  -1.097385  0  -0.352419  -0.404901  0  2.273886  0
O  O136  1  0.50664241  0.23389313  0.81378779  1  -1.112368  0  -0.351934  -0.404177  0  2.272295  0
O  O137  1  0.50341811  0.23178675  0.72113395  1  -1.125324  0  -0.351057  -0.402864  0  2.274851  0
O  O138  1  0.28684400  0.07831160  0.94776002  1  -1.074008  0  -0.334313  -0.389395  0  2.274336  0
O  O139  1  0.29248887  0.88784650  0.95133425  1  -1.098788  0  -0.335989  -0.394215  0  2.271382  0
O  O140  1  0.69739477  0.10363925  0.12130326  1  -1.100177  0  -0.33411  -0.39205  0  2.273372  0
O  O141  1  0.70452945  0.91350739  0.12389028  1  -1.079648  0  -0.334858  -0.390547  0  2.272416  0
F  F142  1  0.52676235  0.69369930  0.36386772  1  -0.622635  0  -0.08939  -0.110089  0  1.395708  0
F  F143  1  0.52196492  0.71898767  0.27247008  1  -0.608118  0  -0.095018  -0.113  0  1.377838  0
F  F144  1  0.49929531  0.64732873  0.18981359  1  -0.612275  0  -0.089106  -0.115137  0  1.394194  0
F  F145  1  0.52591805  0.30520556  0.16979621  1  -0.621214  0  -0.089785  -0.110163  0  1.39455  0
F  F146  1  0.51957782  0.27988852  0.26117375  1  -0.604195  0  -0.094388  -0.112242  0  1.377282  0
F  F147  1  0.49694481  0.35191201  0.34395029  1  -0.610905  0  -0.089363  -0.11514  0  1.391824  0
F  F148  1  0.20113629  0.30941461  0.52024921  1  -0.626447  0  -0.090204  -0.117983  0  1.394048  0
F  F149  1  0.00524248  0.28633292  0.51426003  1  -0.602601  0  -0.092932  -0.110945  0  1.379531  0
F  F150  1  0.83163859  0.35862943  0.49836941  1  -0.611584  0  -0.087109  -0.112818  0  1.408902  0
F  F151  1  0.79745213  0.70325129  0.49201789  1  -0.615956  0  -0.089052  -0.107771  0  1.398977  0
F  F152  1  0.99252992  0.72303656  0.49031016  1  -0.60683  0  -0.094883  -0.113158  0  1.3801  0
F  F153  1  0.16816989  0.64694512  0.48945772  1  -0.613218  0  -0.088085  -0.113806  0  1.395278  0
F  F154  1  0.20170267  0.69168560  0.01297957  1  -0.628309  0  -0.089916  -0.118477  0  1.391634  0
F  F155  1  0.00545253  0.71479057  0.01844660  1  -0.605376  0  -0.093387  -0.111078  0  1.379575  0
F  F156  1  0.83168784  0.64254309  0.03368417  1  -0.610349  0  -0.087002  -0.112529  0  1.408794  0
F  F157  1  0.79992415  0.29830352  0.04526848  1  -0.620898  0  -0.089431  -0.108808  0  1.401487  0
F  F158  1  0.99488285  0.27951075  0.04808249  1  -0.605235  0  -0.094739  -0.112773  0  1.38065  0
F  F159  1  0.17001577  0.35595068  0.04773448  1  -0.612685  0  -0.088039  -0.113865  0  1.394967  0
