# generated using pymatgen
data_PrH15(C7O4)3
_symmetry_space_group_name_H-M   'P 1'
_cell_length_a   8.98294447
_cell_length_b   15.12705418
_cell_length_c   16.64629692
_cell_angle_alpha   90.00013301
_cell_angle_beta   90.00009500
_cell_angle_gamma   104.17815214
_symmetry_Int_Tables_number   1
_chemical_formula_structural   PrH15(C7O4)3
_chemical_formula_sum   'Pr4 H60 C84 O48'
_cell_volume   2193.08728228
_cell_formula_units_Z   4
loop_
 _symmetry_equiv_pos_site_id
 _symmetry_equiv_pos_as_xyz
  1  'x, y, z'
loop_
 _atom_site_type_symbol
 _atom_site_label
 _atom_site_symmetry_multiplicity
 _atom_site_fract_x
 _atom_site_fract_y
 _atom_site_fract_z
 _atom_site_occupancy
 _atom_site_pbe_bader_charge
 _atom_site_pbe_bader_spin_density
 _atom_site_pbe_cm5_charge
 _atom_site_pbe_ddec_charge
 _atom_site_pbe_ddec_spin_density
 _atom_site_pbe_ddec_sum_bond_order
 _atom_site_pbe_magmom
Pr  Pr0  1  0.56598799  0.96797413  0.11234277  1  2.281839  0  1.497717  2.127486  0  2.119404  0
Pr  Pr1  1  0.93400872  0.03202470  0.61234325  1  2.2819  0  1.497697  2.12746  0  2.119411  0
Pr  Pr2  1  0.43400971  0.03202426  0.88765531  1  2.281915  0  1.497715  2.127462  0  2.119462  0
Pr  Pr3  1  0.06598954  0.96797232  0.38765664  1  2.281863  0  1.497703  2.127446  0  2.119418  0
H  H4  1  0.01774704  0.13674580  0.01574960  1  0.06244  0  0.110076  0.094711  0  0.988814  0
H  H5  1  0.48225196  0.86325300  0.51574886  1  0.062457  0  0.110082  0.094725  0  0.988821  0
H  H6  1  0.98224871  0.86325327  0.98424908  1  0.062389  0  0.110032  0.094648  0  0.988878  0
H  H7  1  0.51774685  0.13674539  0.48424982  1  0.062438  0  0.110067  0.094711  0  0.988824  0
H  H8  1  0.04986958  0.08494175  0.92416061  1  0.125508  0  0.123851  0.131171  0  0.992552  0
H  H9  1  0.45013094  0.91505768  0.42416037  1  0.125315  0  0.123859  0.131172  0  0.992551  0
H  H10  1  0.95012562  0.91505868  0.07583868  1  0.125334  0  0.123857  0.131153  0  0.992516  0
H  H11  1  0.54986982  0.08494004  0.57583832  1  0.125491  0  0.123858  0.131157  0  0.992538  0
H  H12  1  0.85204545  0.20490622  0.05943183  1  0.102805  0  0.110035  0.123585  0  1.028436  0
H  H13  1  0.64795549  0.79509517  0.55943186  1  0.102739  0  0.110034  0.123575  0  1.028452  0
H  H14  1  0.14795810  0.79509558  0.94056985  1  0.102706  0  0.110038  0.123595  0  1.028444  0
H  H15  1  0.35204416  0.20490526  0.44056923  1  0.102752  0  0.110049  0.1236  0  1.028437  0
H  H16  1  0.74882961  0.33026509  0.10833288  1  0.094891  0  0.104384  0.117032  0  1.015168  0
H  H17  1  0.75117432  0.66973511  0.60833093  1  0.094888  0  0.104399  0.117006  0  1.015181  0
H  H18  1  0.25117449  0.66973535  0.89166880  1  0.094918  0  0.104394  0.116998  0  1.015194  0
H  H19  1  0.24883006  0.33026602  0.39166715  1  0.0949  0  0.104392  0.117045  0  1.015138  0
H  H20  1  0.86724627  0.47260871  0.88398308  1  0.048527  0  0.100421  0.099125  0  1.007263  0
H  H21  1  0.63275443  0.52739236  0.38398233  1  0.048536  0  0.100416  0.099139  0  1.007193  0
H  H22  1  0.13275254  0.52739513  0.11601801  1  0.048426  0  0.100414  0.099129  0  1.007222  0
H  H23  1  0.36724996  0.47260604  0.61601815  1  0.048415  0  0.100427  0.099145  0  1.007217  0
H  H24  1  0.97737150  0.34982293  0.83632194  1  0.057  0  0.094353  0.100525  0  1.059986  0
H  H25  1  0.52262760  0.65017458  0.33632016  1  0.056942  0  0.094323  0.100503  0  1.059989  0
H  H26  1  0.02262648  0.65017887  0.16368034  1  0.05721  0  0.094304  0.100439  0  1.060038  0
H  H27  1  0.47737401  0.34982245  0.66367972  1  0.05724  0  0.09432  0.100488  0  1.060005  0
H  H28  1  0.87282564  0.58930860  0.95027362  1  0.111985  0  0.124426  0.096171  0  1.011275  0
H  H29  1  0.62717952  0.41069201  0.45027143  1  0.111764  0  0.124429  0.096221  0  1.011261  0
H  H30  1  0.12717818  0.41069389  0.04972807  1  0.111759  0  0.124437  0.096243  0  1.011259  0
H  H31  1  0.37282458  0.58930843  0.54972485  1  0.112009  0  0.124419  0.096179  0  1.011304  0
H  H32  1  0.33074959  0.63151642  0.24361055  1  0.073656  0  0.107835  0.121202  0  1.016186  0
H  H33  1  0.16925069  0.36848379  0.74361270  1  0.074001  0  0.107834  0.121184  0  1.016186  0
H  H34  1  0.66925117  0.36848401  0.75638873  1  0.073654  0  0.107829  0.121181  0  1.016205  0
H  H35  1  0.83074868  0.63151869  0.25638779  1  0.073988  0  0.107809  0.121183  0  1.016173  0
H  H36  1  0.42190597  0.49366494  0.21042769  1  0.117579  0  0.110595  0.120941  0  0.983464  0
H  H37  1  0.07809305  0.50633516  0.71042944  1  0.117564  0  0.110592  0.12093  0  0.983487  0
H  H38  1  0.57809424  0.50633686  0.78957279  1  0.11767  0  0.110573  0.120898  0  0.983482  0
H  H39  1  0.92190075  0.49366458  0.28956984  1  0.117568  0  0.110561  0.120872  0  0.983421  0
H  H40  1  0.54154651  0.72264753  0.93676971  1  0.184052  0  0.117456  0.121681  0  1.030301  0
H  H41  1  0.95845497  0.27735235  0.43676933  1  0.184044  0  0.117482  0.121694  0  1.030227  0
H  H42  1  0.45845537  0.27735291  0.06323198  1  0.184025  0  0.117454  0.121671  0  1.030247  0
H  H43  1  0.04154496  0.72264604  0.56323175  1  0.184016  0  0.117443  0.12165  0  1.030274  0
H  H44  1  0.72324054  0.80404627  0.93232024  1  0.084946  0  0.119393  0.113653  0  0.958762  0
H  H45  1  0.77676121  0.19595155  0.43232013  1  0.084964  0  0.119386  0.11364  0  0.958799  0
H  H46  1  0.27676134  0.19595144  0.06768025  1  0.084967  0  0.119382  0.113647  0  0.958799  0
H  H47  1  0.22323789  0.80404752  0.56768096  1  0.08497  0  0.119382  0.113652  0  0.958797  0
H  H48  1  0.36207865  0.75683219  0.28680048  1  0.118026  0  0.11705  0.104102  0  1.017619  0
H  H49  1  0.13792182  0.24316815  0.78680053  1  0.118129  0  0.117078  0.104132  0  1.017651  0
H  H50  1  0.63792295  0.24316756  0.71319940  1  0.118126  0  0.117072  0.104102  0  1.017626  0
H  H51  1  0.86208312  0.75683161  0.21319815  1  0.117966  0  0.117083  0.104121  0  1.017671  0
H  H52  1  0.20882760  0.76418598  0.21966297  1  0.124154  0  0.11532  0.110029  0  1.0023  0
H  H53  1  0.29117257  0.23581415  0.71966374  1  0.124147  0  0.115316  0.109989  0  1.002344  0
H  H54  1  0.79117205  0.23581445  0.78033692  1  0.124146  0  0.115325  0.110012  0  1.002302  0
H  H55  1  0.70882986  0.76418493  0.28033494  1  0.124179  0  0.115337  0.109986  0  1.00238  0
H  H56  1  0.85507447  0.05272877  0.21355124  1  0.642906  0  0.311057  0.409236  0  0.90997  0
H  H57  1  0.64492548  0.94727175  0.71355098  1  0.642893  0  0.311038  0.409238  0  0.909973  0
H  H58  1  0.14492769  0.94727235  0.78644925  1  0.642897  0  0.31104  0.409224  0  0.909997  0
H  H59  1  0.35507055  0.05272799  0.28644951  1  0.642917  0  0.311074  0.40925  0  0.909955  0
H  H60  1  0.75960558  0.12396657  0.23084881  1  0.603464  0  0.335975  0.426755  0  0.852502  0
H  H61  1  0.74039444  0.87603401  0.73084908  1  0.603463  0  0.335985  0.42683  0  0.852432  0
H  H62  1  0.24039518  0.87603386  0.76915047  1  0.603462  0  0.33598  0.426778  0  0.852467  0
H  H63  1  0.25960354  0.12396506  0.26915140  1  0.603366  0  0.335972  0.426782  0  0.852461  0
C  C64  1  0.81146267  0.05929923  0.95793660  1  1.627803  0  0.227394  0.65989  0  4.136433  0
C  C65  1  0.68853668  0.94070071  0.45793678  1  1.627526  0  0.227407  0.659946  0  4.136498  0
C  C66  1  0.18853308  0.94070255  0.04206208  1  1.627795  0  0.227506  0.659975  0  4.136286  0
C  C67  1  0.31146297  0.05929700  0.54206370  1  1.627782  0  0.227392  0.659896  0  4.136446  0
C  C68  1  0.97400489  0.12129021  0.95434555  1  0.38262  0  -0.063798  -0.13201  0  3.841636  0
C  C69  1  0.52599528  0.87870904  0.45434425  1  0.38281  0  -0.063843  -0.132117  0  3.84173  0
C  C70  1  0.02599058  0.87871089  0.04565313  1  0.382744  0  -0.063833  -0.131984  0  3.841507  0
C  C71  1  0.47400437  0.12128867  0.54565443  1  0.382622  0  -0.06382  -0.132022  0  3.841636  0
C  C72  1  0.92221902  0.26835247  0.94343755  1  0.449373  0  0.081525  0.25684  0  4.058829  0
C  C73  1  0.57778110  0.73164674  0.44343599  1  0.449509  0  0.081565  0.256897  0  4.058735  0
C  C74  1  0.07777867  0.73164864  0.05656414  1  0.449666  0  0.08158  0.256877  0  4.058795  0
C  C75  1  0.42222273  0.26835302  0.55656389  1  0.449507  0  0.08149  0.256842  0  4.058767  0
C  C76  1  0.85822523  0.26362105  0.02056019  1  -0.019512  0  -0.106622  -0.211915  0  3.977434  0
C  C77  1  0.64177442  0.73638022  0.52055828  1  -0.019661  0  -0.106594  -0.211885  0  3.977346  0
C  C78  1  0.14177748  0.73638143  0.97944270  1  -0.0198  0  -0.1066  -0.211923  0  3.977474  0
C  C79  1  0.35822551  0.26362090  0.47944100  1  -0.019696  0  -0.106625  -0.211904  0  3.977326  0
C  C80  1  0.79891119  0.33515016  0.04853102  1  -0.051108  0  -0.092142  -0.107608  0  3.963165  0
C  C81  1  0.70109221  0.66485189  0.54852902  1  -0.051  0  -0.092178  -0.107583  0  3.963175  0
C  C82  1  0.20109291  0.66485301  0.95147066  1  -0.05085  0  -0.092181  -0.107564  0  3.963232  0
C  C83  1  0.29891329  0.33514924  0.45146906  1  -0.051104  0  -0.092141  -0.107641  0  3.963167  0
C  C84  1  0.79938974  0.41229015  0.00106349  1  -0.000769  0  -0.024132  0.058817  0  4.028455  0
C  C85  1  0.70061483  0.58771244  0.50106252  1  -0.000838  0  -0.024139  0.058842  0  4.028432  0
C  C86  1  0.20061659  0.58771303  0.99893820  1  -0.000999  0  -0.024136  0.058879  0  4.0284  0
C  C87  1  0.29938843  0.41228869  0.49893736  1  -0.000758  0  -0.024115  0.05885  0  4.028543  0
C  C88  1  0.86575079  0.41545819  0.92407181  1  -0.035438  0  -0.095098  -0.114967  0  4.023373  0
C  C89  1  0.63425008  0.58454301  0.42407179  1  -0.035433  0  -0.095059  -0.114955  0  4.023301  0
C  C90  1  0.13425275  0.58454634  0.07592927  1  -0.035266  0  -0.095124  -0.11509  0  4.023211  0
C  C91  1  0.36575041  0.41545675  0.57592689  1  -0.035263  0  -0.095139  -0.115026  0  4.023326  0
C  C92  1  0.92713378  0.34575505  0.89613102  1  -0.031421  0  -0.115029  -0.212817  0  4.033491  0
C  C93  1  0.57286669  0.65424538  0.39612929  1  -0.031457  0  -0.115036  -0.212865  0  4.03357  0
C  C94  1  0.07286698  0.65424811  0.10387187  1  -0.031738  0  -0.11497  -0.212672  0  4.033278  0
C  C95  1  0.42713436  0.34575301  0.60387000  1  -0.031712  0  -0.114981  -0.212784  0  4.033407  0
C  C96  1  0.61819511  0.47546208  0.09320109  1  0.921658  0  0.127797  0.33941  0  4.096893  0
C  C97  1  0.88180681  0.52453874  0.59320075  1  0.921571  0  0.12779  0.339341  0  4.096945  0
C  C98  1  0.38180481  0.52453903  0.90680000  1  0.92155  0  0.127785  0.339387  0  4.096949  0
C  C99  1  0.11819257  0.47545828  0.40680034  1  0.921618  0  0.127779  0.339311  0  4.096966  0
C  C100  1  0.73431102  0.48737715  0.02937494  1  0.037213  0  -0.034895  -0.140871  0  4.025944  0
C  C101  1  0.76568895  0.51262210  0.52937508  1  0.037252  0  -0.034882  -0.140852  0  4.025903  0
C  C102  1  0.26568862  0.51262328  0.97062554  1  0.037449  0  -0.034849  -0.140861  0  4.025952  0
C  C103  1  0.23431126  0.48737697  0.47062661  1  0.037458  0  -0.034877  -0.140809  0  4.025853  0
C  C104  1  0.78276239  0.57176354  0.99537308  1  0.440705  0  0.035351  0.084017  0  3.889534  0
C  C105  1  0.71724074  0.42823721  0.49537221  1  0.44102  0  0.035357  0.083964  0  3.889551  0
C  C106  1  0.21723949  0.42823963  0.00462860  1  0.440726  0  0.035406  0.084106  0  3.889507  0
C  C107  1  0.28276113  0.57176323  0.50462647  1  0.440512  0  0.035369  0.084031  0  3.8896  0
C  C108  1  0.62191788  0.63948649  0.07178989  1  0.476579  0  0.08821  0.138513  0  4.005729  0
C  C109  1  0.87808395  0.36051427  0.57179101  1  0.476416  0  0.088256  0.138573  0  4.00566  0
C  C110  1  0.37807982  0.36051462  0.92820879  1  0.476874  0  0.088221  0.138555  0  4.005779  0
C  C111  1  0.12191376  0.63948412  0.42820948  1  0.476513  0  0.088271  0.138563  0  4.005687  0
C  C112  1  0.56855673  0.71785001  0.08690923  1  0.579934  0  0.082025  0.065666  0  4.022819  0
C  C113  1  0.93144739  0.28215080  0.58690662  1  0.580445  0  0.082008  0.065678  0  4.022787  0
C  C114  1  0.43144319  0.28215111  0.91309126  1  0.579863  0  0.082023  0.065633  0  4.022827  0
C  C115  1  0.06855421  0.71784895  0.41309146  1  0.580181  0  0.081989  0.065625  0  4.022958  0
C  C116  1  0.46867386  0.71582901  0.15229670  1  0.484037  0  0.096169  0.19432  0  4.019324  0
C  C117  1  0.03132630  0.28417158  0.65229494  1  0.483732  0  0.096198  0.194353  0  4.019225  0
C  C118  1  0.53132607  0.28417210  0.84770379  1  0.483886  0  0.096147  0.194312  0  4.019226  0
C  C119  1  0.96867196  0.71582816  0.34770314  1  0.483856  0  0.096178  0.194324  0  4.019189  0
C  C120  1  0.41590644  0.63487160  0.19656109  1  0.009627  0  -0.105317  -0.210891  0  4.044539  0
C  C121  1  0.08409364  0.36512845  0.69656075  1  0.009252  0  -0.105318  -0.210867  0  4.044502  0
C  C122  1  0.58409377  0.36513019  0.80343940  1  0.009672  0  -0.105318  -0.210894  0  4.04434  0
C  C123  1  0.91590490  0.63486925  0.30343673  1  0.009664  0  -0.105228  -0.210767  0  4.044383  0
C  C124  1  0.46494270  0.55737526  0.17794668  1  -0.071254  0  -0.088203  -0.077633  0  4.014503  0
C  C125  1  0.03505729  0.44262474  0.67794826  1  -0.071236  0  -0.088189  -0.077624  0  4.014513  0
C  C126  1  0.53505611  0.44262586  0.82205381  1  -0.071239  0  -0.088191  -0.077589  0  4.014441  0
C  C127  1  0.96494514  0.55737706  0.32205403  1  -0.071447  0  -0.088229  -0.077645  0  4.014655  0
C  C128  1  0.56980010  0.55829539  0.11537425  1  -0.027449  0  -0.040305  -0.131587  0  4.081516  0
C  C129  1  0.93019830  0.44170482  0.61537558  1  -0.027283  0  -0.040329  -0.131611  0  4.081502  0
C  C130  1  0.43019732  0.44170504  0.88462503  1  -0.027476  0  -0.040307  -0.131556  0  4.081522  0
C  C131  1  0.06980302  0.55829426  0.38462430  1  -0.027399  0  -0.040324  -0.131566  0  4.081591  0
C  C132  1  0.60638226  0.79050139  0.95693465  1  0.357791  0  -0.055736  -0.12474  0  3.815592  0
C  C133  1  0.89361876  0.20949718  0.45693348  1  0.35785  0  -0.055752  -0.124705  0  3.815482  0
C  C134  1  0.39361934  0.20949836  0.04306643  1  0.357858  0  -0.055747  -0.124738  0  3.815526  0
C  C135  1  0.10637978  0.79050052  0.54306581  1  0.35784  0  -0.055716  -0.124718  0  3.8155  0
C  C136  1  0.52776348  0.86148574  0.92593020  1  1.572513  0  0.20813  0.627418  0  4.191071  0
C  C137  1  0.97223517  0.13851274  0.42593075  1  1.572522  0  0.208158  0.62748  0  4.190932  0
C  C138  1  0.47223700  0.13851402  0.07406968  1  1.572525  0  0.208169  0.627475  0  4.191026  0
C  C139  1  0.02776532  0.86148702  0.57407094  1  1.572522  0  0.208111  0.627405  0  4.190979  0
C  C140  1  0.32826923  0.79484815  0.23656711  1  0.33278  0  -0.06064  -0.134913  0  3.854744  0
C  C141  1  0.17173129  0.20515272  0.73656711  1  0.332685  0  -0.060659  -0.134868  0  3.854815  0
C  C142  1  0.67172958  0.20515296  0.76343277  1  0.332655  0  -0.060685  -0.13489  0  3.854743  0
C  C143  1  0.82827031  0.79484704  0.26343097  1  0.332781  0  -0.060682  -0.134831  0  3.854919  0
C  C144  1  0.34023602  0.88993729  0.26904531  1  1.646052  0  0.239201  0.673846  0  4.14444  0
C  C145  1  0.15976660  0.11006300  0.76904630  1  1.645956  0  0.239207  0.673816  0  4.144397  0
C  C146  1  0.65976028  0.11006313  0.73095517  1  1.645973  0  0.239291  0.673903  0  4.144381  0
C  C147  1  0.84023751  0.88993744  0.23095538  1  1.646051  0  0.239219  0.673792  0  4.144393  0
O  O148  1  0.78447499  0.00581147  0.01825367  1  -1.220201  0  -0.399642  -0.669693  0  2.247793  0
O  O149  1  0.71552243  0.99418706  0.51825357  1  -1.220174  0  -0.399651  -0.669721  0  2.247933  0
O  O150  1  0.21551965  0.99418759  0.98174502  1  -1.220249  0  -0.399639  -0.669706  0  2.247886  0
O  O151  1  0.28447639  0.00581133  0.48174572  1  -1.220231  0  -0.399658  -0.669719  0  2.247803  0
O  O152  1  0.71951895  0.06433253  0.90164597  1  -1.194428  0  -0.378508  -0.640735  0  2.271136  0
O  O153  1  0.78048015  0.93566723  0.40164562  1  -1.194148  0  -0.378514  -0.640766  0  2.271146  0
O  O154  1  0.28047652  0.93566857  0.09835452  1  -1.194247  0  -0.378599  -0.640819  0  2.271009  0
O  O155  1  0.21951950  0.06433048  0.59835487  1  -1.19437  0  -0.378498  -0.640714  0  2.271127  0
O  O156  1  0.98406277  0.20325831  0.90938249  1  -1.083504  0  -0.175364  -0.176805  0  2.567558  0
O  O157  1  0.51593748  0.79674147  0.40938161  1  -1.083463  0  -0.175378  -0.176774  0  2.567521  0
O  O158  1  0.01593297  0.79674348  0.09061740  1  -1.083466  0  -0.175366  -0.176825  0  2.567577  0
O  O159  1  0.48406468  0.20325692  0.59061767  1  -1.08345  0  -0.175334  -0.176803  0  2.567567  0
O  O160  1  0.56070942  0.40131229  0.12716529  1  -1.121274  0  -0.292806  -0.443918  0  2.125759  0
O  O161  1  0.93929209  0.59869001  0.62716456  1  -1.121318  0  -0.292803  -0.44386  0  2.12579  0
O  O162  1  0.43929245  0.59868815  0.87283579  1  -1.121282  0  -0.292804  -0.443908  0  2.125882  0
O  O163  1  0.06070394  0.40130973  0.37283532  1  -1.12136  0  -0.292777  -0.443839  0  2.125867  0
O  O164  1  0.72885198  0.64566548  0.01225719  1  -1.09648  0  -0.111365  -0.093658  0  2.712488  0
O  O165  1  0.77114847  0.35433509  0.51225759  1  -1.096441  0  -0.111394  -0.093692  0  2.712396  0
O  O166  1  0.27115129  0.35433564  0.98774450  1  -1.096404  0  -0.111435  -0.093853  0  2.712405  0
O  O167  1  0.22885118  0.64566535  0.48774410  1  -1.096425  0  -0.111419  -0.093755  0  2.712398  0
O  O168  1  0.61499633  0.79661023  0.04373517  1  -1.097151  0  -0.178358  -0.195366  0  2.659978  0
O  O169  1  0.88500398  0.20338975  0.54373415  1  -1.09742  0  -0.178341  -0.195388  0  2.659834  0
O  O170  1  0.38500582  0.20339089  0.95626532  1  -1.097383  0  -0.17833  -0.195319  0  2.659944  0
O  O171  1  0.11499484  0.79660864  0.45626513  1  -1.097362  0  -0.178323  -0.195327  0  2.659965  0
O  O172  1  0.52096758  0.87552802  0.85190954  1  -1.161466  0  -0.335936  -0.582415  0  2.108403  0
O  O173  1  0.97903687  0.12447159  0.35190947  1  -1.161454  0  -0.335955  -0.582448  0  2.108197  0
O  O174  1  0.47903763  0.12447242  0.14808974  1  -1.161452  0  -0.335959  -0.582416  0  2.108341  0
O  O175  1  0.02096445  0.87552749  0.64808982  1  -1.16148  0  -0.335911  -0.582376  0  2.108427  0
O  O176  1  0.46947214  0.90630206  0.97815084  1  -1.220033  0  -0.458699  -0.761492  0  2.48642  0
O  O177  1  0.03052388  0.09369412  0.47815210  1  -1.220157  0  -0.458713  -0.761536  0  2.486417  0
O  O178  1  0.53052250  0.09369427  0.02184784  1  -1.220148  0  -0.458704  -0.761547  0  2.486451  0
O  O179  1  0.96946825  0.90630153  0.52184898  1  -1.220049  0  -0.458713  -0.761492  0  2.486279  0
O  O180  1  0.42658856  0.79496111  0.16843789  1  -1.089317  0  -0.185937  -0.217259  0  2.690088  0
O  O181  1  0.07341139  0.20503886  0.66843720  1  -1.089297  0  -0.185946  -0.217295  0  2.689975  0
O  O182  1  0.57341137  0.20504001  0.83156259  1  -1.089284  0  -0.185885  -0.217202  0  2.69006  0
O  O183  1  0.92658853  0.79496226  0.33156148  1  -1.089305  0  -0.185961  -0.217324  0  2.690147  0
O  O184  1  0.23987468  0.89214592  0.32136621  1  -1.204636  0  -0.403849  -0.666409  0  2.363132  0
O  O185  1  0.26013319  0.10785319  0.82136489  1  -1.204555  0  -0.403881  -0.66643  0  2.363234  0
O  O186  1  0.76013332  0.10785590  0.67863367  1  -1.204514  0  -0.403993  -0.666565  0  2.362984  0
O  O187  1  0.73987148  0.89214589  0.17863139  1  -1.20465  0  -0.403905  -0.666444  0  2.362947  0
O  O188  1  0.44661532  0.95744426  0.24737274  1  -1.201543  0  -0.373512  -0.638582  0  2.242722  0
O  O189  1  0.05338553  0.04255459  0.74737410  1  -1.201454  0  -0.373509  -0.638587  0  2.24263  0
O  O190  1  0.55338711  0.04255754  0.75262534  1  -1.201465  0  -0.373476  -0.638531  0  2.242887  0
O  O191  1  0.94661468  0.95744175  0.25262518  1  -1.201468  0  -0.373465  -0.63851  0  2.24285  0
O  O192  1  0.78207838  0.08437107  0.18894036  1  -1.225519  0  -0.60985  -0.829836  0  1.994149  0
O  O193  1  0.71791979  0.91562801  0.68894070  1  -1.225535  0  -0.609832  -0.829917  0  1.994052  0
O  O194  1  0.21791960  0.91562800  0.81106013  1  -1.225521  0  -0.609836  -0.829848  0  1.994157  0
O  O195  1  0.28207930  0.08437106  0.31105979  1  -1.225441  0  -0.609867  -0.829883  0  1.994086  0
