# generated using pymatgen
data_Zn4H16C28BrNO13
_symmetry_space_group_name_H-M   'P 1'
_cell_length_a   13.04063070
_cell_length_b   13.30450130
_cell_length_c   15.75701442
_cell_angle_alpha   70.63300540
_cell_angle_beta   75.02660525
_cell_angle_gamma   88.73912045
_symmetry_Int_Tables_number   1
_chemical_formula_structural   Zn4H16C28BrNO13
_chemical_formula_sum   'Zn4 H16 C28 Br1 N1 O13'
_cell_volume   2485.47018750
_cell_formula_units_Z   1
loop_
 _symmetry_equiv_pos_site_id
 _symmetry_equiv_pos_as_xyz
  1  'x, y, z'
loop_
 _atom_site_type_symbol
 _atom_site_label
 _atom_site_symmetry_multiplicity
 _atom_site_fract_x
 _atom_site_fract_y
 _atom_site_fract_z
 _atom_site_occupancy
 _atom_site_pbe_bader_charge
 _atom_site_pbe_bader_spin_density
 _atom_site_pbe_cm5_charge
 _atom_site_pbe_ddec_charge
 _atom_site_pbe_ddec_spin_density
 _atom_site_pbe_ddec_sum_bond_order
 _atom_site_pbe_magmom
Zn  Zn0  1  0.41333604  0.44113382  0.44358829  1  1.314643  0  0.671233  0.961214  0  2.402236  0
Zn  Zn1  1  0.57299623  0.39354463  0.57237208  1  1.31344  0  0.670831  0.964214  0  2.382178  0
Zn  Zn2  1  0.40747460  0.55847857  0.59507946  1  1.30652  0  0.669303  0.962706  0  2.356594  0
Zn  Zn3  1  0.59104490  0.61875580  0.39588011  1  1.315593  0  0.67167  0.973735  0  2.326998  0
H  H4  1  0.48533510  0.22759814  0.87004336  1  0.086432  0  0.10675  0.113199  0  0.993902  0
H  H5  1  0.58169227  0.74951872  0.11820104  1  0.0768  0  0.105536  0.109512  0  0.99356  0
H  H6  1  0.54910406  0.66610367  0.88496922  1  0.065225  0  0.102362  0.100091  0  1.0103  0
H  H7  1  0.58643550  0.80223086  0.94917837  1  0.062218  0  0.099889  0.098314  0  0.997998  0
H  H8  1  0.50877388  0.36920036  0.23937692  1  0.043449  0  0.098996  0.123884  0  1.030375  0
H  H9  1  0.88468695  0.46201153  0.59657625  1  0.122264  0  0.113899  0.114003  0  0.97106  0
H  H10  1  0.47781212  0.19164449  0.25348983  1  0.420106  0  0.274707  0.266845  0  1.032961  0
H  H11  1  0.45763456  0.15398282  0.16676773  1  0.430444  0  0.297109  0.284179  0  0.970958  0
H  H12  1  0.09930615  0.52104144  0.44015748  1  0.143026  0  0.112954  0.112517  0  0.975161  0
H  H13  1  0.93766236  0.57391042  0.38290587  1  0.109638  0  0.114641  0.134052  0  0.975771  0
H  H14  1  0.05500108  0.46978903  0.65289496  1  0.123561  0  0.115042  0.136239  0  0.975443  0
H  H15  1  0.48295284  0.90416087  0.56610877  1  0.119158  0  0.117886  0.129233  0  0.960603  0
H  H16  1  0.54406440  0.06871041  0.56768673  1  0.083353  0  0.11918  0.151353  0  0.96961  0
H  H17  1  0.42513690  0.93391405  0.38173274  1  0.122583  0  0.106772  0.124  0  1.003524  0
H  H18  1  0.49170005  0.17777769  0.03363448  1  0.050613  0  0.102611  0.097701  0  1.011857  0
H  H19  1  0.49754263  0.55886932  0.84149134  1  0.097736  0  0.105789  0.109527  0  1.017  0
C  C20  1  0.77338421  0.52754471  0.46855031  1  1.546427  0  0.221564  0.648083  0  4.17507  0
C  C21  1  0.49815947  0.47621559  0.88527375  1  -0.087686  0  -0.075574  -0.127564  0  3.926443  0
C  C22  1  0.48949028  0.28869036  0.90118443  1  -0.03771  0  -0.087112  -0.097652  0  4.01005  0
C  C23  1  0.21623793  0.49086416  0.55853376  1  1.53958  0  0.218494  0.643244  0  4.175156  0
C  C24  1  0.54162500  0.58418629  0.14773705  1  -0.028505  0  -0.020682  -0.095664  0  3.92913  0
C  C25  1  0.09880744  0.48438997  0.58034694  1  -0.069798  0  -0.086683  -0.230522  0  3.873588  0
C  C26  1  0.04934321  0.50177412  0.51168556  1  -0.074132  0  -0.069739  -0.025319  0  4.007013  0
C  C27  1  0.88996893  0.53403232  0.45433538  1  0.018713  0  -0.085238  -0.22638  0  3.873733  0
C  C28  1  0.93583301  0.49701944  0.52557687  1  -0.122209  0  -0.069154  -0.027618  0  4.004592  0
C  C29  1  0.44619849  0.89377821  0.44690186  1  -0.090501  0  -0.082156  -0.191527  0  3.884555  0
C  C30  1  0.45594400  0.94648215  0.50422690  1  -0.00815  0  -0.083506  -0.103827  0  4.016806  0
C  C31  1  0.56817801  0.71911024  0.99437347  1  -0.000114  0  -0.104775  -0.109148  0  4.08212  0
C  C32  1  0.49082627  0.11364641  0.52780669  1  0.059274  0  -0.097731  -0.294478  0  3.866422  0
C  C33  1  0.44007469  0.05876702  0.49019946  1  -0.090763  0  0.002528  0.155531  0  3.969105  0
C  C34  1  0.49062754  0.22735528  0.51952312  1  1.55896  0  0.216334  0.656639  0  4.176307  0
C  C35  1  0.47093890  0.77994901  0.46617925  1  1.58827  0  0.225048  0.652105  0  4.164205  0
C  C36  1  0.48313005  0.42638855  0.74930781  1  1.53174  0  0.22481  0.605178  0  4.160391  0
C  C37  1  0.53056691  0.56230578  0.24903412  1  1.560531  0  0.227087  0.611472  0  4.150263  0
C  C38  1  0.49292309  0.26198388  0.99269522  1  -0.050922  0  -0.094079  -0.127187  0  4.017504  0
C  C39  1  0.48951746  0.39712315  0.84738108  1  0.024865  0  -0.021488  -0.038462  0  4.005123  0
C  C40  1  0.56587620  0.68979831  0.08885701  1  -0.051974  0  -0.085929  -0.087731  0  4.00697  0
C  C41  1  0.54690300  0.64204455  0.95860469  1  -0.037401  0  -0.086297  -0.113987  0  4.007051  0
C  C42  1  0.52555827  0.53356866  0.01468344  1  -0.046825  0  -0.010124  0.012094  0  3.96158  0
C  C43  1  0.52442733  0.50248145  0.11118545  1  0.009765  0  0.00038  0.090013  0  3.98647  0
C  C44  1  0.50805915  0.45131383  0.97690820  1  -0.027506  0  -0.000885  0.043673  0  3.969723  0
C  C45  1  0.50083774  0.34120423  0.03282252  1  0.032015  0  -0.005749  -0.004945  0  3.956714  0
C  C46  1  0.50181700  0.31305593  0.12929460  1  0.420062  0  0.093563  0.259626  0  4.107586  0
C  C47  1  0.51103068  0.39220205  0.16588914  1  0.031338  0  -0.11605  -0.272054  0  3.965558  0
Br  Br48  1  0.34510080  0.12132396  0.41660838  1  -0.024901  0  0.077611  -0.014407  0  1.474088  0
N  N49  1  0.49689140  0.20649619  0.18349230  1  -1.218127  0  -0.604488  -0.610841  0  3.349913  0
O  O50  1  0.49804673  0.50547236  0.50053059  1  -1.236422  0  -0.57574  -1.036204  0  2.544892  0
O  O51  1  0.51258520  0.35816258  0.70811703  1  -1.176562  0  -0.320908  -0.557862  0  2.316695  0
O  O52  1  0.58969898  0.61993928  0.27074180  1  -1.172979  0  -0.316387  -0.549744  0  2.318994  0
O  O53  1  0.44907140  0.51728600  0.71276941  1  -1.165178  0  -0.316977  -0.544642  0  2.30678  0
O  O54  1  0.46008676  0.48942637  0.30747534  1  -1.175739  0  -0.316507  -0.549639  0  2.366926  0
O  O55  1  0.42215864  0.28471438  0.48482142  1  -1.171017  0  -0.317581  -0.557233  0  2.372731  0
O  O56  1  0.53278629  0.75771371  0.39850705  1  -1.16289  0  -0.315249  -0.545433  0  2.26395  0
O  O57  1  0.71883557  0.45490121  0.54165048  1  -1.174563  0  -0.321294  -0.55655  0  2.311366  0
O  O58  1  0.25771435  0.50934243  0.61780529  1  -1.158379  0  -0.320137  -0.551522  0  2.263858  0
O  O59  1  0.73812494  0.59564503  0.40546722  1  -1.164777  0  -0.32009  -0.552293  0  2.277594  0
O  O60  1  0.26662418  0.47817113  0.48196460  1  -1.180333  0  -0.321419  -0.554655  0  2.321012  0
O  O61  1  0.56260440  0.25818374  0.54954625  1  -1.159942  0  -0.321281  -0.547274  0  2.26696  0
O  O62  1  0.42803066  0.71599277  0.54813969  1  -1.162335  0  -0.313571  -0.541815  0  2.293886  0
