# generated using pymatgen
data_CdH22C24S2(NO)4
_symmetry_space_group_name_H-M   'P 1'
_cell_length_a   9.09713815
_cell_length_b   10.90744263
_cell_length_c   14.01032390
_cell_angle_alpha   73.88994985
_cell_angle_beta   72.99611823
_cell_angle_gamma   68.12792381
_symmetry_Int_Tables_number   1
_chemical_formula_structural   CdH22C24S2(NO)4
_chemical_formula_sum   'Cd2 H44 C48 S4 N8 O8'
_cell_volume   1211.27521726
_cell_formula_units_Z   2
loop_
 _symmetry_equiv_pos_site_id
 _symmetry_equiv_pos_as_xyz
  1  'x, y, z'
loop_
 _atom_site_type_symbol
 _atom_site_label
 _atom_site_symmetry_multiplicity
 _atom_site_fract_x
 _atom_site_fract_y
 _atom_site_fract_z
 _atom_site_occupancy
 _atom_site_hle17_bader_spin_density
 _atom_site_hle17_ddec_charge
 _atom_site_hle17_ddec_spin_density
 _atom_site_hle17_ddec_sum_bond_order
 _atom_site_hle17_magmom
 _atom_site_hse06_10hf_bader_spin_density
 _atom_site_hse06_10hf_ddec_charge
 _atom_site_hse06_10hf_ddec_spin_density
 _atom_site_hse06_10hf_ddec_sum_bond_order
 _atom_site_hse06_10hf_magmom
 _atom_site_hse06_bader_spin_density
 _atom_site_hse06_ddec_charge
 _atom_site_hse06_ddec_spin_density
 _atom_site_hse06_ddec_sum_bond_order
 _atom_site_hse06_magmom
 _atom_site_pbe_bader_spin_density
 _atom_site_pbe_cm5_charge
 _atom_site_pbe_ddec_charge
 _atom_site_pbe_ddec_spin_density
 _atom_site_pbe_ddec_sum_bond_order
 _atom_site_pbe_magmom
Cd  Cd0  1  0.44616149  0.23373169  0.48829560  1  0  1.141064  0  1.683543  0  0  0.94204  0  2.130632  0  0  0.993379  0  2.085952  0  0  0.824403  0.90572  0  2.161088  0
Cd  Cd1  1  0.55383870  0.76626808  0.51170523  1  0  1.141079  0  1.683544  0  0  0.942053  0  2.13064  0  0  0.993389  0  2.085963  0  0  0.824404  0.905732  0  2.16109  0
H  H2  1  0.74913238  0.23330389  0.53584345  1  0  0.087815  0  0.956258  0  0  0.09566  0  1.021024  0  0  0.09818  0  1.018763  0  0  0.114605  0.093561  0  1.023186  0
H  H3  1  0.25086131  0.76670095  0.46416036  1  0  0.087818  0  0.9562  0  0  0.095654  0  1.020994  0  0  0.098187  0  1.0187  0  0  0.1146  0.093554  0  1.023153  0
H  H4  1  0.99777297  0.07877033  0.59976329  1  0  0.114349  0  0.958353  0  0  0.121644  0  1.021021  0  0  0.124896  0  1.020631  0  0  0.106272  0.11944  0  1.021131  0
H  H5  1  0.00222341  0.92123348  0.40023810  1  0  0.1144  0  0.958274  0  0  0.121685  0  1.020948  0  0  0.124942  0  1.020553  0  0  0.106277  0.119483  0  1.021055  0
H  H6  1  0.01276661  0.83901471  0.67700650  1  0  0.106582  0  0.953362  0  0  0.118269  0  1.011406  0  0  0.121015  0  1.008854  0  0  0.109491  0.116223  0  1.013304  0
H  H7  1  0.98723362  0.16098807  0.32299010  1  0  0.106567  0  0.953376  0  0  0.118249  0  1.011418  0  0  0.121003  0  1.008858  0  0  0.109484  0.11621  0  1.013316  0
H  H8  1  0.77394752  0.76568754  0.69174927  1  0  0.111056  0  0.962525  0  0  0.120317  0  1.025226  0  0  0.123412  0  1.024717  0  0  0.105152  0.117836  0  1.02624  0
H  H9  1  0.22605500  0.23431222  0.30824827  1  0  0.111035  0  0.962539  0  0  0.120297  0  1.025239  0  0  0.123393  0  1.024727  0  0  0.105144  0.117807  0  1.026264  0
H  H10  1  0.15921528  0.19517702  0.78033228  1  0  0.105163  0  0.965299  0  0  0.114921  0  1.028702  0  0  0.117667  0  1.027121  0  0  0.107892  0.112755  0  1.030277  0
H  H11  1  0.84078606  0.80482274  0.21966905  1  0  0.105212  0  0.965226  0  0  0.114969  0  1.028631  0  0  0.117716  0  1.027047  0  0  0.107932  0.112817  0  1.030192  0
H  H12  1  0.10710692  0.19229638  0.96547101  1  0  0.086448  0  0.972989  0  0  0.097243  0  1.036422  0  0  0.099909  0  1.035973  0  0  0.098656  0.095163  0  1.037245  0
H  H13  1  0.89289670  0.80770037  0.03453054  1  0  0.086486  0  0.972997  0  0  0.097288  0  1.036419  0  0  0.099954  0  1.035967  0  0  0.098677  0.095205  0  1.037245  0
H  H14  1  0.40529480  0.77718085  0.01129483  1  0  0.095092  0  0.954738  0  0  0.107537  0  1.011729  0  0  0.110386  0  1.011294  0  0  0.100357  0.105504  0  1.012199  0
H  H15  1  0.59470962  0.22281689  0.98870279  1  0  0.095131  0  0.954676  0  0  0.107572  0  1.011679  0  0  0.110423  0  1.011241  0  0  0.100368  0.105537  0  1.012154  0
H  H16  1  0.45254859  0.77892980  0.82698173  1  0  0.105086  0  0.93451  0  0  0.117661  0  0.990556  0  0  0.120642  0  0.989126  0  0  0.108767  0.115162  0  0.992266  0
H  H17  1  0.54745277  0.22106996  0.17301603  1  0  0.105135  0  0.934444  0  0  0.117689  0  0.990516  0  0  0.120671  0  0.989084  0  0  0.108784  0.115188  0  0.992228  0
H  H18  1  0.14487302  0.08268981  0.13160793  1  0  0.110223  0  0.948159  0  0  0.131425  0  1.008559  0  0  0.133029  0  1.008241  0  0  0.092305  0.13028  0  1.008729  0
H  H19  1  0.85512986  0.91730894  0.86839048  1  0  0.110228  0  0.94818  0  0  0.131431  0  1.008569  0  0  0.133034  0  1.008251  0  0  0.092315  0.130287  0  1.008735  0
H  H20  1  0.33649743  0.95762414  0.13755937  1  0  0.114539  0  0.933713  0  0  0.138147  0  0.98969  0  0  0.139437  0  0.990273  0  0  0.094318  0.137224  0  0.989232  0
H  H21  1  0.66350429  0.04237463  0.86244282  1  0  0.114528  0  0.933665  0  0  0.138138  0  0.989649  0  0  0.139429  0  0.990231  0  0  0.094324  0.137213  0  0.989192  0
H  H22  1  0.16196078  0.91020866  0.15912943  1  0  0.108976  0  0.964737  0  0  0.130659  0  1.026874  0  0  0.131545  0  1.027388  0  0  0.091557  0.129907  0  1.02658  0
H  H23  1  0.83804172  0.08979110  0.84086954  1  0  0.108989  0  0.964741  0  0  0.130673  0  1.026882  0  0  0.131557  0  1.027398  0  0  0.091566  0.129925  0  1.026583  0
H  H24  1  0.03679712  0.38334188  0.43464490  1  0  0.087278  0  0.935524  0  0  0.099126  0  0.993131  0  0  0.100904  0  0.991855  0  0  0.117431  0.097595  0  0.994526  0
H  H25  1  0.96320652  0.61665486  0.56535380  1  0  0.087262  0  0.935523  0  0  0.09912  0  0.99315  0  0  0.100898  0  0.991874  0  0  0.117421  0.09759  0  0.994543  0
H  H26  1  0.90876151  0.61064793  0.33955859  1  0  0.10837  0  0.974146  0  0  0.113673  0  1.044703  0  0  0.117241  0  1.043392  0  0  0.100831  0.111093  0  1.04585  0
H  H27  1  0.09123558  0.38934785  0.66044369  1  0  0.108372  0  0.974144  0  0  0.113675  0  1.04471  0  0  0.117243  0  1.043396  0  0  0.100843  0.111099  0  1.045848  0
H  H28  1  0.07599596  0.76716414  0.26262484  1  0  0.07419  0  0.975676  0  0  0.087055  0  1.037968  0  0  0.089168  0  1.03587  0  0  0.09904  0.085639  0  1.039139  0
H  H29  1  0.92399884  0.23283466  0.73737864  1  0  0.074205  0  0.975618  0  0  0.087068  0  1.037917  0  0  0.089194  0  1.035802  0  0  0.099042  0.085622  0  1.039118  0
H  H30  1  0.36145470  0.69161432  0.28240126  1  0  0.110567  0  0.976284  0  0  0.11824  0  1.04143  0  0  0.121506  0  1.040994  0  0  0.100911  0.115765  0  1.04223  0
H  H31  1  0.63854127  0.30838447  0.71759987  1  0  0.110593  0  0.976223  0  0  0.118233  0  1.0414  0  0  0.1215  0  1.040963  0  0  0.100927  0.11576  0  1.042203  0
H  H32  1  0.77754397  0.28752104  0.23302597  1  0  0.112166  0  0.980279  0  0  0.119126  0  1.047334  0  0  0.122829  0  1.044437  0  0  0.104512  0.116478  0  1.049482  0
H  H33  1  0.22245585  0.71247973  0.76697328  1  0  0.112124  0  0.980331  0  0  0.119121  0  1.047348  0  0  0.122824  0  1.044449  0  0  0.104523  0.116472  0  1.04949  0
H  H34  1  0.84941902  0.29495122  0.04703362  1  0  0.086735  0  0.965877  0  0  0.099536  0  1.024626  0  0  0.102083  0  1.024437  0  0  0.096843  0.097535  0  1.025305  0
H  H35  1  0.15058042  0.70505056  0.95296549  1  0  0.08673  0  0.965862  0  0  0.09953  0  1.024613  0  0  0.102075  0  1.024425  0  0  0.096832  0.097526  0  1.025292  0
H  H36  1  0.70062037  0.72739264  0.99285504  1  0  0.087097  0  0.96453  0  0  0.099364  0  1.024849  0  0  0.101856  0  1.024774  0  0  0.098271  0.097648  0  1.024956  0
H  H37  1  0.29938060  0.27260814  0.00714543  1  0  0.087119  0  0.964518  0  0  0.09937  0  1.024856  0  0  0.101862  0  1.024779  0  0  0.098279  0.097655  0  1.024962  0
H  H38  1  0.62880145  0.72015653  0.17997128  1  0  0.098928  0  0.965829  0  0  0.108621  0  1.028495  0  0  0.111599  0  1.026869  0  0  0.101622  0.10632  0  1.030028  0
H  H39  1  0.37119607  0.27984426  0.82002840  1  0  0.098962  0  0.965759  0  0  0.108594  0  1.028506  0  0  0.111565  0  1.026881  0  0  0.101615  0.106294  0  1.030039  0
H  H40  1  0.80212984  0.61863183  0.85058245  1  0  0.106159  0  0.951534  0  0  0.127514  0  1.012122  0  0  0.129307  0  1.011309  0  0  0.089432  0.126232  0  1.01267  0
H  H41  1  0.19786923  0.38137097  0.14941794  1  0  0.10618  0  0.951511  0  0  0.127542  0  1.012082  0  0  0.129336  0  1.011269  0  0  0.089446  0.126262  0  1.012631  0
H  H42  1  0.75666505  0.46687913  0.87222371  1  0  0.111578  0  0.945735  0  0  0.133215  0  1.004291  0  0  0.134261  0  1.00501  0  0  0.090416  0.132425  0  1.003798  0
H  H43  1  0.24333286  0.53312367  0.12777619  1  0  0.11162  0  0.945765  0  0  0.133252  0  1.004312  0  0  0.134296  0  1.005034  0  0  0.09044  0.132464  0  1.003815  0
H  H44  1  0.95478259  0.46098733  0.86932259  1  0  0.112885  0  0.95176  0  0  0.133535  0  1.014763  0  0  0.133856  0  1.017026  0  0  0.090809  0.133241  0  1.0132  0
H  H45  1  0.04521648  0.53901546  0.13067637  1  0  0.112913  0  0.951738  0  0  0.133535  0  1.01478  0  0  0.133856  0  1.017044  0  0  0.090803  0.133239  0  1.013221  0
C  C46  1  0.75927590  0.12925521  0.57281963  1  0  0.14809  0  3.698363  0  0  0.117054  0  3.946864  0  0  0.125872  0  3.964393  0  0  0.043866  0.111208  0  3.935414  0
C  C47  1  0.24072047  0.87074861  0.42718319  1  0  0.148113  0  3.698418  0  0  0.117054  0  3.946926  0  0  0.125873  0  3.964464  0  0  0.043855  0.111202  0  3.935473  0
C  C48  1  0.89675679  0.04338241  0.60819780  1  0  -0.134815  0  3.734379  0  0  -0.147323  0  3.986327  0  0  -0.156317  0  4.00885  0  0  -0.091635  -0.141618  0  3.971215  0
C  C49  1  0.10324074  0.95662140  0.39180409  1  0  -0.134862  0  3.734434  0  0  -0.147346  0  3.986367  0  0  -0.156345  0  4.008893  0  0  -0.091585  -0.14164  0  3.971255  0
C  C50  1  0.90451364  0.90973552  0.65117057  1  0  0.014261  0  3.728086  0  0  -0.00471  0  3.973877  0  0  0.001437  0  3.990931  0  0  -0.066712  -0.008493  0  3.962297  0
C  C51  1  0.09548696  0.09026626  0.34882832  1  0  0.014223  0  3.728168  0  0  -0.00474  0  3.973955  0  0  0.001397  0  3.991011  0  0  -0.066751  -0.008531  0  3.962384  0
C  C52  1  0.77400014  0.86847255  0.65857476  1  0  -0.20709  0  3.69043  0  0  -0.221985  0  3.940474  0  0  -0.232758  0  3.961157  0  0  -0.092401  -0.215015  0  3.926947  0
C  C53  1  0.22599931  0.13152923  0.34142363  1  0  -0.207033  0  3.690463  0  0  -0.221934  0  3.940507  0  0  -0.232713  0  3.961204  0  0  -0.092378  -0.214963  0  3.926989  0
C  C54  1  0.63837596  0.95995228  0.62042407  1  0  0.436296  0  3.836494  0  0  0.410822  0  4.096308  0  0  0.428111  0  4.113856  0  0  0.208936  0.399406  0  4.083718  0
C  C55  1  0.36162348  0.04004950  0.37957647  1  0  0.436333  0  3.836437  0  0  0.410868  0  4.09624  0  0  0.42816  0  4.113784  0  0  0.208969  0.399468  0  4.083632  0
C  C56  1  0.30604949  0.98706307  0.79357352  1  0  -0.121567  0  3.750212  0  0  -0.097541  0  4.001716  0  0  -0.105394  0  4.024746  0  0  -0.026005  -0.092597  0  3.986218  0
C  C57  1  0.69395149  0.01293770  0.20642552  1  0  -0.121575  0  3.750314  0  0  -0.09753  0  4.001779  0  0  -0.105394  0  4.024835  0  0  -0.025994  -0.092598  0  3.986291  0
C  C58  1  0.20972959  0.10352246  0.83188395  1  0  -0.061357  0  3.766434  0  0  -0.085826  0  4.014668  0  0  -0.083973  0  4.034333  0  0  -0.086171  -0.086852  0  4.001729  0
C  C59  1  0.79027212  0.89647630  0.16811752  1  0  -0.061322  0  3.766375  0  0  -0.085797  0  4.014613  0  0  -0.083943  0  4.034281  0  0  -0.086189  -0.086831  0  4.001662  0
C  C60  1  0.18218958  0.10110246  0.93558138  1  0  -0.132505  0  3.738647  0  0  -0.148606  0  3.979986  0  0  -0.154116  0  4.002154  0  0  -0.093273  -0.144948  0  3.965358  0
C  C61  1  0.81781329  0.89889630  0.06441988  1  0  -0.132644  0  3.738804  0  0  -0.14873  0  3.980178  0  0  -0.154239  0  4.002345  0  0  -0.093332  -0.145072  0  3.965552  0
C  C62  1  0.25164062  0.98478427  0.00170601  1  0  0.153804  0  3.756025  0  0  0.179801  0  3.988072  0  0  0.182621  0  4.012307  0  0  -0.00387  0.177902  0  3.971423  0
C  C63  1  0.74836494  0.01521346  0.99829354  1  0  0.153814  0  3.756029  0  0  0.179733  0  3.988204  0  0  0.18255  0  4.01244  0  0  -0.003896  0.177825  0  3.971562  0
C  C64  1  0.34987144  0.86899016  0.96108992  1  0  -0.136702  0  3.727187  0  0  -0.152037  0  3.968963  0  0  -0.15687  0  3.989729  0  0  -0.092079  -0.148642  0  3.95501  0
C  C65  1  0.65013296  0.13100758  0.03890984  1  0  -0.136773  0  3.727113  0  0  -0.152083  0  3.968903  0  0  -0.156914  0  3.989668  0  0  -0.09211  -0.148683  0  3.954949  0
C  C66  1  0.37732741  0.86928524  0.85790358  1  0  -0.057734  0  3.76114  0  0  -0.083321  0  4.01374  0  0  -0.081837  0  4.033646  0  0  -0.083488  -0.08416  0  4.000762  0
C  C67  1  0.62267547  0.13071352  0.14209625  1  0  -0.057734  0  3.761177  0  0  -0.083305  0  4.013767  0  0  -0.081821  0  4.033676  0  0  -0.08347  -0.084143  0  4.000789  0
C  C68  1  0.22235952  0.98427878  0.11295096  1  0  -0.336583  0  3.733662  0  0  -0.418196  0  3.968288  0  0  -0.420992  0  3.978038  0  0  -0.238331  -0.415878  0  3.961401  0
C  C69  1  0.77764374  0.01571897  0.88704902  1  0  -0.336575  0  3.733592  0  0  -0.418172  0  3.968265  0  0  -0.420968  0  3.978015  0  0  -0.238352  -0.415859  0  3.961386  0
C  C70  1  0.10483661  0.45399380  0.39959617  1  0  0.152286  0  3.748029  0  0  0.118572  0  4.002513  0  0  0.129173  0  4.01955  0  0  0.046533  0.11171  0  3.991046  0
C  C71  1  0.89516622  0.54599893  0.60040426  1  0  0.152319  0  3.747999  0  0  0.118552  0  4.002553  0  0  0.129152  0  4.019589  0  0  0.046571  0.111689  0  3.991091  0
C  C72  1  0.03442282  0.58036549  0.34556949  1  0  -0.162679  0  3.756051  0  0  -0.177071  0  4.01526  0  0  -0.186658  0  4.036439  0  0  -0.106598  -0.170671  0  4.000686  0
C  C73  1  0.96557621  0.41963128  0.65443078  1  0  -0.162709  0  3.756195  0  0  -0.177107  0  4.015453  0  0  -0.186691  0  4.036632  0  0  -0.106654  -0.170708  0  4.000866  0
C  C74  1  0.12868383  0.66606632  0.30326860  1  0  0.003705  0  3.784424  0  0  -0.014005  0  4.030632  0  0  -0.007376  0  4.048547  0  0  -0.074792  -0.017695  0  4.017608  0
C  C75  1  0.87131369  0.33393447  0.69673108  1  0  0.003807  0  3.784419  0  0  -0.013894  0  4.030596  0  0  -0.007274  0  4.048507  0  0  -0.074735  -0.017557  0  4.017582  0
C  C76  1  0.28803719  0.62490863  0.31375719  1  0  -0.239735  0  3.724644  0  0  -0.250887  0  3.971034  0  0  -0.262914  0  3.992162  0  0  -0.10572  -0.243198  0  3.95708  0
C  C77  1  0.71196302  0.37509114  0.68624149  1  0  -0.239878  0  3.724725  0  0  -0.251004  0  3.971113  0  0  -0.263029  0  3.992242  0  0  -0.105767  -0.243314  0  3.957161  0
C  C78  1  0.35156195  0.49564638  0.37024903  1  0  0.440823  0  3.844512  0  0  0.416688  0  4.0953  0  0  0.436697  0  4.111271  0  0  0.208119  0.403342  0  4.083931  0
C  C79  1  0.64843786  0.50435139  0.62974945  1  0  0.440987  0  3.844423  0  0  0.416879  0  4.09515  0  0  0.436888  0  4.111115  0  0  0.2082  0.403532  0  4.083788  0
C  C80  1  0.70090723  0.50398828  0.21683633  1  0  -0.132669  0  3.768872  0  0  -0.107743  0  4.01739  0  0  -0.11551  0  4.040382  0  0  -0.028168  -0.10279  0  4.001759  0
C  C81  1  0.29909182  0.49601150  0.78316329  1  0  -0.132579  0  3.768807  0  0  -0.107719  0  4.017407  0  0  -0.115488  0  4.040397  0  0  -0.028156  -0.102771  0  4.001783  0
C  C82  1  0.76315393  0.38360022  0.18004547  1  0  -0.063053  0  3.753176  0  0  -0.087519  0  4.001071  0  0  -0.085942  0  4.02022  0  0  -0.087202  -0.088153  0  3.98805  0
C  C83  1  0.23684436  0.61640157  0.81995457  1  0  -0.063048  0  3.753175  0  0  -0.087525  0  4.001082  0  0  -0.08595  0  4.020235  0  0  -0.087226  -0.088157  0  3.988054  0
C  C84  1  0.80272782  0.38874747  0.07561200  1  0  -0.131868  0  3.729039  0  0  -0.147262  0  3.969011  0  0  -0.15262  0  3.990899  0  0  -0.094101  -0.143651  0  3.954594  0
C  C85  1  0.19727085  0.61125331  0.92438747  1  0  -0.13188  0  3.729026  0  0  -0.147258  0  3.969008  0  0  -0.152616  0  3.990898  0  0  -0.094111  -0.143642  0  3.954587  0
C  C86  1  0.78147162  0.51197293  0.00633331  1  0  0.155674  0  3.758226  0  0  0.183131  0  3.987825  0  0  0.186217  0  4.01182  0  0  -0.005457  0.180962  0  3.971404  0
C  C87  1  0.21852590  0.48802786  0.99366637  1  0  0.155675  0  3.758124  0  0  0.183103  0  3.987757  0  0  0.186187  0  4.011755  0  0  -0.005455  0.180928  0  3.971339  0
C  C88  1  0.71816205  0.63068355  0.04528146  1  0  -0.14607  0  3.75825  0  0  -0.163394  0  4.003082  0  0  -0.168895  0  4.024936  0  0  -0.097846  -0.159608  0  3.988224  0
C  C89  1  0.28183624  0.36931825  0.95471858  1  0  -0.146066  0  3.758241  0  0  -0.163361  0  4.00305  0  0  -0.168862  0  4.024903  0  0  -0.097845  -0.159577  0  3.988198  0
C  C90  1  0.67716197  0.62764554  0.14993292  1  0  -0.075331  0  3.796508  0  0  -0.100726  0  4.049258  0  0  -0.099046  0  4.069087  0  0  -0.092173  -0.101415  0  4.0359  0
C  C91  1  0.32283632  0.37235625  0.85006640  1  0  -0.075418  0  3.796482  0  0  -0.100744  0  4.049258  0  0  -0.099054  0  4.069078  0  0  -0.092184  -0.10144  0  4.035911  0
C  C92  1  0.82556398  0.51519439  0.89392401  1  0  -0.339404  0  3.735433  0  0  -0.418736  0  3.966505  0  0  -0.421594  0  3.976379  0  0  -0.240159  -0.416386  0  3.959502  0
C  C93  1  0.17443393  0.48480841  0.10607588  1  0  -0.339504  0  3.735393  0  0  -0.418813  0  3.96649  0  0  -0.421667  0  3.976365  0  0  -0.240198  -0.416462  0  3.959487  0
S  S94  1  0.32952800  0.98431822  0.66346346  1  0  1.221338  0  5.503842  0  0  1.126653  0  6.009195  0  0  1.17182  0  5.994375  0  0  0.539429  1.095731  0  6.018117  0
S  S95  1  0.67047066  0.01568256  0.33653744  1  0  1.221392  0  5.503804  0  0  1.126704  0  6.009157  0  0  1.171869  0  5.994348  0  0  0.539425  1.095795  0  6.018071  0
S  S96  1  0.64771599  0.49678808  0.35072979  1  0  1.246393  0  5.467589  0  0  1.153816  0  5.976495  0  0  1.199376  0  5.9614  0  0  0.548492  1.122344  0  5.985914  0
S  S97  1  0.35228231  0.50321371  0.64926954  1  0  1.246456  0  5.467458  0  0  1.153884  0  5.976385  0  0  1.199447  0  5.961288  0  0  0.548482  1.122415  0  5.9858  0
N  N98  1  0.51515584  0.91191431  0.62209329  1  0  -0.75996  0  3.157537  0  0  -0.691958  0  3.474109  0  0  -0.71928  0  3.475425  0  0  -0.430004  -0.672788  0  3.471846  0
N  N99  1  0.48484512  0.08808647  0.37790718  1  0  -0.760011  0  3.157583  0  0  -0.692017  0  3.47415  0  0  -0.719335  0  3.475465  0  0  -0.430028  -0.672856  0  3.471891  0
N  N100  1  0.63347831  0.08866657  0.57777709  1  0  -0.430366  0  3.235846  0  0  -0.344472  0  3.493118  0  0  -0.368237  0  3.510117  0  0  -0.344312  -0.328275  0  3.481055  0
N  N101  1  0.36651804  0.91133423  0.42222567  1  0  -0.430361  0  3.235841  0  0  -0.344453  0  3.493099  0  0  -0.368221  0  3.510101  0  0  -0.344314  -0.328259  0  3.481029  0
N  N102  1  0.50279963  0.43402761  0.39216703  1  0  -0.71753  0  3.111737  0  0  -0.64887  0  3.419005  0  0  -0.679514  0  3.423505  0  0  -0.414105  -0.627504  0  3.415146  0
N  N103  1  0.49720057  0.56597216  0.60783237  1  0  -0.717597  0  3.111775  0  0  -0.648955  0  3.419055  0  0  -0.679594  0  3.423551  0  0  -0.41411  -0.627589  0  3.415195  0
N  N104  1  0.25756165  0.41366718  0.41196130  1  0  -0.436683  0  3.192395  0  0  -0.354769  0  3.454401  0  0  -0.379031  0  3.469788  0  0  -0.345759  -0.338269  0  3.443301  0
N  N105  1  0.74243816  0.58633059  0.58803646  1  0  -0.436814  0  3.192228  0  0  -0.354892  0  3.454275  0  0  -0.379155  0  3.469659  0  0  -0.34583  -0.338392  0  3.443182  0
O  O106  1  0.24291370  0.89783278  0.65986487  1  0  -0.615036  0  1.987271  0  0  -0.566458  0  2.243035  0  0  -0.587967  0  2.232043  0  0  -0.314757  -0.551244  0  2.25011  0
O  O107  1  0.75708611  0.10216800  0.34013653  1  0  -0.615088  0  1.98725  0  0  -0.566499  0  2.243023  0  0  -0.588003  0  2.232019  0  0  -0.314753  -0.551289  0  2.250098  0
O  O108  1  0.26430504  0.12650905  0.61467376  1  0  -0.653277  0  1.991714  0  0  -0.586702  0  2.261109  0  0  -0.608986  0  2.246054  0  0  -0.335264  -0.570926  0  2.27079  0
O  O109  1  0.73569400  0.87349073  0.38532728  1  0  -0.653283  0  1.991651  0  0  -0.586719  0  2.261052  0  0  -0.609001  0  2.246  0  0  -0.335263  -0.570947  0  2.270735  0
O  O110  1  0.60059482  0.63640266  0.36350439  1  0  -0.657343  0  1.977985  0  0  -0.602767  0  2.249995  0  0  -0.624625  0  2.236376  0  0  -0.331488  -0.587319  0  2.259033  0
O  O111  1  0.39940232  0.36359914  0.63649515  1  0  -0.657341  0  1.977953  0  0  -0.60278  0  2.249969  0  0  -0.624644  0  2.236357  0  0  -0.331468  -0.587337  0  2.259009  0
O  O112  1  0.78306048  0.40004880  0.39381042  1  0  -0.605657  0  1.925566  0  0  -0.558156  0  2.168469  0  0  -0.578959  0  2.157876  0  0  -0.317393  -0.543223  0  2.175087  0
O  O113  1  0.21693591  0.59995501  0.60618954  1  0  -0.605714  0  1.9255  0  0  -0.55816  0  2.16837  0  0  -0.578968  0  2.157777  0  0  -0.317399  -0.543208  0  2.174945  0
