# generated using pymatgen
data_ZnH22C24(N4O3)2
_symmetry_space_group_name_H-M   'P 1'
_cell_length_a   8.17558515
_cell_length_b   11.60901509
_cell_length_c   13.59269628
_cell_angle_alpha   110.27873455
_cell_angle_beta   89.99996276
_cell_angle_gamma   90.00002573
_symmetry_Int_Tables_number   1
_chemical_formula_structural   ZnH22C24(N4O3)2
_chemical_formula_sum   'Zn2 H44 C48 N16 O12'
_cell_volume   1210.12668752
_cell_formula_units_Z   2
loop_
 _symmetry_equiv_pos_site_id
 _symmetry_equiv_pos_as_xyz
  1  'x, y, z'
loop_
 _atom_site_type_symbol
 _atom_site_label
 _atom_site_symmetry_multiplicity
 _atom_site_fract_x
 _atom_site_fract_y
 _atom_site_fract_z
 _atom_site_occupancy
 _atom_site_hle17_bader_spin_density
 _atom_site_hle17_ddec_charge
 _atom_site_hle17_ddec_spin_density
 _atom_site_hle17_ddec_sum_bond_order
 _atom_site_hle17_magmom
 _atom_site_hse06_10hf_bader_spin_density
 _atom_site_hse06_10hf_ddec_charge
 _atom_site_hse06_10hf_ddec_spin_density
 _atom_site_hse06_10hf_ddec_sum_bond_order
 _atom_site_hse06_10hf_magmom
 _atom_site_hse06_bader_spin_density
 _atom_site_hse06_ddec_charge
 _atom_site_hse06_ddec_spin_density
 _atom_site_hse06_ddec_sum_bond_order
 _atom_site_hse06_magmom
 _atom_site_pbe_bader_spin_density
 _atom_site_pbe_cm5_charge
 _atom_site_pbe_ddec_charge
 _atom_site_pbe_ddec_spin_density
 _atom_site_pbe_ddec_sum_bond_order
 _atom_site_pbe_magmom
Zn  Zn0  1  0.23071479  0.24999846  0.49999971  1  0  0.944078  0  1.785813  0  0  0.756035  0  2.210838  0  0  0.800645  0  2.168412  0  0  0.6828  0.725662  0  2.239309  0
Zn  Zn1  1  0.76928802  0.74999923  0.49999942  1  0  0.944071  0  1.785815  0  0  0.756035  0  2.210887  0  0  0.800649  0  2.168462  0  0  0.682688  0.725517  0  2.239422  0
H  H2  1  0.51765452  0.15512848  0.40371208  1  0  0.31318  0  0.936427  0  0  0.297315  0  1.000208  0  0  0.304441  0  0.994519  0  0  0.291682  0.292289  0  1.004116  0
H  H3  1  0.51765325  0.34487122  0.59629028  1  0  0.313199  0  0.936448  0  0  0.297368  0  1.000192  0  0  0.304463  0  0.994543  0  0  0.291704  0.292353  0  1.004098  0
H  H4  1  0.48234829  0.84487010  0.59628953  1  0  0.313106  0  0.936597  0  0  0.29733  0  1.000264  0  0  0.304408  0  0.994641  0  0  0.291709  0.292355  0  1.004153  0
H  H5  1  0.48234467  0.65512643  0.40371178  1  0  0.313162  0  0.936459  0  0  0.297301  0  1.000228  0  0  0.30442  0  0.99455  0  0  0.29169  0.292295  0  1.004139  0
H  H6  1  0.49648299  0.29862829  0.40588851  1  0  0.304099  0  0.928302  0  0  0.286203  0  0.996384  0  0  0.293666  0  0.990269  0  0  0.289056  0.280898  0  1.000708  0
H  H7  1  0.49648408  0.20137142  0.59411312  1  0  0.304055  0  0.928346  0  0  0.286166  0  0.996428  0  0  0.293624  0  0.990318  0  0  0.28901  0.28085  0  1.00075  0
H  H8  1  0.50351615  0.70137123  0.59411191  1  0  0.304044  0  0.928348  0  0  0.286159  0  0.996428  0  0  0.293616  0  0.99032  0  0  0.289036  0.280867  0  1.00075  0
H  H9  1  0.50351629  0.79862624  0.40588820  1  0  0.304084  0  0.928342  0  0  0.286189  0  0.996427  0  0  0.29365  0  0.990314  0  0  0.289032  0.280877  0  1.000757  0
H  H10  1  0.05351043  0.64997070  0.58860146  1  0  0.083198  0  0.958616  0  0  0.087934  0  1.028976  0  0  0.090163  0  1.026643  0  0  0.116264  0.086272  0  1.030659  0
H  H11  1  0.05351182  0.85002947  0.41139891  1  0  0.083213  0  0.958591  0  0  0.087928  0  1.028967  0  0  0.090156  0  1.026635  0  0  0.116269  0.086253  0  1.030665  0
H  H12  1  0.94649116  0.35003250  0.41140008  1  0  0.083278  0  0.958547  0  0  0.087975  0  1.028935  0  0  0.090204  0  1.026602  0  0  0.116274  0.086298  0  1.030623  0
H  H13  1  0.94648610  0.14996824  0.58859949  1  0  0.083221  0  0.958556  0  0  0.087914  0  1.028967  0  0  0.090142  0  1.026635  0  0  0.116249  0.086231  0  1.030666  0
H  H14  1  0.23917781  0.71711537  0.74442612  1  0  0.105782  0  0.952166  0  0  0.115712  0  1.014081  0  0  0.118813  0  1.013516  0  0  0.105999  0.113477  0  1.014678  0
H  H15  1  0.23917810  0.78288668  0.25557402  1  0  0.105792  0  0.952179  0  0  0.115713  0  1.014113  0  0  0.118813  0  1.013549  0  0  0.106001  0.113475  0  1.014702  0
H  H16  1  0.76082378  0.28288691  0.25557514  1  0  0.105782  0  0.952196  0  0  0.115738  0  1.014088  0  0  0.118838  0  1.013523  0  0  0.105998  0.113504  0  1.01468  0
H  H17  1  0.76081859  0.21711659  0.74442313  1  0  0.105727  0  0.952287  0  0  0.115698  0  1.014152  0  0  0.118799  0  1.013587  0  0  0.10596  0.113436  0  1.014776  0
H  H18  1  0.02271231  0.07755516  0.82787892  1  0  0.109451  0  0.945748  0  0  0.118332  0  1.007055  0  0  0.121701  0  1.005841  0  0  0.110155  0.115943  0  1.008082  0
H  H19  1  0.02271279  0.42244457  0.17211628  1  0  0.109512  0  0.94569  0  0  0.118357  0  1.007029  0  0  0.121733  0  1.005803  0  0  0.110158  0.115922  0  1.008094  0
H  H20  1  0.97728438  0.92244524  0.17212398  1  0  0.10946  0  0.945725  0  0  0.118313  0  1.007065  0  0  0.121682  0  1.005849  0  0  0.110155  0.115921  0  1.008096  0
H  H21  1  0.97729369  0.57755322  0.82787700  1  0  0.109467  0  0.945676  0  0  0.118304  0  1.007045  0  0  0.121674  0  1.005823  0  0  0.110133  0.115891  0  1.008093  0
H  H22  1  0.85242212  0.99605359  0.66497174  1  0  0.070391  0  0.980223  0  0  0.074885  0  1.053513  0  0  0.077329  0  1.051122  0  0  0.111213  0.073072  0  1.055311  0
H  H23  1  0.85242459  0.50394494  0.33502341  1  0  0.070345  0  0.980247  0  0  0.074852  0  1.053538  0  0  0.077295  0  1.051148  0  0  0.111205  0.073035  0  1.05533  0
H  H24  1  0.14757335  0.00394682  0.33503042  1  0  0.070357  0  0.980323  0  0  0.074856  0  1.053635  0  0  0.077299  0  1.051246  0  0  0.111182  0.073041  0  1.05543  0
H  H25  1  0.14757822  0.49605193  0.66496958  1  0  0.070371  0  0.980279  0  0  0.07487  0  1.053575  0  0  0.077313  0  1.051185  0  0  0.111196  0.073052  0  1.055368  0
H  H26  1  0.32164526  0.87193242  0.90818392  1  0  0.051159  0  0.945289  0  0  0.059967  0  1.014409  0  0  0.06339  0  1.010941  0  0  0.10232  0.057457  0  1.01705  0
H  H27  1  0.32164808  0.62806968  0.09181327  1  0  0.051205  0  0.94527  0  0  0.060038  0  1.014355  0  0  0.063461  0  1.010887  0  0  0.102317  0.057504  0  1.016989  0
H  H28  1  0.67835511  0.12807262  0.09181746  1  0  0.051191  0  0.945271  0  0  0.060022  0  1.014352  0  0  0.063445  0  1.010884  0  0  0.102319  0.057489  0  1.016991  0
H  H29  1  0.67835351  0.37193454  0.90818197  1  0  0.051135  0  0.945348  0  0  0.059941  0  1.014485  0  0  0.063363  0  1.011015  0  0  0.102298  0.057427  0  1.017131  0
H  H30  1  0.23223296  0.27333655  0.09219510  1  0  0.101822  0  0.980646  0  0  0.105663  0  1.05344  0  0  0.109496  0  1.050226  0  0  0.100051  0.102901  0  1.055745  0
H  H31  1  0.23222515  0.22666402  0.90780763  1  0  0.101823  0  0.980619  0  0  0.105651  0  1.053438  0  0  0.109486  0  1.050225  0  0  0.100012  0.102877  0  1.055742  0
H  H32  1  0.76777230  0.72666568  0.90780909  1  0  0.10181  0  0.980632  0  0  0.105645  0  1.053438  0  0  0.109479  0  1.050223  0  0  0.10004  0.102893  0  1.055718  0
H  H33  1  0.76777155  0.77333726  0.09219848  1  0  0.101818  0  0.980653  0  0  0.105657  0  1.053453  0  0  0.109489  0  1.050237  0  0  0.100041  0.102883  0  1.055746  0
H  H34  1  0.32731965  0.35038230  0.27741499  1  0  0.113017  0  0.95117  0  0  0.121659  0  1.014454  0  0  0.124858  0  1.013122  0  0  0.103212  0.119312  0  1.01552  0
H  H35  1  0.32731567  0.14961554  0.72258613  1  0  0.112973  0  0.951169  0  0  0.121616  0  1.014458  0  0  0.12481  0  1.01314  0  0  0.103191  0.119265  0  1.015542  0
H  H36  1  0.67268316  0.64961533  0.72258853  1  0  0.112985  0  0.951128  0  0  0.121621  0  1.014413  0  0  0.124821  0  1.013078  0  0  0.103206  0.119272  0  1.015522  0
H  H37  1  0.67268103  0.85038118  0.27741638  1  0  0.113021  0  0.95119  0  0  0.121677  0  1.014438  0  0  0.124878  0  1.013104  0  0  0.103203  0.119314  0  1.015519  0
H  H38  1  0.46011037  0.98202029  0.25181156  1  0  0.109446  0  0.957972  0  0  0.119423  0  1.020353  0  0  0.122523  0  1.019159  0  0  0.103176  0.117149  0  1.021343  0
H  H39  1  0.46010994  0.51798085  0.74818969  1  0  0.109449  0  0.957976  0  0  0.119429  0  1.020359  0  0  0.12253  0  1.019165  0  0  0.103187  0.117162  0  1.021351  0
H  H40  1  0.53989000  0.01797836  0.74818565  1  0  0.109422  0  0.957963  0  0  0.119395  0  1.020361  0  0  0.122496  0  1.019167  0  0  0.103178  0.117149  0  1.021338  0
H  H41  1  0.53988798  0.48201777  0.25180898  1  0  0.109465  0  0.957985  0  0  0.119448  0  1.020359  0  0  0.122541  0  1.019176  0  0  0.103203  0.117191  0  1.021348  0
H  H42  1  0.36322930  0.90429249  0.06875345  1  0  0.091327  0  0.9504  0  0  0.104506  0  1.007438  0  0  0.107429  0  1.00577  0  0  0.10033  0.102428  0  1.008701  0
H  H43  1  0.36322628  0.59570862  0.93124857  1  0  0.091322  0  0.950377  0  0  0.104489  0  1.007433  0  0  0.107411  0  1.005768  0  0  0.10033  0.102398  0  1.008693  0
H  H44  1  0.63677228  0.09570798  0.93124506  1  0  0.09134  0  0.950378  0  0  0.10451  0  1.007426  0  0  0.107433  0  1.005758  0  0  0.100346  0.102451  0  1.008675  0
H  H45  1  0.63677286  0.40429183  0.06875140  1  0  0.091324  0  0.950398  0  0  0.104509  0  1.007429  0  0  0.107431  0  1.005763  0  0  0.100341  0.102437  0  1.008694  0
C  C46  1  0.05357526  0.74427734  0.64264723  1  0  0.150806  0  3.675419  0  0  0.114685  0  3.935318  0  0  0.123467  0  3.951451  0  0  0.046471  0.108917  0  3.924478  0
C  C47  1  0.05357787  0.75572284  0.35735168  1  0  0.150725  0  3.675517  0  0  0.114603  0  3.935416  0  0  0.123385  0  3.951549  0  0  0.046411  0.108828  0  3.924602  0
C  C48  1  0.94642755  0.25572493  0.35735404  1  0  0.150696  0  3.675367  0  0  0.114608  0  3.935251  0  0  0.12339  0  3.951382  0  0  0.046451  0.108833  0  3.924419  0
C  C49  1  0.94642372  0.24427582  0.64264480  1  0  0.150752  0  3.675458  0  0  0.11464  0  3.935376  0  0  0.123422  0  3.95151  0  0  0.046439  0.108865  0  3.924559  0
C  C50  1  0.15429217  0.78216014  0.73032630  1  0  -0.151361  0  3.684582  0  0  -0.170612  0  3.931603  0  0  -0.178229  0  3.95215  0  0  -0.082059  -0.16578  0  3.917975  0
C  C51  1  0.15429363  0.71784008  0.26967184  1  0  -0.151318  0  3.684552  0  0  -0.17058  0  3.931593  0  0  -0.178195  0  3.952138  0  0  -0.082033  -0.165737  0  3.917957  0
C  C52  1  0.84570819  0.21784304  0.26967598  1  0  -0.151365  0  3.684616  0  0  -0.170662  0  3.931641  0  0  -0.178277  0  3.952186  0  0  -0.08207  -0.165815  0  3.917991  0
C  C53  1  0.84570551  0.28215951  0.73032419  1  0  -0.151298  0  3.684728  0  0  -0.170592  0  3.93173  0  0  -0.178208  0  3.952277  0  0  -0.082046  -0.16574  0  3.918101  0
C  C54  1  0.14339265  0.90327347  0.80069776  1  0  0.098452  0  3.78131  0  0  0.115427  0  4.010827  0  0  0.118963  0  4.031637  0  0  0.010623  0.113227  0  3.996757  0
C  C55  1  0.14339533  0.59672581  0.19930084  1  0  0.098541  0  3.781364  0  0  0.115521  0  4.010856  0  0  0.119056  0  4.031668  0  0  0.010672  0.113306  0  3.996766  0
C  C56  1  0.85660650  0.09672696  0.19930368  1  0  0.098423  0  3.781533  0  0  0.115411  0  4.011018  0  0  0.118947  0  4.031828  0  0  0.010659  0.113199  0  3.996917  0
C  C57  1  0.85660626  0.40327377  0.80069592  1  0  0.098361  0  3.781524  0  0  0.115368  0  4.011012  0  0  0.118902  0  4.031824  0  0  0.010655  0.113157  0  3.996904  0
C  C58  1  0.03467631  0.98267981  0.77568815  1  0  -0.126882  0  3.672246  0  0  -0.14662  0  3.917362  0  0  -0.153121  0  3.937233  0  0  -0.073474  -0.142562  0  3.904255  0
C  C59  1  0.03467646  0.51732134  0.22430812  1  0  -0.127045  0  3.672212  0  0  -0.146737  0  3.917344  0  0  -0.153242  0  3.937208  0  0  -0.073517  -0.14266  0  3.904245  0
C  C60  1  0.96532039  0.01732245  0.22431385  1  0  -0.126809  0  3.67249  0  0  -0.146516  0  3.917612  0  0  -0.153015  0  3.937482  0  0  -0.07348  -0.142466  0  3.904491  0
C  C61  1  0.96532268  0.48267736  0.77568616  1  0  -0.126776  0  3.672366  0  0  -0.146493  0  3.917498  0  0  -0.152989  0  3.937367  0  0  -0.073476  -0.142437  0  3.904393  0
C  C62  1  0.94045860  0.93803922  0.68585615  1  0  0.131958  0  3.713015  0  0  0.099048  0  3.967224  0  0  0.10686  0  3.984233  0  0  0.044049  0.093935  0  3.95584  0
C  C63  1  0.94045991  0.56196207  0.31414055  1  0  0.132139  0  3.712855  0  0  0.099157  0  3.967106  0  0  0.106969  0  3.984115  0  0  0.044062  0.094045  0  3.955688  0
C  C64  1  0.05953932  0.06196123  0.31414382  1  0  0.131896  0  3.713022  0  0  0.098911  0  3.967281  0  0  0.106723  0  3.984291  0  0  0.04402  0.093801  0  3.955868  0
C  C65  1  0.05954412  0.43803661  0.68585446  1  0  0.131939  0  3.713108  0  0  0.098983  0  3.967332  0  0  0.106794  0  3.984344  0  0  0.044064  0.093876  0  3.955929  0
C  C66  1  0.23705440  0.94128418  0.89828384  1  0  0.106668  0  3.701641  0  0  0.074429  0  3.959669  0  0  0.082619  0  3.970077  0  0  0.069538  0.068874  0  3.95261  0
C  C67  1  0.23705716  0.55871787  0.10171557  1  0  0.1065  0  3.701702  0  0  0.074248  0  3.959723  0  0  0.082435  0  3.970134  0  0  0.069456  0.068714  0  3.952629  0
C  C68  1  0.76294229  0.05871904  0.10171624  1  0  0.106614  0  3.701576  0  0  0.07437  0  3.959575  0  0  0.082558  0  3.969985  0  0  0.069527  0.068863  0  3.952462  0
C  C69  1  0.76294687  0.44128445  0.89828277  1  0  0.106777  0  3.701672  0  0  0.074508  0  3.959729  0  0  0.082698  0  3.970137  0  0  0.069589  0.068965  0  3.952647  0
C  C70  1  0.28956214  0.08372975  0.06689258  1  0  0.176396  0  3.861377  0  0  0.177957  0  4.114072  0  0  0.178805  0  4.140762  0  0  0.076779  0.177431  0  4.095818  0
C  C71  1  0.28955932  0.41626992  0.93310912  1  0  0.176344  0  3.861463  0  0  0.177907  0  4.11415  0  0  0.178756  0  4.14084  0  0  0.076732  0.177388  0  4.095892  0
C  C72  1  0.71043333  0.91626884  0.93310829  1  0  0.17646  0  3.861247  0  0  0.177986  0  4.113986  0  0  0.178836  0  4.140677  0  0  0.076748  0.17747  0  4.095696  0
C  C73  1  0.71044104  0.58373051  0.06689232  1  0  0.176374  0  3.861398  0  0  0.177904  0  4.11413  0  0  0.178753  0  4.140821  0  0  0.076736  0.177379  0  4.09585  0
C  C74  1  0.28374360  0.20986786  0.12733865  1  0  -0.118712  0  3.725725  0  0  -0.137257  0  3.974482  0  0  -0.139509  0  3.996051  0  0  -0.087311  -0.13554  0  3.959687  0
C  C75  1  0.28374077  0.29013092  0.87266131  1  0  -0.11878  0  3.725825  0  0  -0.137314  0  3.97458  0  0  -0.139568  0  3.99615  0  0  -0.087334  -0.135607  0  3.959792  0
C  C76  1  0.71625432  0.79012983  0.87266121  1  0  -0.118804  0  3.725803  0  0  -0.137334  0  3.974558  0  0  -0.139587  0  3.996129  0  0  -0.087314  -0.135595  0  3.959688  0
C  C77  1  0.71625837  0.70986676  0.12733929  1  0  -0.118717  0  3.725797  0  0  -0.137253  0  3.974559  0  0  -0.139502  0  3.996126  0  0  -0.087325  -0.135526  0  3.959717  0
C  C78  1  0.33900444  0.25326184  0.23026111  1  0  -0.16891  0  3.726661  0  0  -0.186107  0  3.974907  0  0  -0.191948  0  3.998097  0  0  -0.102347  -0.182043  0  3.959159  0
C  C79  1  0.33899924  0.24673691  0.76974103  1  0  -0.168895  0  3.726611  0  0  -0.186095  0  3.97485  0  0  -0.191937  0  3.998043  0  0  -0.102318  -0.182028  0  3.959133  0
C  C80  1  0.66099593  0.74673856  0.76974179  1  0  -0.168845  0  3.726663  0  0  -0.186034  0  3.974855  0  0  -0.191876  0  3.998051  0  0  -0.102296  -0.181958  0  3.95912  0
C  C81  1  0.66099868  0.75326074  0.23026103  1  0  -0.168951  0  3.72669  0  0  -0.186155  0  3.974907  0  0  -0.191999  0  3.998101  0  0  -0.102348  -0.18209  0  3.959139  0
C  C82  1  0.40037614  0.17119999  0.27660893  1  0  0.289833  0  3.78241  0  0  0.286503  0  4.026779  0  0  0.293262  0  4.051448  0  0  0.088125  0.281741  0  4.009916  0
C  C83  1  0.40037349  0.32880153  0.72339330  1  0  0.29009  0  3.782122  0  0  0.286763  0  4.026502  0  0  0.293519  0  4.051161  0  0  0.088228  0.281997  0  4.009667  0
C  C84  1  0.59962178  0.82880042  0.72339324  1  0  0.289947  0  3.782325  0  0  0.286668  0  4.026638  0  0  0.293425  0  4.051299  0  0  0.088207  0.281898  0  4.009846  0
C  C85  1  0.59962442  0.67119981  0.27660842  1  0  0.289963  0  3.782294  0  0  0.286666  0  4.026604  0  0  0.293424  0  4.051268  0  0  0.088179  0.28189  0  4.009753  0
C  C86  1  0.41234347  0.04573046  0.21589666  1  0  -0.174497  0  3.750201  0  0  -0.191036  0  4.000772  0  0  -0.197714  0  4.024275  0  0  -0.0997  -0.18633  0  3.984692  0
C  C87  1  0.41233962  0.45427015  0.78410528  1  0  -0.174614  0  3.750386  0  0  -0.191142  0  4.000934  0  0  -0.197824  0  4.024441  0  0  -0.099721  -0.186439  0  3.984864  0
C  C88  1  0.58765690  0.95426906  0.78410376  1  0  -0.174536  0  3.750352  0  0  -0.191095  0  4.000908  0  0  -0.197775  0  4.024416  0  0  -0.099691  -0.186367  0  3.984863  0
C  C89  1  0.58765585  0.54573030  0.21589469  1  0  -0.174581  0  3.750381  0  0  -0.191131  0  4.00093  0  0  -0.197803  0  4.024438  0  0  -0.099695  -0.186405  0  3.984865  0
C  C90  1  0.35757679  0.00264214  0.11278378  1  0  -0.129958  0  3.758684  0  0  -0.147908  0  4.004613  0  0  -0.150695  0  4.028742  0  0  -0.090624  -0.145838  0  3.988019  0
C  C91  1  0.35757775  0.49735664  0.88721615  1  0  -0.1299  0  3.758792  0  0  -0.147845  0  4.004722  0  0  -0.150633  0  4.028851  0  0  -0.090615  -0.145769  0  3.988112  0
C  C92  1  0.64241868  0.99735648  0.88721489  1  0  -0.129965  0  3.758742  0  0  -0.147901  0  4.004677  0  0  -0.150689  0  4.028808  0  0  -0.09058  -0.145808  0  3.988056  0
C  C93  1  0.64242384  0.50264289  0.11278354  1  0  -0.129958  0  3.758827  0  0  -0.147906  0  4.004771  0  0  -0.150693  0  4.028897  0  0  -0.090619  -0.14582  0  3.988171  0
N  N94  1  0.94631751  0.81997762  0.62087098  1  0  -0.324535  0  3.271804  0  0  -0.242164  0  3.534587  0  0  -0.260794  0  3.551202  0  0  -0.32561  -0.229668  0  3.52321  0
N  N95  1  0.94632249  0.68002456  0.37912820  1  0  -0.324615  0  3.271867  0  0  -0.242142  0  3.53456  0  0  -0.260774  0  3.551183  0  0  -0.325592  -0.229631  0  3.523163  0
N  N96  1  0.05368286  0.18002463  0.37913175  1  0  -0.324469  0  3.271637  0  0  -0.242008  0  3.534332  0  0  -0.260637  0  3.550949  0  0  -0.325581  -0.229525  0  3.522942  0
N  N97  1  0.05368032  0.31997501  0.62086929  1  0  -0.324568  0  3.271964  0  0  -0.24211  0  3.534647  0  0  -0.260735  0  3.551258  0  0  -0.325617  -0.229626  0  3.523277  0
N  N98  1  0.21628736  0.04845733  0.96803774  1  0  -0.315945  0  3.121899  0  0  -0.277563  0  3.38967  0  0  -0.28777  0  3.404246  0  0  -0.302045  -0.270543  0  3.379624  0
N  N99  1  0.21628924  0.45154326  0.03196353  1  0  -0.315831  0  3.121933  0  0  -0.277453  0  3.389702  0  0  -0.287661  0  3.404281  0  0  -0.301969  -0.270428  0  3.379637  0
N  N100  1  0.78370933  0.95154404  0.03196251  1  0  -0.315901  0  3.121785  0  0  -0.277519  0  3.389568  0  0  -0.287726  0  3.404144  0  0  -0.302026  -0.270528  0  3.37949  0
N  N101  1  0.78371480  0.54845813  0.96803525  1  0  -0.315919  0  3.121816  0  0  -0.277515  0  3.389595  0  0  -0.287724  0  3.404172  0  0  -0.302031  -0.270517  0  3.379529  0
N  N102  1  0.43964790  0.21401103  0.38463559  1  0  -0.66448  0  3.141835  0  0  -0.608158  0  3.377993  0  0  -0.630053  0  3.376231  0  0  -0.599626  -0.592565  0  3.378777  0
N  N103  1  0.43964779  0.28598773  0.61536724  1  0  -0.664563  0  3.141801  0  0  -0.608314  0  3.377976  0  0  -0.630165  0  3.37624  0  0  -0.599636  -0.592682  0  3.378744  0
N  N104  1  0.56035369  0.78598570  0.61536618  1  0  -0.664438  0  3.141987  0  0  -0.608227  0  3.378072  0  0  -0.630065  0  3.376376  0  0  -0.599475  -0.592462  0  3.378792  0
N  N105  1  0.56035135  0.71400992  0.38463482  1  0  -0.664489  0  3.141801  0  0  -0.608196  0  3.377972  0  0  -0.630075  0  3.376208  0  0  -0.599576  -0.592524  0  3.378736  0
N  N106  1  0.29621967  0.52216011  0.49597600  1  0  0.698495  0  4.145569  0  0  0.717966  0  4.457728  0  0  0.746958  0  4.461619  0  0  0.098029  0.70013  0  4.454378  0
N  N107  1  0.29621982  0.97784010  0.50402429  1  0  0.698488  0  4.145603  0  0  0.717963  0  4.457753  0  0  0.746952  0  4.461644  0  0  0.098019  0.700132  0  4.454393  0
N  N108  1  0.70378192  0.47784216  0.50402600  1  0  0.698507  0  4.145691  0  0  0.717972  0  4.457863  0  0  0.74696  0  4.461758  0  0  0.097978  0.700131  0  4.454511  0
N  N109  1  0.70378055  0.02215853  0.49597438  1  0  0.698521  0  4.1456  0  0  0.717992  0  4.457747  0  0  0.74698  0  4.461641  0  0  0.098025  0.70016  0  4.454395  0
O  O110  1  0.20690739  0.42573250  0.46958737  1  0  -0.492828  0  1.886981  0  0  -0.465198  0  2.149096  0  0  -0.483453  0  2.140064  0  0  -0.190509  -0.453103  0  2.154968  0
O  O111  1  0.20690724  0.07426716  0.53041436  1  0  -0.492825  0  1.887013  0  0  -0.465184  0  2.149103  0  0  -0.483431  0  2.140069  0  0  -0.19052  -0.453095  0  2.154981  0
O  O112  1  0.79309909  0.57426703  0.53041232  1  0  -0.492852  0  1.887022  0  0  -0.465249  0  2.149129  0  0  -0.483501  0  2.140101  0  0  -0.190549  -0.453155  0  2.155011  0
O  O113  1  0.79309312  0.92573055  0.46958404  1  0  -0.492872  0  1.886991  0  0  -0.465249  0  2.149097  0  0  -0.483499  0  2.140068  0  0  -0.190547  -0.453146  0  2.154977  0
O  O114  1  0.37514976  0.55402540  0.58147883  1  0  -0.472893  0  1.790788  0  0  -0.456939  0  2.016331  0  0  -0.472568  0  2.011289  0  0  -0.183054  -0.446878  0  2.019861  0
O  O115  1  0.37514876  0.94597390  0.41852116  1  0  -0.47289  0  1.790825  0  0  -0.456932  0  2.016362  0  0  -0.472564  0  2.011323  0  0  -0.182997  -0.446813  0  2.019853  0
O  O116  1  0.62485305  0.44597502  0.41852261  1  0  -0.472904  0  1.790893  0  0  -0.456935  0  2.01641  0  0  -0.472567  0  2.011373  0  0  -0.182975  -0.446825  0  2.019891  0
O  O117  1  0.62485405  0.05402473  0.58147752  1  0  -0.472904  0  1.790893  0  0  -0.456927  0  2.016396  0  0  -0.472559  0  2.011359  0  0  -0.182978  -0.446823  0  2.01989  0
O  O118  1  0.30059128  0.58429396  0.43668119  1  0  -0.436499  0  1.806884  0  0  -0.426044  0  2.031127  0  0  -0.439191  0  2.026629  0  0  -0.172198  -0.417521  0  2.034059  0
O  O119  1  0.30059132  0.91570533  0.56331882  1  0  -0.436482  0  1.806852  0  0  -0.426075  0  2.031124  0  0  -0.439211  0  2.026621  0  0  -0.172203  -0.417559  0  2.034058  0
O  O120  1  0.69940787  0.41570923  0.56332109  1  0  -0.436477  0  1.806942  0  0  -0.426035  0  2.03122  0  0  -0.439176  0  2.026722  0  0  -0.172136  -0.417466  0  2.034103  0
O  O121  1  0.69940905  0.08429420  0.43668087  1  0  -0.436487  0  1.806889  0  0  -0.426044  0  2.031151  0  0  -0.439194  0  2.026655  0  0  -0.172144  -0.417455  0  2.03405  0
