# generated using pymatgen
data_CsH5C7SO6
_symmetry_space_group_name_H-M   'P 1'
_cell_length_a   7.18352622
_cell_length_b   9.77108557
_cell_length_c   14.37133245
_cell_angle_alpha   91.68279532
_cell_angle_beta   90.00004372
_cell_angle_gamma   90.00007168
_symmetry_Int_Tables_number   1
_chemical_formula_structural   CsH5C7SO6
_chemical_formula_sum   'Cs4 H20 C28 S4 O24'
_cell_volume   1008.30098701
_cell_formula_units_Z   4
loop_
 _symmetry_equiv_pos_site_id
 _symmetry_equiv_pos_as_xyz
  1  'x, y, z'
loop_
 _atom_site_type_symbol
 _atom_site_label
 _atom_site_symmetry_multiplicity
 _atom_site_fract_x
 _atom_site_fract_y
 _atom_site_fract_z
 _atom_site_occupancy
 _atom_site_hle17_bader_spin_density
 _atom_site_hle17_ddec_charge
 _atom_site_hle17_ddec_spin_density
 _atom_site_hle17_ddec_sum_bond_order
 _atom_site_hle17_magmom
 _atom_site_hse06_10hf_bader_spin_density
 _atom_site_hse06_10hf_ddec_charge
 _atom_site_hse06_10hf_ddec_spin_density
 _atom_site_hse06_10hf_ddec_sum_bond_order
 _atom_site_hse06_10hf_magmom
 _atom_site_hse06_bader_spin_density
 _atom_site_hse06_ddec_charge
 _atom_site_hse06_ddec_spin_density
 _atom_site_hse06_ddec_sum_bond_order
 _atom_site_hse06_magmom
 _atom_site_pbe_bader_spin_density
 _atom_site_pbe_cm5_charge
 _atom_site_pbe_ddec_charge
 _atom_site_pbe_ddec_spin_density
 _atom_site_pbe_ddec_sum_bond_order
 _atom_site_pbe_magmom
Cs  Cs0  1  0.81872391  0.45937645  0.34748287  1  0  0.977946  0  0.5687  0  0  0.926137  0  0.803902  0  0  0.941059  0  0.779686  0  0  0.902895  0.915605  0  0.820318  0
Cs  Cs1  1  0.31872427  0.54062370  0.15251736  1  0  0.977946  0  0.5687  0  0  0.926142  0  0.803897  0  0  0.941063  0  0.779682  0  0  0.902888  0.915594  0  0.820312  0
Cs  Cs2  1  0.18127822  0.54062285  0.65251653  1  0  0.977944  0  0.568708  0  0  0.926121  0  0.803936  0  0  0.941043  0  0.779718  0  0  0.902896  0.915589  0  0.820353  0
Cs  Cs3  1  0.68127926  0.45937663  0.84748207  1  0  0.977936  0  0.568708  0  0  0.92612  0  0.803925  0  0  0.941042  0  0.779708  0  0  0.902902  0.915588  0  0.820339  0
H  H4  1  0.81127351  0.64163495  0.11967830  1  0  0.38667  0  0.889296  0  0  0.361651  0  0.961045  0  0  0.373569  0  0.94772  0  0  0.316402  0.353735  0  0.969271  0
H  H5  1  0.31127391  0.35836416  0.38032260  1  0  0.386683  0  0.889291  0  0  0.361668  0  0.96104  0  0  0.373588  0  0.947713  0  0  0.316409  0.353754  0  0.969261  0
H  H6  1  0.18872444  0.35836742  0.88032117  1  0  0.386641  0  0.889257  0  0  0.361603  0  0.961036  0  0  0.373521  0  0.947713  0  0  0.316396  0.353687  0  0.969265  0
H  H7  1  0.68872545  0.64163411  0.61967748  1  0  0.386661  0  0.889246  0  0  0.361611  0  0.961044  0  0  0.37353  0  0.947721  0  0  0.316393  0.353699  0  0.969262  0
H  H8  1  0.06603815  0.87612342  0.26528729  1  0  0.123031  0  0.972478  0  0  0.130712  0  1.034322  0  0  0.134205  0  1.033887  0  0  0.108789  0.128253  0  1.034814  0
H  H9  1  0.56603566  0.12387649  0.23471423  1  0  0.123098  0  0.972448  0  0  0.13078  0  1.034282  0  0  0.134272  0  1.033848  0  0  0.108816  0.128322  0  1.034773  0
H  H10  1  0.93396120  0.12387793  0.73471216  1  0  0.123042  0  0.972415  0  0  0.130723  0  1.034264  0  0  0.134214  0  1.03383  0  0  0.108796  0.128266  0  1.034756  0
H  H11  1  0.43395673  0.87612179  0.76528515  1  0  0.12307  0  0.972457  0  0  0.130731  0  1.034328  0  0  0.134223  0  1.033894  0  0  0.108797  0.128272  0  1.034822  0
H  H12  1  0.05586143  0.12684065  0.23578047  1  0  0.099459  0  0.952319  0  0  0.108127  0  1.01511  0  0  0.111198  0  1.012993  0  0  0.11026  0.105907  0  1.016551  0
H  H13  1  0.55586026  0.87315924  0.26422104  1  0  0.099469  0  0.952277  0  0  0.108133  0  1.015082  0  0  0.111196  0  1.012972  0  0  0.11026  0.105914  0  1.016516  0
H  H14  1  0.94414210  0.87316070  0.76421897  1  0  0.099486  0  0.952307  0  0  0.108135  0  1.015114  0  0  0.111198  0  1.013007  0  0  0.110272  0.105915  0  1.016547  0
H  H15  1  0.44413631  0.12684006  0.73577836  1  0  0.099445  0  0.952293  0  0  0.108093  0  1.015109  0  0  0.111168  0  1.012986  0  0  0.110255  0.105874  0  1.016546  0
H  H16  1  0.70636698  0.04812091  0.99668936  1  0  0.114254  0  0.939124  0  0  0.123153  0  1.000688  0  0  0.126744  0  0.997623  0  0  0.115068  0.120593  0  1.002858  0
H  H17  1  0.20636781  0.95187654  0.50331199  1  0  0.114267  0  0.93909  0  0  0.12317  0  1.000648  0  0  0.126756  0  0.997591  0  0  0.115077  0.120606  0  1.002815  0
H  H18  1  0.29363654  0.95188249  0.00330943  1  0  0.114265  0  0.939092  0  0  0.123169  0  1.000656  0  0  0.126764  0  0.997582  0  0  0.115029  0.120606  0  1.002826  0
H  H19  1  0.79363433  0.04812071  0.49669015  1  0  0.114254  0  0.939131  0  0  0.123152  0  1.000701  0  0  0.126747  0  0.997627  0  0  0.115067  0.120591  0  1.002872  0
H  H20  1  0.50328202  0.76055106  0.90947973  1  0  0.401031  0  0.890312  0  0  0.370531  0  0.968618  0  0  0.383172  0  0.955111  0  0  0.306608  0.36163  0  0.978102  0
H  H21  1  0.00328177  0.23944927  0.59052021  1  0  0.401019  0  0.890305  0  0  0.370526  0  0.968603  0  0  0.383168  0  0.955095  0  0  0.306616  0.361628  0  0.97808  0
H  H22  1  0.49671872  0.23944824  0.09051898  1  0  0.401009  0  0.89035  0  0  0.370519  0  0.968648  0  0  0.38316  0  0.95514  0  0  0.306595  0.361621  0  0.978121  0
H  H23  1  0.99671897  0.76055207  0.40948063  1  0  0.401026  0  0.890327  0  0  0.370534  0  0.968621  0  0  0.383174  0  0.955115  0  0  0.306601  0.361633  0  0.9781  0
C  C24  1  0.78497600  0.87143303  0.07313880  1  0  -0.226001  0  3.762364  0  0  -0.205356  0  4.00371  0  0  -0.221779  0  4.026898  0  0  -0.033611  -0.194753  0  3.988066  0
C  C25  1  0.28497747  0.12856606  0.42686279  1  0  -0.226065  0  3.762517  0  0  -0.205384  0  4.003816  0  0  -0.221807  0  4.027002  0  0  -0.033583  -0.194783  0  3.988184  0
C  C26  1  0.21502196  0.12856934  0.92686067  1  0  -0.225972  0  3.762495  0  0  -0.205284  0  4.003832  0  0  -0.22171  0  4.027024  0  0  -0.033578  -0.194681  0  3.988197  0
C  C27  1  0.71502188  0.87143222  0.57313799  1  0  -0.226038  0  3.762389  0  0  -0.205354  0  4.003718  0  0  -0.221778  0  4.026908  0  0  -0.033593  -0.194745  0  3.988064  0
C  C28  1  0.88573155  0.82248911  0.15055286  1  0  0.367352  0  3.762492  0  0  0.350748  0  4.021869  0  0  0.368173  0  4.034272  0  0  0.107308  0.338907  0  4.013798  0
C  C29  1  0.38573020  0.17751007  0.34944877  1  0  0.36743  0  3.762573  0  0  0.35081  0  4.021945  0  0  0.368236  0  4.034346  0  0  0.10729  0.338966  0  4.013881  0
C  C30  1  0.11426641  0.17751224  0.84944729  1  0  0.367373  0  3.762533  0  0  0.350738  0  4.021949  0  0  0.368163  0  4.034353  0  0  0.107294  0.338894  0  4.013887  0
C  C31  1  0.61426498  0.82248718  0.65055198  1  0  0.367289  0  3.762693  0  0  0.350699  0  4.022044  0  0  0.368124  0  4.034449  0  0  0.107273  0.338865  0  4.013958  0
C  C32  1  0.98552528  0.91543414  0.20778425  1  0  -0.18849  0  3.681652  0  0  -0.204367  0  3.931075  0  0  -0.21391  0  3.949861  0  0  -0.096861  -0.198497  0  3.918726  0
C  C33  1  0.48552508  0.08456514  0.29221742  1  0  -0.188622  0  3.681762  0  0  -0.204489  0  3.931184  0  0  -0.214034  0  3.949967  0  0  -0.096885  -0.19862  0  3.918835  0
C  C34  1  0.01447268  0.08456721  0.79221590  1  0  -0.188497  0  3.681639  0  0  -0.204363  0  3.931072  0  0  -0.213906  0  3.949856  0  0  -0.096869  -0.198497  0  3.918729  0
C  C35  1  0.51447010  0.91543314  0.70778266  1  0  -0.188551  0  3.681695  0  0  -0.204421  0  3.931115  0  0  -0.213964  0  3.949901  0  0  -0.096887  -0.19855  0  3.918762  0
C  C36  1  0.97902356  0.05459291  0.19117563  1  0  -0.007432  0  3.73361  0  0  -0.036107  0  3.986191  0  0  -0.029666  0  4.003434  0  0  -0.068677  -0.039848  0  3.974233  0
C  C37  1  0.47902205  0.94540738  0.30882536  1  0  -0.007363  0  3.733632  0  0  -0.036032  0  3.986222  0  0  -0.029584  0  4.003474  0  0  -0.068657  -0.039772  0  3.974248  0
C  C38  1  0.02097858  0.94540946  0.80882454  1  0  -0.007445  0  3.733632  0  0  -0.036102  0  3.986236  0  0  -0.029654  0  4.003477  0  0  -0.068666  -0.039844  0  3.974265  0
C  C39  1  0.52097452  0.05459192  0.69117404  1  0  -0.007353  0  3.733525  0  0  -0.036005  0  3.986104  0  0  -0.029565  0  4.003348  0  0  -0.068649  -0.039748  0  3.974141  0
C  C40  1  0.87525834  0.10346389  0.11626086  1  0  -0.167447  0  3.759095  0  0  -0.142981  0  4.015692  0  0  -0.155093  0  4.038902  0  0  -0.033911  -0.135757  0  4.000244  0
C  C41  1  0.37525687  0.89653528  0.38374006  1  0  -0.16743  0  3.759128  0  0  -0.143003  0  4.015779  0  0  -0.155113  0  4.038984  0  0  -0.033873  -0.135768  0  4.000308  0
C  C42  1  0.12474518  0.89653643  0.88373926  1  0  -0.167439  0  3.759077  0  0  -0.142983  0  4.015692  0  0  -0.155092  0  4.038899  0  0  -0.0339  -0.135762  0  4.000237  0
C  C43  1  0.62474248  0.10346402  0.61626073  1  0  -0.167471  0  3.759083  0  0  -0.143003  0  4.015682  0  0  -0.155115  0  4.038894  0  0  -0.033918  -0.135785  0  4.000242  0
C  C44  1  0.78271036  0.01203862  0.05650804  1  0  -0.013985  0  3.718788  0  0  -0.054111  0  3.974383  0  0  -0.046609  0  3.991891  0  0  -0.070781  -0.058345  0  3.962051  0
C  C45  1  0.28271052  0.98795944  0.44349353  1  0  -0.014027  0  3.718815  0  0  -0.054149  0  3.974414  0  0  -0.046649  0  3.991922  0  0  -0.070829  -0.058382  0  3.962075  0
C  C46  1  0.21729178  0.98796273  0.94349141  1  0  -0.01406  0  3.718885  0  0  -0.054188  0  3.974472  0  0  -0.046687  0  3.991982  0  0  -0.070774  -0.058419  0  3.962133  0
C  C47  1  0.71729022  0.01203883  0.55650794  1  0  -0.013978  0  3.718798  0  0  -0.054116  0  3.974396  0  0  -0.046614  0  3.991907  0  0  -0.070787  -0.058354  0  3.962068  0
C  C48  1  0.67989935  0.77426934  0.01364324  1  0  0.677295  0  3.812353  0  0  0.624753  0  4.109715  0  0  0.660225  0  4.09949  0  0  0.228956  0.600715  0  4.116388  0
C  C49  1  0.17989968  0.22572863  0.48635689  1  0  0.677399  0  3.812251  0  0  0.624851  0  4.109605  0  0  0.660325  0  4.099378  0  0  0.229018  0.600809  0  4.116294  0
C  C50  1  0.32010140  0.22573099  0.98635549  1  0  0.677308  0  3.81221  0  0  0.624719  0  4.109648  0  0  0.660193  0  4.099422  0  0  0.228942  0.600676  0  4.116333  0
C  C51  1  0.82010246  0.77426863  0.51364316  1  0  0.677478  0  3.812156  0  0  0.62488  0  4.109588  0  0  0.660353  0  4.099361  0  0  0.229009  0.600844  0  4.116257  0
S  S52  1  0.84749218  0.28249830  0.10126049  1  0  1.325923  0  5.644704  0  0  1.235941  0  6.162051  0  0  1.283886  0  6.137542  0  0  0.497186  1.203326  0  6.177344  0
S  S53  1  0.34749181  0.71749983  0.39873971  1  0  1.325994  0  5.644686  0  0  1.236021  0  6.162038  0  0  1.283965  0  6.137528  0  0  0.4972  1.203415  0  6.177315  0
S  S54  1  0.15250857  0.71750305  0.89873896  1  0  1.325939  0  5.644695  0  0  1.235958  0  6.162042  0  0  1.283901  0  6.137536  0  0  0.497172  1.203362  0  6.17731  0
S  S55  1  0.65250893  0.28249845  0.60126107  1  0  1.325895  0  5.644736  0  0  1.235908  0  6.16209  0  0  1.283852  0  6.137583  0  0  0.497177  1.203303  0  6.177376  0
O  O56  1  0.88856154  0.68831010  0.17017894  1  0  -0.534705  0  2.123734  0  0  -0.492385  0  2.34487  0  0  -0.511513  0  2.33415  0  0  -0.376691  -0.479107  0  2.350927  0
O  O57  1  0.38856317  0.31168806  0.32982197  1  0  -0.534729  0  2.123719  0  0  -0.492424  0  2.344871  0  0  -0.511553  0  2.334146  0  0  -0.376688  -0.479142  0  2.350928  0
O  O58  1  0.11143363  0.31169227  0.82982192  1  0  -0.534689  0  2.123588  0  0  -0.492373  0  2.344821  0  0  -0.5115  0  2.334106  0  0  -0.376698  -0.479096  0  2.350883  0
O  O59  1  0.61143479  0.68830919  0.67017878  1  0  -0.534665  0  2.12368  0  0  -0.492336  0  2.344862  0  0  -0.511465  0  2.334146  0  0  -0.376661  -0.479063  0  2.350913  0
O  O60  1  0.85543390  0.30506321  0.00153931  1  0  -0.684396  0  1.975331  0  0  -0.640434  0  2.22828  0  0  -0.66179  0  2.216427  0  0  -0.422654  -0.625683  0  2.235905  0
O  O61  1  0.35543226  0.69493492  0.49846089  1  0  -0.68444  0  1.975358  0  0  -0.640469  0  2.228289  0  0  -0.661822  0  2.216435  0  0  -0.422673  -0.625723  0  2.235916  0
O  O62  1  0.14456823  0.69493711  0.99846081  1  0  -0.68441  0  1.975312  0  0  -0.640448  0  2.228253  0  0  -0.661804  0  2.216402  0  0  -0.422646  -0.6257  0  2.235871  0
O  O63  1  0.64456848  0.30506336  0.50153919  1  0  -0.684406  0  1.975305  0  0  -0.640439  0  2.228242  0  0  -0.661794  0  2.216388  0  0  -0.422654  -0.625683  0  2.235867  0
O  O64  1  0.65880217  0.31594688  0.14093552  1  0  -0.744066  0  2.001742  0  0  -0.693372  0  2.255672  0  0  -0.714781  0  2.240427  0  0  -0.404783  -0.678197  0  2.265244  0
O  O65  1  0.15880169  0.68405209  0.35906463  1  0  -0.7441  0  2.001741  0  0  -0.6934  0  2.255655  0  0  -0.714815  0  2.240426  0  0  -0.404813  -0.678236  0  2.265246  0
O  O66  1  0.34119996  0.68405345  0.85906461  1  0  -0.744046  0  2.001711  0  0  -0.693343  0  2.255629  0  0  -0.714755  0  2.240391  0  0  -0.404785  -0.678176  0  2.265203  0
O  O67  1  0.84119766  0.31594721  0.64093547  1  0  -0.744051  0  2.001779  0  0  -0.69336  0  2.25572  0  0  -0.714766  0  2.240469  0  0  -0.404795  -0.678182  0  2.265289  0
O  O68  1  0.99248653  0.35046085  0.15744144  1  0  -0.735062  0  1.995402  0  0  -0.690463  0  2.255621  0  0  -0.710985  0  2.241343  0  0  -0.484175  -0.676238  0  2.264257  0
O  O69  1  0.49248596  0.64953843  0.34255814  1  0  -0.735074  0  1.995423  0  0  -0.690476  0  2.255639  0  0  -0.710995  0  2.241359  0  0  -0.484161  -0.676253  0  2.264273  0
O  O70  1  0.00751421  0.64953947  0.84255798  1  0  -0.735054  0  1.995374  0  0  -0.690442  0  2.255579  0  0  -0.710963  0  2.2413  0  0  -0.484158  -0.676224  0  2.264209  0
O  O71  1  0.50751339  0.35045985  0.65744124  1  0  -0.735045  0  1.995422  0  0  -0.69044  0  2.25564  0  0  -0.710963  0  2.241364  0  0  -0.484157  -0.676213  0  2.264275  0
O  O72  1  0.59883684  0.82674644  0.94024148  1  0  -0.540115  0  2.105548  0  0  -0.485875  0  2.324506  0  0  -0.508994  0  2.31115  0  0  -0.324842  -0.469846  0  2.333323  0
O  O73  1  0.09883504  0.17325296  0.55975987  1  0  -0.540141  0  2.10547  0  0  -0.485912  0  2.324439  0  0  -0.50903  0  2.31108  0  0  -0.324882  -0.469877  0  2.333251  0
O  O74  1  0.40116390  0.17325389  0.05975725  1  0  -0.540112  0  2.105451  0  0  -0.485898  0  2.324472  0  0  -0.509015  0  2.311113  0  0  -0.324866  -0.46987  0  2.333287  0
O  O75  1  0.90116431  0.82674634  0.44024162  1  0  -0.540156  0  2.105492  0  0  -0.48592  0  2.324495  0  0  -0.509038  0  2.311138  0  0  -0.32486  -0.469893  0  2.333309  0
O  O76  1  0.66561936  0.64992185  0.03269069  1  0  -0.631273  0  1.99317  0  0  -0.58631  0  2.221787  0  0  -0.607118  0  2.210341  0  0  -0.376491  -0.572405  0  2.229471  0
O  O77  1  0.16561709  0.35007610  0.46730944  1  0  -0.631325  0  1.993086  0  0  -0.586357  0  2.221696  0  0  -0.607167  0  2.21025  0  0  -0.376522  -0.572453  0  2.229391  0
O  O78  1  0.33438138  0.35008052  0.96730809  1  0  -0.63126  0  1.993102  0  0  -0.586253  0  2.221734  0  0  -0.607063  0  2.21029  0  0  -0.376465  -0.572346  0  2.229421  0
O  O79  1  0.83438226  0.64992115  0.53269131  1  0  -0.631344  0  1.993084  0  0  -0.586344  0  2.221727  0  0  -0.607152  0  2.210279  0  0  -0.376505  -0.572445  0  2.229413  0
