# generated using pymatgen
data_NiH22C32N4O7
_symmetry_space_group_name_H-M   'P 1'
_cell_length_a   10.17361971
_cell_length_b   14.71221784
_cell_length_c   24.86659401
_cell_angle_alpha   90.98289012
_cell_angle_beta   93.65363835
_cell_angle_gamma   101.82578474
_symmetry_Int_Tables_number   1
_chemical_formula_structural   NiH22C32N4O7
_chemical_formula_sum   'Ni4 H88 C128 N16 O28'
_cell_volume   3633.80384391
_cell_formula_units_Z   4
loop_
 _symmetry_equiv_pos_site_id
 _symmetry_equiv_pos_as_xyz
  1  'x, y, z'
loop_
 _atom_site_type_symbol
 _atom_site_label
 _atom_site_symmetry_multiplicity
 _atom_site_fract_x
 _atom_site_fract_y
 _atom_site_fract_z
 _atom_site_occupancy
 _atom_site_pbe_bader_charge
 _atom_site_pbe_bader_spin_density
 _atom_site_pbe_cm5_charge
 _atom_site_pbe_ddec_charge
 _atom_site_pbe_ddec_spin_density
 _atom_site_pbe_ddec_sum_bond_order
 _atom_site_pbe_magmom
Ni  Ni0  1  0.47663343  0.36019899  0.01925411  1  1.190797  1.554817  0.651047  0.773891  1.770507  2.53  1.541
Ni  Ni1  1  0.52336598  0.63979772  0.98074490  1  1.190662  1.554803  0.651099  0.773934  1.770496  2.530202  1.541
Ni  Ni2  1  0.03127114  0.14192315  0.51258815  1  1.18206  1.553472  0.652554  0.774042  1.770713  2.526896  1.539
Ni  Ni3  1  0.96872228  0.85808042  0.48741279  1  1.182011  1.553466  0.652551  0.774018  1.770699  2.526911  1.539
H  H4  1  0.68127628  0.34923897  0.94011669  1  0.125791  0.001695  0.120231  0.093604  0.00054  1.011317  0.001
H  H5  1  0.31870798  0.65075270  0.05988351  1  0.12619  0.001695  0.120231  0.093531  0.000539  1.011436  0.001
H  H6  1  0.28197616  0.37041202  0.92277174  1  0.095368  0.001738  0.120512  0.090535  0.000597  1.002666  0.001
H  H7  1  0.71801350  0.62958871  0.07722546  1  0.095272  0.001739  0.120516  0.090471  0.000597  1.002734  0.001
H  H8  1  0.70366383  0.35825022  0.84131511  1  0.040523  0.001137  0.10696  0.118161  0.00053  0.994451  0.0
H  H9  1  0.29633382  0.64174717  0.15868548  1  0.040507  0.001138  0.106935  0.118112  0.00053  0.994559  0.0
H  H10  1  0.28637801  0.38177207  0.82310908  1  0.13278  0.00073  0.111187  0.137275  0.000355  1.015963  0.0
H  H11  1  0.71361934  0.61823154  0.17688874  1  0.132531  0.00073  0.111186  0.137227  0.000355  1.015941  0.0
H  H12  1  0.93455746  0.64831486  0.97542373  1  0.057026  0.000454  0.097118  0.099464  0.000252  1.04301  0.0
H  H13  1  0.06543968  0.35168804  0.02457288  1  0.057112  0.000454  0.097092  0.099466  0.000252  1.042995  0.0
H  H14  1  0.82372177  0.36679452  0.02559738  1  0.108275  0.000131  0.103074  0.113205  7e-06  1.034948  0.0
H  H15  1  0.17627505  0.63320354  0.97440118  1  0.108304  0.000131  0.103094  0.113238  7e-06  1.034985  0.0
H  H16  1  0.29079174  0.05456602  0.97137009  1  0.096753  0.000471  0.100413  0.104396  0.000303  1.021476  0.0
H  H17  1  0.70921952  0.94542736  0.02862235  1  0.096505  0.000471  0.100414  0.104324  0.000303  1.021491  0.0
H  H18  1  0.69616618  0.11275141  0.04202731  1  0.088651  0.00048  0.097739  0.095672  0.000346  1.071979  0.0
H  H19  1  0.30384672  0.88724062  0.95796959  1  0.088615  0.000481  0.09776  0.095669  0.000347  1.071959  0.0
H  H20  1  0.59921231  0.36217370  0.75697432  1  0.443554  0.000109  0.317144  0.264341  7.9e-05  0.957767  0.0
H  H21  1  0.40079414  0.63783072  0.24302575  1  0.443573  0.000109  0.31718  0.264325  7.9e-05  0.957866  0.0
H  H22  1  0.26178989  0.33656974  0.63743775  1  0.11702  -2.3e-05  0.108682  0.11183  -3.6e-05  1.002056  0.0
H  H23  1  0.73821280  0.66342080  0.36256491  1  0.116713  -2.3e-05  0.108673  0.111803  -3.6e-05  1.002046  0.0
H  H24  1  0.68201579  0.41252703  0.69232006  1  0.064141  2.5e-05  0.10543  0.101221  1e-05  1.004728  0.0
H  H25  1  0.31798628  0.58747941  0.30767951  1  0.064176  2.5e-05  0.105424  0.101204  1e-05  1.004786  0.0
H  H26  1  0.32349984  0.30128438  0.54599800  1  0.186042  4e-05  0.113902  0.147976  -4.9e-05  1.037722  0.0
H  H27  1  0.67650719  0.69870761  0.45400679  1  0.185365  4e-05  0.113843  0.147898  -4.9e-05  1.037654  0.0
H  H28  1  0.74447641  0.37704728  0.60087023  1  0.107614  1.4e-05  0.11445  0.132668  7e-06  0.980788  0.0
H  H29  1  0.25552049  0.62296186  0.39912924  1  0.107668  1.4e-05  0.114417  0.132609  7e-06  0.980806  0.0
H  H30  1  0.64368642  0.23175146  0.43877379  1  0.096856  9e-05  0.113829  0.132529  5.9e-05  0.998538  0.0
H  H31  1  0.35631951  0.76824742  0.56122702  1  0.096888  9e-05  0.113835  0.132548  5.9e-05  0.998547  0.0
H  H32  1  0.40156013  0.42027389  0.49157672  1  0.087754  0.000108  0.106654  0.116625  7.8e-05  1.035821  0.0
H  H33  1  0.59844265  0.57972078  0.50842035  1  0.08795  0.000108  0.106604  0.116512  7.8e-05  1.03591  0.0
H  H34  1  0.56870411  0.25273188  0.34323290  1  0.064069  2.2e-05  0.103402  0.097624  5e-06  1.002878  0.0
H  H35  1  0.43130869  0.74725602  0.65676837  1  0.064182  2.2e-05  0.103278  0.097427  5e-06  1.002978  0.0
H  H36  1  0.32283505  0.43823117  0.39667563  1  0.113651  5e-06  0.105589  0.106594  2e-06  1.008366  0.0
H  H37  1  0.67717958  0.56176365  0.60332012  1  0.113758  5e-06  0.105639  0.106606  2e-06  1.008282  0.0
H  H38  1  0.59157249  0.36802585  0.28790992  1  0.441281  8.9e-05  0.323019  0.274913  6e-05  0.934892  0.0
H  H39  1  0.40843700  0.63195368  0.71208637  1  0.441312  8.9e-05  0.322947  0.27485  6e-05  0.93478  0.0
H  H40  1  0.70304902  0.38880700  0.21001243  1  0.058885  0.001194  0.109411  0.123296  0.000554  0.988993  0.0
H  H41  1  0.29696737  0.61120515  0.78998272  1  0.059006  0.001194  0.109405  0.123247  0.000554  0.98903  0.0
H  H42  1  0.26822191  0.33888196  0.20306231  1  0.1389  0.000763  0.109833  0.135104  0.000371  1.017579  0.0
H  H43  1  0.73178920  0.66111422  0.79693860  1  0.13875  0.000763  0.109879  0.135224  0.000371  1.017448  0.0
H  H44  1  0.68656693  0.38313744  0.10909372  1  0.1473  0.001934  0.120061  0.096015  0.000685  1.003728  0.001
H  H45  1  0.31343354  0.61686688  0.89090137  1  0.147265  0.001935  0.120051  0.095994  0.000686  1.00379  0.001
H  H46  1  0.27174981  0.33473873  0.10243778  1  0.133445  0.001735  0.119777  0.096822  0.000618  0.998428  0.001
H  H47  1  0.72825060  0.66525801  0.89756287  1  0.133411  0.001736  0.119735  0.096824  0.000618  0.998467  0.001
H  H48  1  0.83565334  0.20717088  0.68992081  1  0.035682  0.001144  0.105077  0.114302  0.000526  1.000271  0.0
H  H49  1  0.16433557  0.79283055  0.31008080  1  0.035884  0.001144  0.10501  0.114292  0.000526  1.000224  0.0
H  H50  1  0.75595922  0.14043389  0.92741393  1  0.115125  1.1e-05  0.113966  0.133893  -1e-06  0.986943  0.0
H  H51  1  0.24403998  0.85956908  0.07259117  1  0.115  1.1e-05  0.113957  0.133846  -1e-06  0.986947  0.0
H  H52  1  0.82532856  0.11852528  0.83483542  1  0.055371  1.8e-05  0.105257  0.0992  7e-06  1.00122  0.0
H  H53  1  0.17466239  0.88147273  0.16516863  1  0.055566  1.8e-05  0.105267  0.09918  7e-06  1.001285  0.0
H  H54  1  0.80079436  0.37647367  0.47200808  1  0.105427  0.000518  0.096171  0.094977  0.000375  1.068813  0.0
H  H55  1  0.19921047  0.62353211  0.52798994  1  0.105637  0.000518  0.096128  0.094957  0.000375  1.068875  0.0
H  H56  1  0.21668418  0.12046645  0.70945723  1  0.142612  0.000742  0.109466  0.134791  0.00036  1.022407  0.0
H  H57  1  0.78328769  0.87951953  0.29054221  1  0.142519  0.000742  0.109445  0.134752  0.00036  1.022436  0.0
H  H58  1  0.31591379  0.86705076  0.46893590  1  0.114242  0.000144  0.102922  0.111796  2.7e-05  1.027694  0.0
H  H59  1  0.68406650  0.13294433  0.53106746  1  0.113261  0.000144  0.102924  0.111705  2.7e-05  1.027706  0.0
H  H60  1  0.10570185  0.08617989  0.03855445  1  0.092362  0.000122  0.108653  0.123854  8.5e-05  1.020472  0.0
H  H61  1  0.89429519  0.91381888  0.96144734  1  0.092187  0.000122  0.108664  0.123921  8.5e-05  1.020506  0.0
H  H62  1  0.21655684  0.45542803  0.52873289  1  0.087496  0.000491  0.098772  0.101083  0.000317  1.021509  0.0
H  H63  1  0.78346377  0.54458141  0.47126556  1  0.087519  0.000491  0.098827  0.101132  0.000317  1.021421  0.0
H  H64  1  0.78674572  0.09416998  0.32408057  1  0.057232  0.001235  0.109249  0.12139  0.000576  0.99018  0.0
H  H65  1  0.21325225  0.90583225  0.67591886  1  0.057261  0.001235  0.109256  0.121399  0.000577  0.990189  0.0
H  H66  1  0.85817681  0.20489263  0.59065618  1  0.122072  0.001755  0.119451  0.093124  0.000577  1.01557  0.001
H  H67  1  0.14181598  0.79511578  0.40934680  1  0.121614  0.001755  0.119441  0.093111  0.000577  1.015637  0.001
H  H68  1  0.17709247  0.06061846  0.13298464  1  0.106502  6e-06  0.108171  0.108877  -1e-06  1.00115  0.0
H  H69  1  0.82290557  0.93938032  0.86701839  1  0.106465  6e-06  0.108146  0.108824  -1e-06  1.001092  0.0
H  H70  1  0.22437700  0.14825631  0.42671528  1  0.108476  0.001864  0.121684  0.093551  0.000639  0.988278  0.001
H  H71  1  0.77562678  0.85175639  0.57328560  1  0.108742  0.001864  0.121713  0.093573  0.00064  0.988148  0.001
H  H72  1  0.44178349  0.14732638  0.53104196  1  0.067174  0.00046  0.097095  0.100334  0.000269  1.043218  0.0
H  H73  1  0.55819851  0.85267149  0.46895744  1  0.06724  0.000461  0.097101  0.100319  0.000269  1.043191  0.0
H  H74  1  0.82972535  0.24811617  0.09456617  1  0.110958  0.000114  0.114562  0.132779  7.6e-05  1.001187  0.0
H  H75  1  0.17027835  0.75188893  0.90543745  1  0.110988  0.000114  0.114567  0.13281  7.6e-05  1.001227  0.0
H  H76  1  0.80945089  0.10475670  0.42429181  1  0.098481  0.002125  0.119839  0.089891  0.00074  1.001214  0.001
H  H77  1  0.19055278  0.89524838  0.57570820  1  0.098438  0.002125  0.119816  0.089887  0.000741  1.001262  0.001
H  H78  1  0.89296519  0.10722679  0.24424288  1  0.459954  8.2e-05  0.323807  0.276094  5.6e-05  0.934582  0.0
H  H79  1  0.10704065  0.89277902  0.75575798  1  0.459943  8.2e-05  0.323773  0.276029  5.6e-05  0.934637  0.0
H  H80  1  0.22113807  0.12147262  0.60857545  1  0.117727  0.001541  0.118955  0.096175  0.00056  1.011707  0.001
H  H81  1  0.77884930  0.87852325  0.39142446  1  0.117641  0.00154  0.118954  0.096031  0.00056  1.011762  0.001
H  H82  1  0.92811284  0.18711571  0.77450463  1  0.449153  0.00012  0.318166  0.264194  8.3e-05  0.951919  0.0
H  H83  1  0.07186918  0.81288217  0.22549678  1  0.448773  0.00012  0.318206  0.264295  8.3e-05  0.95181  0.0
H  H84  1  0.17403747  0.20170784  0.98746722  1  0.161869  0.000135  0.112523  0.144868  5.3e-05  1.048942  0.0
H  H85  1  0.82596253  0.79829096  0.01253344  1  0.162331  0.000135  0.11253  0.144904  5.3e-05  1.048885  0.0
H  H86  1  0.89862791  0.21957980  0.18945698  1  0.049484  2.2e-05  0.103355  0.096209  5e-06  1.00559  0.0
H  H87  1  0.10137505  0.78042253  0.81054781  1  0.045031  2.2e-05  0.103278  0.096147  5e-06  1.005609  0.0
H  H88  1  0.24130239  0.17545286  0.89621746  1  0.095347  -2.1e-05  0.109303  0.111356  -4.6e-05  1.002128  0.0
H  H89  1  0.75869404  0.82454728  0.10378353  1  0.095297  -2.1e-05  0.109277  0.1113  -4.6e-05  1.002106  0.0
H  H90  1  0.22071210  0.13763299  0.32650381  1  0.147672  0.000742  0.110833  0.135977  0.000364  1.018183  0.0
H  H91  1  0.77929129  0.86237831  0.67349584  1  0.147642  0.000742  0.110848  0.136  0.000364  1.018278  0.0
C  C92  1  0.72292853  0.51911588  0.00272073  1  1.559518  0.001338  0.208514  0.565054  0.000574  4.224977  0.001
C  C93  1  0.27706767  0.48088702  0.99728027  1  1.559272  0.001343  0.208316  0.564608  0.00058  4.225041  0.001
C  C94  1  0.48932177  0.19320543  0.01483981  1  1.551008  -0.00425  0.192687  0.539924  -0.005857  4.212296  -0.006
C  C95  1  0.51068418  0.80678651  0.98515450  1  1.550512  -0.004252  0.192656  0.53961  -0.005859  4.212442  -0.006
C  C96  1  0.59643891  0.35722656  0.91289249  1  0.457205  -0.003753  0.045175  0.108106  -0.004401  3.957763  -0.003
C  C97  1  0.40355342  0.64276590  0.08710430  1  0.456305  -0.003753  0.045183  0.10827  -0.004401  3.957834  -0.003
C  C98  1  0.37434018  0.36940228  0.90326568  1  0.458986  -0.003936  0.0534  0.123827  -0.004629  3.945664  -0.003
C  C99  1  0.62565010  0.63059708  0.09673313  1  0.459794  -0.003941  0.053342  0.123784  -0.004633  3.945802  -0.003
C  C100  1  0.86610445  0.50905992  0.00091666  1  -0.018768  0.011381  -0.02287  -0.035713  0.00685  3.98204  0.009
C  C101  1  0.13389701  0.49094442  0.99907805  1  -0.018324  0.011374  -0.022836  -0.035389  0.006846  3.981778  0.009
C  C102  1  0.49319353  0.09315099  0.00787033  1  -0.057756  0.003902  -0.017088  -0.021946  0.002481  3.982991  0.003
C  C103  1  0.50682324  0.90684454  0.99212187  1  -0.057929  0.003901  -0.017051  -0.021852  0.002481  3.982891  0.003
C  C104  1  0.60781492  0.36188822  0.85774449  1  0.000465  0.004769  -0.097443  -0.24798  0.002658  3.96781  0.004
C  C105  1  0.39218019  0.63810359  0.14225237  1  0.001091  0.004769  -0.097468  -0.248055  0.002659  3.967882  0.004
C  C106  1  0.37586451  0.37508461  0.84762765  1  0.074668  0.004674  -0.090924  -0.226632  0.002621  3.91495  0.004
C  C107  1  0.62412599  0.62491545  0.15237319  1  0.075084  0.004675  -0.090899  -0.226479  0.002621  3.914919  0.004
C  C108  1  0.96481745  0.58380414  0.98602562  1  -0.068171  0.002235  -0.095677  -0.103806  0.001136  3.990748  0.001
C  C109  1  0.03517992  0.41619947  0.01397542  1  -0.068727  0.002238  -0.09575  -0.104044  0.001138  3.990485  0.001
C  C110  1  0.90184852  0.42487835  0.01488905  1  -0.026923  0.001638  -0.090932  -0.107285  0.00091  3.975616  0.001
C  C111  1  0.09815188  0.57511837  0.98510999  1  -0.02755  0.001641  -0.091001  -0.107503  0.000912  3.975778  0.001
C  C112  1  0.38167175  0.03000173  0.98405439  1  -0.041226  0.001172  -0.08956  -0.099793  0.000561  3.972627  0.001
C  C113  1  0.61834284  0.96999307  0.01593694  1  -0.040747  0.001171  -0.089392  -0.099474  0.00056  3.972418  0.001
C  C114  1  0.61103401  0.06253090  0.02376780  1  -0.049935  0.001247  -0.091608  -0.10414  0.000597  3.990129  0.001
C  C115  1  0.38898151  0.93746737  0.97622117  1  -0.050043  0.001246  -0.091513  -0.103953  0.000597  3.990132  0.001
C  C116  1  0.49597926  0.37155044  0.82365430  1  0.350514  -0.00524  0.116995  0.293734  -0.005837  4.03541  -0.004
C  C117  1  0.50401854  0.62845111  0.17634754  1  0.350019  -0.005242  0.116924  0.293579  -0.005839  4.03556  -0.004
C  C118  1  0.41795183  0.38479884  0.72667520  1  1.390592  -0.00086  0.23972  0.483792  -0.0011  4.117521  -0.001
C  C119  1  0.58204855  0.61520136  0.27332628  1  1.390629  -0.000861  0.239685  0.483768  -0.0011  4.117623  -0.001
C  C120  1  0.46553411  0.37316020  0.67190361  1  -0.057372  9e-05  -0.028019  -0.073444  1.6e-05  4.028638  0.0
C  C121  1  0.53447173  0.62684559  0.32809605  1  -0.057487  9e-05  -0.028004  -0.073481  1.6e-05  4.028558  0.0
C  C122  1  0.36753525  0.34531633  0.62925921  1  0.012693  -0.000265  -0.074522  -0.055716  -0.000292  3.960258  0.0
C  C123  1  0.63247159  0.65467497  0.37074436  1  0.013134  -0.000266  -0.074522  -0.055682  -0.000292  3.959917  0.0
C  C124  1  0.60216097  0.38489723  0.66135320  1  -0.095308  -0.000126  -0.089713  -0.103758  -0.00015  4.034983  0.0
C  C125  1  0.39784289  0.61510854  0.33864561  1  -0.09532  -0.000127  -0.089667  -0.103729  -0.000151  4.035021  0.0
C  C126  1  0.40257642  0.32588395  0.57771713  1  -0.088087  0.000101  -0.097578  -0.210552  3.9e-05  3.955817  0.0
C  C127  1  0.59742675  0.67411560  0.42228482  1  -0.087404  0.000101  -0.097489  -0.210407  3.9e-05  3.955429  0.0
C  C128  1  0.63916650  0.36721128  0.60999433  1  0.010407  7.6e-05  -0.095582  -0.19013  4.1e-05  3.985946  0.0
C  C129  1  0.36083184  0.63279234  0.39000472  1  0.010472  7.6e-05  -0.09557  -0.190019  4.1e-05  3.985994  0.0
C  C130  1  0.53912734  0.33710169  0.56850693  1  0.413228  -0.000176  0.094766  0.270521  -0.000209  4.019856  0.0
C  C131  1  0.46086888  0.66289775  0.43149203  1  0.412995  -0.000176  0.094701  0.270409  -0.00021  4.019907  0.0
C  C132  1  0.52819012  0.32505173  0.47031678  1  0.385408  -6.4e-05  0.097149  0.272114  -0.000105  4.008035  0.0
C  C133  1  0.47181403  0.67494783  0.52968519  1  0.385686  -6.4e-05  0.0971  0.272078  -0.000105  4.008127  0.0
C  C134  1  0.57445799  0.27735887  0.42854029  1  -0.030759  8.3e-05  -0.09574  -0.188842  4.5e-05  3.982188  0.0
C  C135  1  0.42554265  0.72263509  0.57145994  1  -0.030902  8.3e-05  -0.095808  -0.189005  4.5e-05  3.982386  0.0
C  C136  1  0.43761128  0.38331131  0.45923912  1  0.039061  0.000151  -0.096772  -0.198829  0.00012  3.976174  0.0
C  C137  1  0.56240173  0.61668835  0.54075825  1  0.038587  0.000151  -0.096642  -0.198646  0.00012  3.976182  0.0
C  C138  1  0.53313470  0.29070548  0.37550718  1  -0.014755  -3.2e-05  -0.088457  -0.09662  -5.6e-05  4.02541  0.0
C  C139  1  0.46687158  0.70928025  0.62449271  1  -0.015189  -3.2e-05  -0.088229  -0.096281  -5.6e-05  4.025415  0.0
C  C140  1  0.39408635  0.39375643  0.40596582  1  -0.026537  -0.000108  -0.07195  -0.048377  -0.000117  3.959699  0.0
C  C141  1  0.60591612  0.60622992  0.59402916  1  -0.026194  -0.000108  -0.072051  -0.048518  -0.000117  3.959312  0.0
C  C142  1  0.44325254  0.34972039  0.36346758  1  -0.075473  5.6e-05  -0.027446  -0.071809  -4e-06  4.036379  0.0
C  C143  1  0.55675721  0.65027091  0.63653003  1  -0.075261  5.7e-05  -0.027506  -0.071681  -4e-06  4.03622  0.0
C  C144  1  0.39870000  0.36649291  0.30696882  1  1.38635  -0.00083  0.239478  0.482909  -0.001054  4.120033  -0.001
C  C145  1  0.60132449  0.63350550  0.69302802  1  1.385654  -0.000831  0.239412  0.482689  -0.001054  4.120105  -0.001
C  C146  1  0.48593459  0.36344692  0.21489925  1  0.381753  -0.005321  0.112616  0.29153  -0.005932  4.042145  -0.004
C  C147  1  0.51407485  0.63655408  0.78509925  1  0.381754  -0.00532  0.112488  0.291377  -0.005931  4.042334  -0.004
C  C148  1  0.60489760  0.37558189  0.18761164  1  -0.003655  0.005237  -0.098901  -0.251205  0.002922  3.97856  0.004
C  C149  1  0.39511399  0.62441982  0.81238450  1  -0.003816  0.005237  -0.098872  -0.251208  0.002921  3.978852  0.004
C  C150  1  0.36279267  0.34853845  0.18388233  1  0.020164  0.005358  -0.093307  -0.231652  0.003012  3.929572  0.004
C  C151  1  0.63722117  0.65146054  0.81611907  1  0.020092  0.005358  -0.093312  -0.23176  0.003012  3.929342  0.004
C  C152  1  0.59683051  0.37244202  0.13180284  1  0.43491  -0.003517  0.045688  0.107153  -0.004152  3.968977  -0.003
C  C153  1  0.40317081  0.62755816  0.86819224  1  0.435084  -0.003516  0.045734  0.107216  -0.00415  3.969224  -0.003
C  C154  1  0.36484382  0.34605710  0.12808353  1  0.423183  -0.003862  0.051484  0.114554  -0.004605  3.941549  -0.003
C  C155  1  0.63515725  0.65393480  0.87191709  1  0.423191  -0.00386  0.051467  0.114502  -0.004604  3.941589  -0.003
C  C156  1  0.22167462  0.01777701  0.49855128  1  1.553672  0.001249  0.206648  0.55965  0.000548  4.236568  0.001
C  C157  1  0.77831290  0.98222302  0.50144868  1  1.553862  0.001245  0.206554  0.559492  0.000544  4.237106  0.001
C  C158  1  0.09011638  0.13773054  0.80472114  1  1.380449  -0.000679  0.240227  0.4849  -0.000864  4.12284  0.0
C  C159  1  0.90987436  0.86226677  0.19528128  1  1.38044  -0.000679  0.240161  0.484961  -0.000865  4.122938  0.0
C  C160  1  0.92378541  0.18800164  0.67368106  1  0.017464  0.004636  -0.097817  -0.246279  0.002606  3.972852  0.004
C  C161  1  0.07619957  0.81199628  0.32632003  1  0.017224  0.004636  -0.097757  -0.246333  0.002606  3.972632  0.004
C  C162  1  0.08662528  0.11630635  0.22373510  1  1.376803  -0.000798  0.240372  0.484752  -0.001021  4.111893  0.0
C  C163  1  0.91337040  0.88369102  0.77626665  1  1.376391  -0.000798  0.240338  0.48466  -0.001021  4.111881  0.0
C  C164  1  0.86187850  0.14903781  0.91949538  1  -0.028156  4.1e-05  -0.095719  -0.184728  1.7e-05  3.971231  0.0
C  C165  1  0.13811796  0.85096235  0.08050962  1  -0.028306  4.1e-05  -0.095644  -0.184596  1.7e-05  3.971126  0.0
C  C166  1  0.90256611  0.13843718  0.86786506  1  -0.019704  -5e-05  -0.090624  -0.107786  -7e-05  4.043649  0.0
C  C167  1  0.09743034  0.86156297  0.13213874  1  -0.019597  -5e-05  -0.09064  -0.107778  -7e-05  4.043886  0.0
C  C168  1  0.00294334  0.11560239  0.31659387  1  0.324278  -0.005415  0.116249  0.293847  -0.006009  4.039193  -0.004
C  C169  1  0.99705319  0.88440537  0.68340759  1  0.324387  -0.005414  0.116274  0.293924  -0.006009  4.038993  -0.004
C  C170  1  0.88706227  0.43137031  0.48413706  1  -0.004456  0.001098  -0.091027  -0.10264  0.000495  3.990237  0.001
C  C171  1  0.11294765  0.56863969  0.51586113  1  -0.00425  0.001099  -0.091153  -0.102866  0.000496  3.990573  0.001
C  C172  1  0.13548708  0.13921564  0.68448161  1  0.01031  0.004699  -0.095404  -0.234131  0.002643  3.93645  0.004
C  C173  1  0.86448965  0.86077731  0.31551762  1  0.010258  0.0047  -0.095351  -0.234064  0.002643  3.936358  0.004
C  C174  1  0.39739374  0.92496385  0.48201266  1  -0.083963  0.001478  -0.090429  -0.101326  0.000748  3.975724  0.001
C  C175  1  0.60259149  0.07503131  0.51799001  1  -0.086151  0.00148  -0.090409  -0.10132  0.000747  3.975594  0.001
C  C176  1  0.96318643  0.16956846  0.06121105  1  0.364773  -0.000134  0.099508  0.274102  -0.000177  4.006644  0.0
C  C177  1  0.03681670  0.83043454  0.93879173  1  0.364781  -0.000134  0.099459  0.274006  -0.000177  4.006622  0.0
C  C178  1  0.06058326  0.11590616  0.07128031  1  0.038766  0.000116  -0.096856  -0.199741  7.8e-05  3.96251  0.0
C  C179  1  0.93941931  0.88409477  0.92872405  1  0.038913  0.000116  -0.096818  -0.199764  7.8e-05  3.962477  0.0
C  C180  1  0.12261821  0.47583117  0.51584327  1  -0.104856  0.001096  -0.086579  -0.09564  0.000491  3.973635  0.001
C  C181  1  0.87740094  0.52418379  0.48415439  1  -0.104171  0.001096  -0.086631  -0.095731  0.000492  3.973675  0.001
C  C182  1  0.88631389  0.10595109  0.34531262  1  -0.036929  0.004923  -0.097917  -0.253947  0.002711  3.981832  0.004
C  C183  1  0.11368446  0.89405254  0.65468683  1  -0.037047  0.004923  -0.097917  -0.253952  0.002711  3.981758  0.004
C  C184  1  0.93511799  0.18675533  0.61851776  1  0.467175  -0.002829  0.045781  0.106411  -0.003501  3.960927  -0.002
C  C185  1  0.06487186  0.81324957  0.38148350  1  0.467172  -0.002828  0.045769  0.106451  -0.003501  3.961217  -0.002
C  C186  1  0.02484769  0.16285246  0.70802912  1  0.366572  -0.004235  0.116041  0.295508  -0.004738  4.037423  -0.003
C  C187  1  0.97513394  0.83714402  0.29197025  1  0.366715  -0.004236  0.11605  0.295622  -0.004739  4.037456  -0.003
C  C188  1  0.04079984  0.13532686  0.16772987  1  0.002815  7.6e-05  -0.027196  -0.072013  1.1e-05  4.031685  0.0
C  C189  1  0.95920132  0.86467612  0.83227287  1  0.003342  7.6e-05  -0.027125  -0.071874  1.1e-05  4.031319  0.0
C  C190  1  0.09986359  0.10081902  0.12445768  1  -0.062628  -0.000173  -0.072902  -0.050743  -0.000185  3.966191  0.0
C  C191  1  0.90013681  0.89918119  0.87554581  1  -0.062529  -0.000173  -0.072902  -0.050709  -0.000185  3.965787  0.0
C  C192  1  0.12907930  0.13504733  0.40239920  1  0.500532  -0.004274  0.054052  0.125453  -0.004995  3.929427  -0.003
C  C193  1  0.87092566  0.86496607  0.59760131  1  0.50019  -0.004274  0.054057  0.125495  -0.004995  3.929093  -0.003
C  C194  1  0.46890086  0.08327527  0.51759154  1  0.015125  0.002148  -0.094594  -0.105823  0.001098  3.995471  0.001
C  C195  1  0.53108435  0.91672336  0.48241357  1  0.01468  0.002145  -0.094609  -0.105924  0.001097  3.995714  0.001
C  C196  1  0.00947889  0.40674568  0.49993149  1  -0.017891  0.003652  -0.018681  -0.022158  0.002358  3.987366  0.003
C  C197  1  0.99053023  0.59326848  0.50007074  1  -0.01822  0.00365  -0.018641  -0.022041  0.002357  3.987505  0.003
C  C198  1  0.90530439  0.20680963  0.10395665  1  0.034108  0.000124  -0.097075  -0.193013  6.9e-05  3.977922  0.0
C  C199  1  0.09469972  0.79319339  0.89604616  1  0.034509  0.000124  -0.097083  -0.193059  7e-05  3.977959  0.0
C  C200  1  0.89818171  0.11122689  0.40114580  1  0.531644  -0.003793  0.046736  0.111197  -0.00443  3.966255  -0.003
C  C201  1  0.10182167  0.88876988  0.59885452  1  0.531668  -0.003791  0.046805  0.111192  -0.004429  3.96619  -0.003
C  C202  1  0.03980827  0.14769533  0.85902790  1  -0.039643  8.1e-05  -0.029006  -0.072035  1.9e-05  4.039317  0.0
C  C203  1  0.96018954  0.85230622  0.14097474  1  -0.040177  8.1e-05  -0.029036  -0.072141  1.9e-05  4.039373  0.0
C  C204  1  0.13797993  0.14020288  0.62870232  1  0.486408  -0.002653  0.047503  0.103496  -0.003284  3.956738  -0.002
C  C205  1  0.86200546  0.85979296  0.37129714  1  0.486285  -0.002653  0.047546  0.103833  -0.003285  3.956797  -0.002
C  C206  1  0.09637833  0.18177464  0.95479972  1  -0.021111  0.000186  -0.100358  -0.217658  0.000112  3.974337  0.0
C  C207  1  0.90362047  0.81822692  0.04520294  1  -0.021598  0.000186  -0.100315  -0.217708  0.000112  3.974293  0.0
C  C208  1  0.36562924  0.00854447  0.49953475  1  -0.056127  0.011018  -0.023092  -0.037347  0.006659  3.985896  0.008
C  C209  1  0.63435519  0.99145137  0.50046710  1  -0.053238  0.01102  -0.023052  -0.037053  0.006662  3.98589  0.008
C  C210  1  0.95933850  0.17090260  0.96271799  1  0.351033  -5.6e-05  0.094799  0.27229  -9.2e-05  4.020743  0.0
C  C211  1  0.04066223  0.82910245  0.03728515  1  0.351274  -5.6e-05  0.094747  0.272303  -9.2e-05  4.020734  0.0
C  C212  1  0.94317970  0.18894954  0.15667226  1  -0.071415  -0.000117  -0.088217  -0.092554  -0.000138  4.024049  0.0
C  C213  1  0.05682852  0.81105769  0.84333109  1  -0.067436  -0.000117  -0.088154  -0.092504  -0.000138  4.023878  0.0
C  C214  1  0.13495641  0.16808199  0.90308419  1  -0.006166  -0.000153  -0.073611  -0.05903  -0.00018  3.970317  0.0
C  C215  1  0.86504061  0.83192025  0.09691924  1  -0.005998  -0.000153  -0.073557  -0.058893  -0.00018  3.970346  0.0
C  C216  1  0.12756809  0.13001093  0.34656727  1  0.01084  0.004933  -0.089673  -0.222705  0.002762  3.908237  0.004
C  C217  1  0.87242985  0.86999477  0.65343380  1  0.010963  0.004933  -0.089748  -0.222872  0.002762  3.908348  0.004
C  C218  1  0.01689209  0.30697748  0.50143162  1  1.52682  -0.004358  0.194064  0.540743  -0.006038  4.210617  -0.006
C  C219  1  0.98311685  0.69303598  0.49857100  1  1.526346  -0.004358  0.193925  0.54076  -0.006038  4.210881  -0.006
N  N220  1  0.48153813  0.36158436  0.93610584  1  -1.201471  0.061423  -0.327311  -0.237099  0.035804  3.561881  0.056
N  N221  1  0.51845524  0.63840466  0.06389135  1  -1.201895  0.061426  -0.327232  -0.237005  0.035804  3.561978  0.056
N  N222  1  0.47882628  0.35824483  0.10201606  1  -1.189626  0.070402  -0.330569  -0.222632  0.041138  3.563547  0.063
N  N223  1  0.52117110  0.64175531  0.89798133  1  -1.189432  0.07041  -0.330539  -0.22256  0.041142  3.563484  0.063
N  N224  1  0.51033027  0.37433855  0.76847219  1  -1.245554  -0.000743  -0.394552  -0.37057  -0.000649  3.564747  0.0
N  N225  1  0.48967166  0.62566374  0.23152815  1  -1.245738  -0.000743  -0.394526  -0.370471  -0.000649  3.56499  0.0
N  N226  1  0.49700751  0.36390893  0.27089583  1  -1.227495  -0.00076  -0.394883  -0.381439  -0.000678  3.569713  0.0
N  N227  1  0.50300508  0.63607827  0.72910383  1  -1.227168  -0.00076  -0.39473  -0.381141  -0.000678  3.569345  0.0
N  N228  1  0.01756853  0.12528884  0.42995513  1  -1.212997  0.064822  -0.328909  -0.233516  0.037948  3.577846  0.058
N  N229  1  0.98243473  0.87471831  0.57004608  1  -1.213023  0.064826  -0.328984  -0.233542  0.03795  3.577772  0.058
N  N230  1  0.04037140  0.16273326  0.59576383  1  -1.211995  0.066514  -0.325433  -0.216732  0.038815  3.537172  0.059
N  N231  1  0.95961807  0.83727026  0.40423782  1  -1.211294  0.066511  -0.325496  -0.217007  0.038814  3.53769  0.059
N  N232  1  0.98859950  0.11376156  0.26062018  1  -1.244388  -0.000865  -0.395347  -0.381203  -0.000785  3.56304  0.0
N  N233  1  0.01140244  0.88624073  0.73938136  1  -1.244285  -0.000865  -0.395295  -0.381091  -0.000785  3.562919  0.0
N  N234  1  0.00920952  0.16327922  0.76308302  1  -1.252684  -0.000547  -0.393292  -0.3688  -0.000488  3.570508  0.0
N  N235  1  0.99077296  0.83671313  0.23691795  1  -1.252122  -0.000547  -0.393284  -0.368956  -0.000488  3.570775  0.0
O  O236  1  0.64635377  0.45939492  0.02890808  1  -1.180185  0.048325  -0.316973  -0.575968  0.026802  2.505106  0.043
O  O237  1  0.35364692  0.54060664  0.97108538  1  -1.179937  0.048336  -0.316921  -0.575793  0.026807  2.50457  0.043
O  O238  1  0.59921099  0.25357534  0.02140478  1  -1.14605  0.077955  -0.311049  -0.538447  0.043506  2.221201  0.07
O  O239  1  0.40079063  0.74641515  0.97858901  1  -1.145876  0.077946  -0.311055  -0.538271  0.043501  2.221376  0.07
O  O240  1  0.37567482  0.21815425  0.01285694  1  -1.134989  0.08735  -0.310366  -0.530898  0.048614  2.255916  0.079
O  O241  1  0.62433011  0.78183009  0.98714531  1  -1.134951  0.087351  -0.310412  -0.530882  0.048614  2.256026  0.079
O  O242  1  0.30859283  0.41109412  0.02062159  1  -1.147721  0.078378  -0.307725  -0.542982  0.043686  2.437202  0.073
O  O243  1  0.69139955  0.58890941  0.97937370  1  -1.147867  0.07839  -0.307898  -0.543224  0.043693  2.437007  0.073
O  O244  1  0.30501988  0.39935249  0.73411005  1  -1.127902  -0.000751  -0.297677  -0.476846  -0.000824  2.077881  -0.001
O  O245  1  0.69498030  0.60064701  0.26588941  1  -1.127927  -0.000751  -0.297688  -0.476836  -0.000825  2.077905  -0.001
O  O246  1  0.58637583  0.31367070  0.52055347  1  -1.102307  4.1e-05  -0.136542  -0.197842  1e-05  2.621386  0.0
O  O247  1  0.41362123  0.68632460  0.47944588  1  -1.102152  4.1e-05  -0.136499  -0.197817  1e-05  2.621324  0.0
O  O248  1  0.28688963  0.38239370  0.29341573  1  -1.127277  -0.000738  -0.297983  -0.475154  -0.00081  2.066618  -0.001
O  O249  1  0.71314015  0.61760964  0.70658289  1  -1.127299  -0.000738  -0.29792  -0.475083  -0.000811  2.066802  -0.001
O  O250  1  0.19862121  0.09071115  0.52160306  1  -1.15117  0.078073  -0.310868  -0.549622  0.043566  2.447317  0.072
O  O251  1  0.80136695  0.90928751  0.47839931  1  -1.151392  0.078064  -0.310903  -0.549633  0.04356  2.447602  0.072
O  O252  1  0.13524133  0.95381461  0.47417670  1  -1.176883  0.049378  -0.31554  -0.56562  0.02726  2.487984  0.045
O  O253  1  0.86473695  0.04619497  0.52582070  1  -1.17664  0.049388  -0.315439  -0.565523  0.027266  2.488025  0.045
O  O254  1  0.90915676  0.18695902  0.01130974  1  -1.102099  0.000101  -0.134366  -0.196317  5.2e-05  2.641815  0.0
O  O255  1  0.09085326  0.81304755  0.98869486  1  -1.102239  0.000101  -0.134419  -0.196374  5.2e-05  2.641949  0.0
O  O256  1  0.13164780  0.28375537  0.50420244  1  -1.137345  0.086503  -0.310156  -0.532678  0.048338  2.245129  0.078
O  O257  1  0.86835576  0.71624906  0.49580600  1  -1.137694  0.086504  -0.310141  -0.532735  0.048337  2.24516  0.078
O  O258  1  0.20090554  0.10394699  0.23630302  1  -1.125585  -0.000817  -0.296797  -0.471969  -0.000898  2.060238  -0.001
O  O259  1  0.79909089  0.89605315  0.76369796  1  -1.125588  -0.000817  -0.296777  -0.471952  -0.000898  2.060217  -0.001
O  O260  1  0.19538752  0.11099502  0.79767098  1  -1.124521  -0.000502  -0.298657  -0.476068  -0.00059  2.071786  0.0
O  O261  1  0.80460460  0.88900021  0.20232824  1  -1.124531  -0.000502  -0.298659  -0.476133  -0.00059  2.071987  0.0
O  O262  1  0.90809932  0.24538648  0.50133797  1  -1.150001  0.078845  -0.31295  -0.539956  0.044167  2.231974  0.071
O  O263  1  0.09190478  0.75463106  0.49866135  1  -1.149438  0.078844  -0.312806  -0.539888  0.044166  2.232257  0.071
