# generated using pymatgen
data_UH3C6(NO3)2
_symmetry_space_group_name_H-M   'P 1'
_cell_length_a   9.27683687
_cell_length_b   9.61189889
_cell_length_c   11.05757640
_cell_angle_alpha   89.99983445
_cell_angle_beta   102.90343023
_cell_angle_gamma   90.00059087
_symmetry_Int_Tables_number   1
_chemical_formula_structural   UH3C6(NO3)2
_chemical_formula_sum   'U4 H12 C24 N8 O24'
_cell_volume   961.08397878
_cell_formula_units_Z   4
loop_
 _symmetry_equiv_pos_site_id
 _symmetry_equiv_pos_as_xyz
  1  'x, y, z'
loop_
 _atom_site_type_symbol
 _atom_site_label
 _atom_site_symmetry_multiplicity
 _atom_site_fract_x
 _atom_site_fract_y
 _atom_site_fract_z
 _atom_site_occupancy
 _atom_site_hle17_bader_spin_density
 _atom_site_hle17_ddec_charge
 _atom_site_hle17_ddec_spin_density
 _atom_site_hle17_ddec_sum_bond_order
 _atom_site_hle17_magmom
 _atom_site_hse06_10hf_bader_spin_density
 _atom_site_hse06_10hf_ddec_charge
 _atom_site_hse06_10hf_ddec_spin_density
 _atom_site_hse06_10hf_ddec_sum_bond_order
 _atom_site_hse06_10hf_magmom
 _atom_site_hse06_bader_spin_density
 _atom_site_hse06_ddec_charge
 _atom_site_hse06_ddec_spin_density
 _atom_site_hse06_ddec_sum_bond_order
 _atom_site_hse06_magmom
 _atom_site_pbe_bader_spin_density
 _atom_site_pbe_cm5_charge
 _atom_site_pbe_ddec_charge
 _atom_site_pbe_ddec_spin_density
 _atom_site_pbe_ddec_sum_bond_order
 _atom_site_pbe_magmom
U  U0  1  0.71774462  0.31986083  0.87969862  1  0  2.410857  0  4.21599  0  0  2.453347  0  4.893758  0  0  2.561106  0  4.857674  0  0  2.204794  2.377314  0  4.918843  0
U  U1  1  0.28223266  0.81985293  0.62031788  1  0  2.410573  0  4.216716  0  0  2.453427  0  4.894355  0  0  2.561152  0  4.858265  0  0  2.204952  2.377515  0  4.91926  0
U  U2  1  0.28225370  0.68013735  0.12030380  1  0  2.410614  0  4.216186  0  0  2.453407  0  4.893833  0  0  2.561168  0  4.85772  0  0  2.204901  2.377439  0  4.918823  0
U  U3  1  0.71777121  0.18015149  0.37967655  1  0  2.410628  0  4.216673  0  0  2.453389  0  4.894271  0  0  2.561044  0  4.858342  0  0  2.204967  2.377401  0  4.919303  0
H  H4  1  0.95057101  0.11342849  0.11674239  1  0  0.112884  0  0.93095  0  0  0.121476  0  0.986705  0  0  0.125346  0  0.983454  0  0  0.134709  0.118675  0  0.989075  0
H  H5  1  0.04942880  0.61342574  0.38325600  1  0  0.112912  0  0.931029  0  0  0.121523  0  0.986777  0  0  0.125394  0  0.983525  0  0  0.134724  0.118724  0  0.989148  0
H  H6  1  0.04942731  0.88656865  0.88325731  1  0  0.112933  0  0.930959  0  0  0.121538  0  0.986703  0  0  0.125409  0  0.98345  0  0  0.134731  0.118739  0  0.989073  0
H  H7  1  0.95057174  0.38657243  0.61674323  1  0  0.112942  0  0.931009  0  0  0.121554  0  0.986752  0  0  0.125425  0  0.983499  0  0  0.134725  0.118753  0  0.989127  0
H  H8  1  0.59185409  0.75716080  0.93837411  1  0  0.12189  0  0.919465  0  0  0.127677  0  0.980998  0  0  0.131919  0  0.976857  0  0  0.139021  0.124773  0  0.983914  0
H  H9  1  0.40814691  0.25716566  0.56162261  1  0  0.121897  0  0.919502  0  0  0.1277  0  0.981014  0  0  0.131942  0  0.976871  0  0  0.139014  0.124796  0  0.983927  0
H  H10  1  0.40814534  0.24283426  0.06162581  1  0  0.121897  0  0.919509  0  0  0.127663  0  0.981051  0  0  0.131905  0  0.976908  0  0  0.139005  0.124758  0  0.983968  0
H  H11  1  0.59185473  0.74283251  0.43837863  1  0  0.121904  0  0.919519  0  0  0.127706  0  0.981023  0  0  0.131949  0  0.97688  0  0  0.139006  0.124807  0  0.983921  0
H  H12  1  0.96635874  0.86849774  0.20345708  1  0  0.106753  0  0.93887  0  0  0.117461  0  0.993174  0  0  0.120831  0  0.99009  0  0  0.129196  0.115005  0  0.995581  0
H  H13  1  0.03364934  0.36849918  0.29653499  1  0  0.106737  0  0.938929  0  0  0.117491  0  0.993168  0  0  0.120863  0  0.990075  0  0  0.129201  0.115036  0  0.995575  0
H  H14  1  0.03364179  0.13149835  0.79654395  1  0  0.106679  0  0.93897  0  0  0.117433  0  0.993217  0  0  0.120803  0  0.99013  0  0  0.129166  0.114976  0  0.995625  0
H  H15  1  0.96635342  0.63150004  0.70346465  1  0  0.10669  0  0.938926  0  0  0.117441  0  0.993182  0  0  0.120813  0  0.990089  0  0  0.129176  0.114986  0  0.995589  0
C  C16  1  0.87027317  0.03360314  0.07776602  1  0  0.100508  0  3.648963  0  0  0.074018  0  3.917617  0  0  0.078053  0  3.932886  0  0  0.075863  0.071217  0  3.907208  0
C  C17  1  0.12972469  0.53360314  0.42223220  1  0  0.100393  0  3.649146  0  0  0.073827  0  3.91789  0  0  0.077865  0  3.933158  0  0  0.075763  0.071025  0  3.907487  0
C  C18  1  0.12972516  0.96639504  0.92223368  1  0  0.100431  0  3.649123  0  0  0.073897  0  3.917827  0  0  0.077936  0  3.933094  0  0  0.075801  0.071092  0  3.907424  0
C  C19  1  0.87027696  0.46639608  0.57776633  1  0  0.100368  0  3.64908  0  0  0.073802  0  3.91782  0  0  0.077842  0  3.933079  0  0  0.075759  0.070997  0  3.907415  0
C  C20  1  0.66156725  0.97182321  0.93332372  1  0  0.026026  0  3.748121  0  0  0.038076  0  3.988016  0  0  0.033603  0  4.009598  0  0  0.122103  0.040653  0  3.973994  0
C  C21  1  0.33842164  0.47182633  0.56668101  1  0  0.025967  0  3.748078  0  0  0.03789  0  3.988144  0  0  0.033404  0  4.00975  0  0  0.122036  0.040469  0  3.974125  0
C  C22  1  0.33842997  0.02817393  0.06667849  1  0  0.025835  0  3.74831  0  0  0.037852  0  3.988222  0  0  0.033374  0  4.009815  0  0  0.122006  0.040428  0  3.974202  0
C  C23  1  0.66157779  0.52817185  0.43331981  1  0  0.025989  0  3.748119  0  0  0.037855  0  3.988255  0  0  0.033357  0  4.009871  0  0  0.122006  0.040434  0  3.974229  0
C  C24  1  0.67243612  0.83607061  0.97982603  1  0  0.097664  0  3.618965  0  0  0.064727  0  3.872559  0  0  0.069216  0  3.886158  0  0  0.080314  0.061561  0  3.863667  0
C  C25  1  0.32756350  0.33607274  0.52017475  1  0  0.097732  0  3.618713  0  0  0.064798  0  3.872349  0  0  0.069289  0  3.885952  0  0  0.080342  0.061633  0  3.863455  0
C  C26  1  0.32756220  0.16392653  0.02017639  1  0  0.097731  0  3.61905  0  0  0.064849  0  3.872577  0  0  0.069342  0  3.886175  0  0  0.080364  0.061682  0  3.863687  0
C  C27  1  0.67243703  0.66392648  0.47982538  1  0  0.097647  0  3.618733  0  0  0.064753  0  3.872368  0  0  0.069252  0  3.885966  0  0  0.080325  0.061589  0  3.863479  0
C  C28  1  0.53959194  0.01999733  0.82952268  1  0  0.68855  0  3.855546  0  0  0.652532  0  4.146075  0  0  0.692343  0  4.134496  0  0  0.262252  0.624949  0  4.153221  0
C  C29  1  0.46039875  0.51999206  0.67049258  1  0  0.688547  0  3.855645  0  0  0.652579  0  4.146104  0  0  0.692388  0  4.134535  0  0  0.26233  0.624998  0  4.153246  0
C  C30  1  0.46040638  0.98000189  0.17047974  1  0  0.688615  0  3.855665  0  0  0.652616  0  4.14618  0  0  0.692422  0  4.134605  0  0  0.262297  0.625032  0  4.153327  0
C  C31  1  0.53959736  0.48000716  0.32950942  1  0  0.68852  0  3.855684  0  0  0.652568  0  4.146174  0  0  0.692381  0  4.134597  0  0  0.262346  0.624985  0  4.153319  0
C  C32  1  0.87763908  0.89787145  0.12524775  1  0  0.105354  0  3.628574  0  0  0.076411  0  3.893968  0  0  0.08071  0  3.905484  0  0  0.079129  0.073472  0  3.886317  0
C  C33  1  0.12236599  0.39787141  0.37474549  1  0  0.105298  0  3.628813  0  0  0.076349  0  3.894211  0  0  0.080642  0  3.905737  0  0  0.079084  0.073412  0  3.886556  0
C  C34  1  0.12235924  0.10212465  0.87475287  1  0  0.105437  0  3.628678  0  0  0.076484  0  3.89405  0  0  0.080779  0  3.90557  0  0  0.079173  0.073547  0  3.8864  0
C  C35  1  0.87763566  0.60212676  0.62525213  1  0  0.10534  0  3.628773  0  0  0.07641  0  3.894159  0  0  0.080702  0  3.905685  0  0  0.079132  0.073475  0  3.886504  0
C  C36  1  0.03260383  0.43832451  0.04130460  1  0  0.559902  0  3.909681  0  0  0.525186  0  4.211819  0  0  0.558777  0  4.201402  0  0  0.237906  0.502186  0  4.217263  0
C  C37  1  0.96739945  0.93832536  0.45869181  1  0  0.560033  0  3.909373  0  0  0.525141  0  4.21178  0  0  0.558754  0  4.201337  0  0  0.237833  0.502144  0  4.217229  0
C  C38  1  0.96739780  0.56168199  0.95870387  1  0  0.559922  0  3.909756  0  0  0.525069  0  4.212038  0  0  0.558678  0  4.201607  0  0  0.237867  0.502066  0  4.217482  0
C  C39  1  0.03260774  0.06168634  0.54130143  1  0  0.560052  0  3.909402  0  0  0.525304  0  4.211618  0  0  0.558891  0  4.201201  0  0  0.237917  0.502293  0  4.217087  0
N  N40  1  0.76153846  0.07065933  0.98202577  1  0  -0.346135  0  3.251269  0  0  -0.32241  0  3.53341  0  0  -0.339304  0  3.559569  0  0  -0.331762  -0.310288  0  3.515173  0
N  N41  1  0.23845611  0.57065967  0.51798015  1  0  -0.345953  0  3.251266  0  0  -0.322184  0  3.533453  0  0  -0.339073  0  3.559613  0  0  -0.331674  -0.310078  0  3.515222  0
N  N42  1  0.23845875  0.92933780  0.01797735  1  0  -0.346039  0  3.251292  0  0  -0.32231  0  3.533452  0  0  -0.339201  0  3.55961  0  0  -0.33172  -0.310194  0  3.515219  0
N  N43  1  0.76154443  0.42933851  0.48201997  1  0  -0.345933  0  3.251309  0  0  -0.322149  0  3.533512  0  0  -0.339023  0  3.559672  0  0  -0.331665  -0.310031  0  3.515277  0
N  N44  1  0.78053423  0.79898424  0.07672300  1  0  -0.21818  0  2.966145  0  0  -0.191827  0  3.234024  0  0  -0.196877  0  3.243516  0  0  -0.280372  -0.188403  0  3.227534  0
N  N45  1  0.21946979  0.29898813  0.42326757  1  0  -0.218171  0  2.965956  0  0  -0.191809  0  3.233848  0  0  -0.196859  0  3.243342  0  0  -0.280336  -0.188385  0  3.227358  0
N  N46  1  0.21946520  0.20101290  0.92327691  1  0  -0.218171  0  2.966104  0  0  -0.191834  0  3.233961  0  0  -0.196886  0  3.243454  0  0  -0.280354  -0.188411  0  3.227472  0
N  N47  1  0.78053407  0.70101005  0.57673137  1  0  -0.218088  0  2.966014  0  0  -0.19175  0  3.233901  0  0  -0.196803  0  3.243396  0  0  -0.280297  -0.188328  0  3.22741  0
O  O48  1  0.95186410  0.33110570  0.03383236  1  0  -0.587484  0  2.070825  0  0  -0.570806  0  2.328463  0  0  -0.603183  0  2.324515  0  0  -0.32496  -0.546565  0  2.329152  0
O  O49  1  0.04813138  0.83110683  0.46617280  1  0  -0.58744  0  2.07085  0  0  -0.570749  0  2.32862  0  0  -0.603129  0  2.32466  0  0  -0.324889  -0.54653  0  2.329314  0
O  O50  1  0.04813089  0.66889456  0.96617485  1  0  -0.58736  0  2.071131  0  0  -0.570636  0  2.328815  0  0  -0.603026  0  2.32488  0  0  -0.324825  -0.546409  0  2.329507  0
O  O51  1  0.95187471  0.16890175  0.53382114  1  0  -0.587541  0  2.071022  0  0  -0.570843  0  2.328678  0  0  -0.603203  0  2.324731  0  0  -0.324966  -0.546603  0  2.329369  0
O  O52  1  0.61290076  0.36767794  0.99182371  1  0  -0.657323  0  1.544348  0  0  -0.671537  0  1.821228  0  0  -0.692844  0  1.807474  0  0  -0.74393  -0.658737  0  1.831327  0
O  O53  1  0.38709699  0.86768809  0.50817572  1  0  -0.65733  0  1.54341  0  0  -0.67171  0  1.820226  0  0  -0.693016  0  1.806477  0  0  -0.743648  -0.658927  0  1.83029  0
O  O54  1  0.38710087  0.63232024  0.00818114  1  0  -0.65728  0  1.544465  0  0  -0.671585  0  1.821317  0  0  -0.692888  0  1.807558  0  0  -0.743944  -0.658803  0  1.831406  0
O  O55  1  0.61290356  0.13231217  0.49181807  1  0  -0.657462  0  1.543291  0  0  -0.671832  0  1.820109  0  0  -0.693139  0  1.806397  0  0  -0.743744  -0.659031  0  1.830193  0
O  O56  1  0.82569193  0.26284263  0.77184949  1  0  -0.694105  0  1.612092  0  0  -0.709115  0  1.910335  0  0  -0.733253  0  1.899561  0  0  -0.75193  -0.694452  0  1.918383  0
O  O57  1  0.17431248  0.76283851  0.72813610  1  0  -0.693909  0  1.613576  0  0  -0.709013  0  1.911922  0  0  -0.733115  0  1.901122  0  0  -0.752333  -0.694381  0  1.919956  0
O  O58  1  0.17430751  0.73715659  0.22814772  1  0  -0.693993  0  1.612188  0  0  -0.709066  0  1.910379  0  0  -0.733197  0  1.899606  0  0  -0.751956  -0.694415  0  1.918416  0
O  O59  1  0.82569137  0.23717319  0.27186466  1  0  -0.69383  0  1.613673  0  0  -0.708842  0  1.911938  0  0  -0.732935  0  1.901158  0  0  -0.752288  -0.6942  0  1.919987  0
O  O60  1  0.16001301  0.45595005  0.10985752  1  0  -0.584336  0  2.060204  0  0  -0.573804  0  2.317602  0  0  -0.606087  0  2.313184  0  0  -0.328717  -0.549937  0  2.318801  0
O  O61  1  0.83999601  0.95596132  0.39012547  1  0  -0.584437  0  2.06002  0  0  -0.57386  0  2.317524  0  0  -0.606135  0  2.3131  0  0  -0.328695  -0.549992  0  2.318728  0
O  O62  1  0.83997867  0.54405436  0.89014455  1  0  -0.584422  0  2.059974  0  0  -0.573843  0  2.317442  0  0  -0.606132  0  2.313018  0  0  -0.328742  -0.549967  0  2.318649  0
O  O63  1  0.16001450  0.04404830  0.60986569  1  0  -0.584418  0  2.05995  0  0  -0.573862  0  2.317364  0  0  -0.606144  0  2.312949  0  0  -0.328724  -0.550001  0  2.318571  0
O  O64  1  0.54078590  0.14696605  0.79883253  1  0  -0.610045  0  2.043243  0  0  -0.595141  0  2.302324  0  0  -0.628931  0  2.295367  0  0  -0.337432  -0.570587  0  2.305759  0
O  O65  1  0.45920617  0.64697107  0.70117273  1  0  -0.610095  0  2.043112  0  0  -0.595164  0  2.302103  0  0  -0.628952  0  2.295135  0  0  -0.3375  -0.570628  0  2.305533  0
O  O66  1  0.45921242  0.85303420  0.20117261  1  0  -0.610014  0  2.043259  0  0  -0.595129  0  2.302297  0  0  -0.628934  0  2.295369  0  0  -0.337441  -0.570586  0  2.305733  0
O  O67  1  0.54079438  0.35303023  0.29882288  1  0  -0.610068  0  2.043172  0  0  -0.595132  0  2.302147  0  0  -0.628908  0  2.295184  0  0  -0.337455  -0.570583  0  2.305584  0
O  O68  1  0.43995543  0.93390791  0.78059355  1  0  -0.632747  0  2.086258  0  0  -0.616307  0  2.358603  0  0  -0.651467  0  2.350376  0  0  -0.366229  -0.59089  0  2.363115  0
O  O69  1  0.56001865  0.43390958  0.71941934  1  0  -0.632799  0  2.086669  0  0  -0.616299  0  2.358903  0  0  -0.65145  0  2.350673  0  0  -0.366221  -0.590867  0  2.363425  0
O  O70  1  0.56004622  0.06608923  0.21940227  1  0  -0.632762  0  2.086282  0  0  -0.616349  0  2.358657  0  0  -0.651494  0  2.35044  0  0  -0.366205  -0.590916  0  2.363174  0
O  O71  1  0.43997302  0.56608860  0.28058815  1  0  -0.632783  0  2.08661  0  0  -0.616329  0  2.358856  0  0  -0.651484  0  2.350624  0  0  -0.36628  -0.590909  0  2.363377  0
