# generated using pymatgen
data_ZnH12C14N2O5
_symmetry_space_group_name_H-M   'P 1'
_cell_length_a   7.11038981
_cell_length_b   11.22919182
_cell_length_c   19.03602234
_cell_angle_alpha   90.00055491
_cell_angle_beta   89.99978611
_cell_angle_gamma   90.00165849
_symmetry_Int_Tables_number   1
_chemical_formula_structural   ZnH12C14N2O5
_chemical_formula_sum   'Zn4 H48 C56 N8 O20'
_cell_volume   1519.91085507
_cell_formula_units_Z   4
loop_
 _symmetry_equiv_pos_site_id
 _symmetry_equiv_pos_as_xyz
  1  'x, y, z'
loop_
 _atom_site_type_symbol
 _atom_site_label
 _atom_site_symmetry_multiplicity
 _atom_site_fract_x
 _atom_site_fract_y
 _atom_site_fract_z
 _atom_site_occupancy
 _atom_site_hle17_bader_spin_density
 _atom_site_hle17_ddec_charge
 _atom_site_hle17_ddec_spin_density
 _atom_site_hle17_ddec_sum_bond_order
 _atom_site_hle17_magmom
 _atom_site_hse06_10hf_bader_spin_density
 _atom_site_hse06_10hf_ddec_charge
 _atom_site_hse06_10hf_ddec_spin_density
 _atom_site_hse06_10hf_ddec_sum_bond_order
 _atom_site_hse06_10hf_magmom
 _atom_site_hse06_bader_spin_density
 _atom_site_hse06_ddec_charge
 _atom_site_hse06_ddec_spin_density
 _atom_site_hse06_ddec_sum_bond_order
 _atom_site_hse06_magmom
 _atom_site_pbe_bader_spin_density
 _atom_site_pbe_cm5_charge
 _atom_site_pbe_ddec_charge
 _atom_site_pbe_ddec_spin_density
 _atom_site_pbe_ddec_sum_bond_order
 _atom_site_pbe_magmom
Zn  Zn0  1  0.11503824  0.32554497  0.16427205  1  0  1.011434  0  1.863585  0  0  0.821308  0  2.334976  0  0  0.869748  0  2.278205  0  0  0.690221  0.787521  0  2.373995  0
Zn  Zn1  1  0.38495285  0.67444839  0.66426756  1  0  1.01129  0  1.863838  0  0  0.821188  0  2.335166  0  0  0.869633  0  2.278402  0  0  0.6902  0.787407  0  2.374214  0
Zn  Zn2  1  0.88498686  0.82555023  0.33573001  1  0  1.011252  0  1.863766  0  0  0.821246  0  2.334994  0  0  0.86969  0  2.278224  0  0  0.690138  0.787458  0  2.374033  0
Zn  Zn3  1  0.61503622  0.17445510  0.83573298  1  0  1.011371  0  1.863612  0  0  0.821344  0  2.334915  0  0  0.869779  0  2.278161  0  0  0.690265  0.787583  0  2.373914  0
H  H4  1  0.04726483  0.05459551  0.20293013  1  0  0.098104  0  0.908173  0  0  0.107997  0  0.964388  0  0  0.110548  0  0.96256  0  0  0.128557  0.105992  0  0.965932  0
H  H5  1  0.45275118  0.94539492  0.70293026  1  0  0.098053  0  0.908227  0  0  0.107938  0  0.964447  0  0  0.110489  0  0.962619  0  0  0.128556  0.105964  0  0.965962  0
H  H6  1  0.95273384  0.55459960  0.29706512  1  0  0.098065  0  0.908216  0  0  0.107956  0  0.964412  0  0  0.110508  0  0.962584  0  0  0.12859  0.105982  0  0.965928  0
H  H7  1  0.54726996  0.44540242  0.79706554  1  0  0.098026  0  0.908281  0  0  0.107922  0  0.964472  0  0  0.110473  0  0.962646  0  0  0.128565  0.105917  0  0.966015  0
H  H8  1  0.00585697  0.86534306  0.13739464  1  0  0.120788  0  0.956812  0  0  0.128273  0  1.016546  0  0  0.132212  0  1.014531  0  0  0.110814  0.125363  0  1.018212  0
H  H9  1  0.49416956  0.13464987  0.63739792  1  0  0.120773  0  0.956852  0  0  0.128316  0  1.016522  0  0  0.132256  0  1.014508  0  0  0.110817  0.125426  0  1.018182  0
H  H10  1  0.99415447  0.36534380  0.36259715  1  0  0.120803  0  0.956891  0  0  0.128348  0  1.016557  0  0  0.132288  0  1.014543  0  0  0.110859  0.125465  0  1.018205  0
H  H11  1  0.50585286  0.63465930  0.86259766  1  0  0.120758  0  0.956858  0  0  0.128291  0  1.016538  0  0  0.132231  0  1.014525  0  0  0.110806  0.125386  0  1.018197  0
H  H12  1  0.01522862  0.87212259  0.00362458  1  0  0.088988  0  0.926209  0  0  0.105829  0  0.973792  0  0  0.108244  0  0.972511  0  0  0.110036  0.104013  0  0.974833  0
H  H13  1  0.48477681  0.12787171  0.50362784  1  0  0.089004  0  0.926109  0  0  0.105784  0  0.97375  0  0  0.108198  0  0.972467  0  0  0.110039  0.103987  0  0.974781  0
H  H14  1  0.98474657  0.37211733  0.49636882  1  0  0.088831  0  0.926233  0  0  0.105704  0  0.973788  0  0  0.108119  0  0.972504  0  0  0.110021  0.103909  0  0.974819  0
H  H15  1  0.51523967  0.62788616  0.99636981  1  0  0.088917  0  0.926168  0  0  0.10574  0  0.973763  0  0  0.10816  0  0.972481  0  0  0.110008  0.103921  0  0.974803  0
H  H16  1  0.05242976  0.06807273  0.94398729  1  0  0.136634  0  0.935725  0  0  0.146811  0  0.992158  0  0  0.150442  0  0.990401  0  0  0.119166  0.144145  0  0.99364  0
H  H17  1  0.44756685  0.93192430  0.44398695  1  0  0.136672  0  0.93573  0  0  0.14686  0  0.992154  0  0  0.150491  0  0.990396  0  0  0.119208  0.144211  0  0.993624  0
H  H18  1  0.94753758  0.56806568  0.55600739  1  0  0.136542  0  0.935926  0  0  0.146693  0  0.992399  0  0  0.150324  0  0.990642  0  0  0.119124  0.144047  0  0.993865  0
H  H19  1  0.55243216  0.43193688  0.05600785  1  0  0.136615  0  0.935774  0  0  0.146754  0  0.99227  0  0  0.150381  0  0.990512  0  0  0.119212  0.144092  0  0.993741  0
H  H20  1  0.04949030  0.23915235  0.90231889  1  0  0.131026  0  0.977337  0  0  0.136315  0  1.043724  0  0  0.140603  0  1.04079  0  0  0.111701  0.133133  0  1.046075  0
H  H21  1  0.45051518  0.76084489  0.40231440  1  0  0.13102  0  0.977323  0  0  0.1363  0  1.043725  0  0  0.140592  0  1.040786  0  0  0.111684  0.133127  0  1.046063  0
H  H22  1  0.95051298  0.73913980  0.59767940  1  0  0.130886  0  0.977622  0  0  0.136182  0  1.044004  0  0  0.140468  0  1.04108  0  0  0.111635  0.133019  0  1.046344  0
H  H23  1  0.54950978  0.26085809  0.09768098  1  0  0.130996  0  0.977502  0  0  0.136284  0  1.043852  0  0  0.140572  0  1.040922  0  0  0.111665  0.133101  0  1.046199  0
H  H24  1  0.02759351  0.44759871  0.86278446  1  0  0.104838  0  0.994894  0  0  0.113356  0  1.056352  0  0  0.116475  0  1.054471  0  0  0.107515  0.110943  0  1.057883  0
H  H25  1  0.47239832  0.55239967  0.36277822  1  0  0.105006  0  0.994758  0  0  0.113356  0  1.056395  0  0  0.116495  0  1.054457  0  0  0.107515  0.110956  0  1.05795  0
H  H26  1  0.97243053  0.94757830  0.63722607  1  0  0.104763  0  0.99471  0  0  0.113318  0  1.05622  0  0  0.116431  0  1.054339  0  0  0.107459  0.110911  0  1.057755  0
H  H27  1  0.52757212  0.05241579  0.13721859  1  0  0.104753  0  0.99489  0  0  0.113326  0  1.056325  0  0  0.116429  0  1.054451  0  0  0.107468  0.1109  0  1.057867  0
H  H28  1  0.04113195  0.61317515  0.95265244  1  0  0.094374  0  0.947015  0  0  0.106967  0  1.002035  0  0  0.109818  0  1.001611  0  0  0.105598  0.104798  0  1.002641  0
H  H29  1  0.45884629  0.38682469  0.45264369  1  0  0.094388  0  0.947002  0  0  0.106973  0  1.002028  0  0  0.109825  0  1.001605  0  0  0.105598  0.104839  0  1.002615  0
H  H30  1  0.95891762  0.11316566  0.54736456  1  0  0.094402  0  0.946957  0  0  0.106972  0  1.002007  0  0  0.109826  0  1.001582  0  0  0.105631  0.104854  0  1.002567  0
H  H31  1  0.54105222  0.88683409  0.04735085  1  0  0.094442  0  0.946937  0  0  0.106997  0  1.002019  0  0  0.10985  0  1.001597  0  0  0.10566  0.104827  0  1.002626  0
H  H32  1  0.08685704  0.55688480  0.08028040  1  0  0.093601  0  0.916516  0  0  0.104297  0  0.971943  0  0  0.107337  0  0.968963  0  0  0.124591  0.101991  0  0.974218  0
H  H33  1  0.41313071  0.44310719  0.58027244  1  0  0.093493  0  0.916646  0  0  0.104161  0  0.972082  0  0  0.107211  0  0.969084  0  0  0.124556  0.10187  0  0.974344  0
H  H34  1  0.91319095  0.05688766  0.41973273  1  0  0.093512  0  0.916556  0  0  0.104176  0  0.972019  0  0  0.107231  0  0.969017  0  0  0.124503  0.101884  0  0.974284  0
H  H35  1  0.58679750  0.94311993  0.91972178  1  0  0.093598  0  0.916556  0  0  0.104355  0  0.971909  0  0  0.107374  0  0.968942  0  0  0.124575  0.102045  0  0.974185  0
H  H36  1  0.33889493  0.34955887  0.31377064  1  0  0.03939  0  0.903686  0  0  0.052881  0  0.961352  0  0  0.054298  0  0.960224  0  0  0.101624  0.051869  0  0.962314  0
H  H37  1  0.16109600  0.65044850  0.81375843  1  0  0.039372  0  0.903831  0  0  0.052859  0  0.961499  0  0  0.054277  0  0.960373  0  0  0.101639  0.051875  0  0.962439  0
H  H38  1  0.66113548  0.84956115  0.18623419  1  0  0.039273  0  0.903723  0  0  0.052738  0  0.961413  0  0  0.054155  0  0.960291  0  0  0.10166  0.05176  0  0.962355  0
H  H39  1  0.83888916  0.15044620  0.68624198  1  0  0.039352  0  0.90375  0  0  0.052869  0  0.961489  0  0  0.054291  0  0.960356  0  0  0.101629  0.051857  0  0.962454  0
H  H40  1  0.64295439  0.23211414  0.30608204  1  0  0.127128  0  0.931458  0  0  0.137693  0  0.993384  0  0  0.142274  0  0.989295  0  0  0.103183  0.134422  0  0.996377  0
H  H41  1  0.85703525  0.76789783  0.80607077  1  0  0.127025  0  0.931545  0  0  0.137656  0  0.993409  0  0  0.142205  0  0.98935  0  0  0.103187  0.134407  0  0.996375  0
H  H42  1  0.35706785  0.73211542  0.19391896  1  0  0.127064  0  0.931548  0  0  0.137678  0  0.993427  0  0  0.142234  0  0.989353  0  0  0.103185  0.134422  0  0.996405  0
H  H43  1  0.14295949  0.26788911  0.69392873  1  0  0.127079  0  0.93163  0  0  0.137724  0  0.993457  0  0  0.142288  0  0.989384  0  0  0.103214  0.13445  0  0.996445  0
H  H44  1  0.66751195  0.38407562  0.32840698  1  0  0.099035  0  0.971315  0  0  0.109761  0  1.04284  0  0  0.111609  0  1.04309  0  0  0.096371  0.108542  0  1.042687  0
H  H45  1  0.83248168  0.61593850  0.82840275  1  0  0.098913  0  0.971303  0  0  0.109669  0  1.042816  0  0  0.111523  0  1.043053  0  0  0.09632  0.108454  0  1.042662  0
H  H46  1  0.33252286  0.88407609  0.17159279  1  0  0.09883  0  0.971449  0  0  0.109604  0  1.042941  0  0  0.111454  0  1.043179  0  0  0.096322  0.108427  0  1.042749  0
H  H47  1  0.16750613  0.11593075  0.67159693  1  0  0.098956  0  0.971288  0  0  0.109688  0  1.042819  0  0  0.111543  0  1.043057  0  0  0.096305  0.108438  0  1.042691  0
H  H48  1  0.40363191  0.17762568  0.23276631  1  0  0.416022  0  0.88264  0  0  0.387933  0  0.949046  0  0  0.39905  0  0.932905  0  0  0.307999  0.38011  0  0.960387  0
H  H49  1  0.09636972  0.82237681  0.73275885  1  0  0.415972  0  0.882735  0  0  0.387961  0  0.949031  0  0  0.399089  0  0.93287  0  0  0.308011  0.380142  0  0.960367  0
H  H50  1  0.59638503  0.67763077  0.26723911  1  0  0.416118  0  0.882465  0  0  0.387996  0  0.948957  0  0  0.399119  0  0.932805  0  0  0.308015  0.380174  0  0.960297  0
H  H51  1  0.90362751  0.32237701  0.76724202  1  0  0.415962  0  0.882787  0  0  0.387929  0  0.949094  0  0  0.399059  0  0.932931  0  0  0.307984  0.380104  0  0.960439  0
C  C52  1  0.04621594  0.05379177  0.14559514  1  0  0.160301  0  3.658811  0  0  0.127159  0  3.914009  0  0  0.134243  0  3.931556  0  0  0.063143  0.122465  0  3.902333  0
C  C53  1  0.45379785  0.94620040  0.64559633  1  0  0.160371  0  3.65899  0  0  0.127263  0  3.914192  0  0  0.134348  0  3.931736  0  0  0.063146  0.122594  0  3.902472  0
C  C54  1  0.95378550  0.55379236  0.35440010  1  0  0.160413  0  3.658776  0  0  0.127312  0  3.914012  0  0  0.134394  0  3.931559  0  0  0.063169  0.122638  0  3.902292  0
C  C55  1  0.54621347  0.44620882  0.85440053  1  0  0.160453  0  3.658776  0  0  0.127361  0  3.914018  0  0  0.13444  0  3.931561  0  0  0.063172  0.122668  0  3.902343  0
C  C56  1  0.02357112  0.94800877  0.10806468  1  0  -0.130022  0  3.729124  0  0  -0.143487  0  3.985131  0  0  -0.150963  0  4.007172  0  0  -0.082413  -0.138729  0  3.970497  0
C  C57  1  0.47644447  0.05198101  0.60806909  1  0  -0.130075  0  3.729182  0  0  -0.14363  0  3.985179  0  0  -0.151109  0  4.007219  0  0  -0.082367  -0.138832  0  3.970521  0
C  C58  1  0.97642300  0.44801234  0.39192653  1  0  -0.130041  0  3.729123  0  0  -0.143616  0  3.985189  0  0  -0.151096  0  4.007234  0  0  -0.082374  -0.138831  0  3.970541  0
C  C59  1  0.52357699  0.55198946  0.89192759  1  0  -0.13008  0  3.729036  0  0  -0.143622  0  3.985055  0  0  -0.151101  0  4.007102  0  0  -0.082403  -0.138873  0  3.970415  0
C  C60  1  0.02878793  0.95311188  0.03488554  1  0  -0.011249  0  3.752851  0  0  -0.028829  0  4.003775  0  0  -0.026309  0  4.024231  0  0  -0.066952  -0.030249  0  3.989788  0
C  C61  1  0.47121998  0.04688115  0.53488888  1  0  -0.011236  0  3.752615  0  0  -0.028719  0  4.003531  0  0  -0.026193  0  4.02398  0  0  -0.066846  -0.030101  0  3.989551  0
C  C62  1  0.97119096  0.45311120  0.46510780  1  0  -0.011052  0  3.752504  0  0  -0.028605  0  4.003448  0  0  -0.026083  0  4.023904  0  0  -0.066784  -0.029994  0  3.989479  0
C  C63  1  0.52879702  0.54688911  0.96510883  1  0  -0.011184  0  3.752525  0  0  -0.028698  0  4.003449  0  0  -0.026185  0  4.02391  0  0  -0.066888  -0.030104  0  3.989459  0
C  C64  1  0.04871324  0.06263364  0.00115060  1  0  -0.127423  0  3.656772  0  0  -0.147894  0  3.90482  0  0  -0.15431  0  3.926114  0  0  -0.071021  -0.143754  0  3.890611  0
C  C65  1  0.45128940  0.93735796  0.50115121  1  0  -0.127492  0  3.65681  0  0  -0.147987  0  3.904854  0  0  -0.154401  0  3.926145  0  0  -0.071129  -0.143849  0  3.890657  0
C  C66  1  0.95125907  0.56263209  0.49884627  1  0  -0.127362  0  3.656748  0  0  -0.147853  0  3.904869  0  0  -0.154267  0  3.926163  0  0  -0.071093  -0.143716  0  3.89068  0
C  C67  1  0.54871730  0.43737145  0.99884664  1  0  -0.127244  0  3.6566  0  0  -0.147752  0  3.904718  0  0  -0.154162  0  3.92601  0  0  -0.071067  -0.14361  0  3.890504  0
C  C68  1  0.06345717  0.16529956  0.04258601  1  0  0.174417  0  3.756131  0  0  0.170617  0  3.99726  0  0  0.176406  0  4.019237  0  0  0.122392  0.166795  0  3.982383  0
C  C69  1  0.43654362  0.83469539  0.54258658  1  0  0.174334  0  3.756247  0  0  0.170508  0  3.997393  0  0  0.176298  0  4.019373  0  0  0.12234  0.166696  0  3.982533  0
C  C70  1  0.93653107  0.66529884  0.45741040  1  0  0.174384  0  3.756217  0  0  0.170608  0  3.997333  0  0  0.176396  0  4.019308  0  0  0.122444  0.166794  0  3.982475  0
C  C71  1  0.56345558  0.33470491  0.95741069  1  0  0.174121  0  3.756224  0  0  0.170425  0  3.997297  0  0  0.17621  0  4.019266  0  0  0.122385  0.166597  0  3.982422  0
C  C72  1  0.06826716  0.28726183  0.01289791  1  0  0.173054  0  3.755116  0  0  0.166164  0  3.997396  0  0  0.172589  0  4.018431  0  0  0.120431  0.1619  0  3.983129  0
C  C73  1  0.43172832  0.71273619  0.51289620  1  0  0.173139  0  3.755245  0  0  0.166314  0  3.997446  0  0  0.172725  0  4.018509  0  0  0.120567  0.162058  0  3.983185  0
C  C74  1  0.93173650  0.78725617  0.48710288  1  0  0.173182  0  3.755233  0  0  0.166313  0  3.997492  0  0  0.172744  0  4.018518  0  0  0.120484  0.162047  0  3.983242  0
C  C75  1  0.56825828  0.21274450  0.98710193  1  0  0.173217  0  3.755296  0  0  0.166304  0  3.99754  0  0  0.172733  0  4.018571  0  0  0.120478  0.162039  0  3.983272  0
C  C76  1  0.05209215  0.31073932  0.94104042  1  0  -0.124004  0  3.640864  0  0  -0.145928  0  3.894182  0  0  -0.152432  0  3.913487  0  0  -0.075298  -0.141749  0  3.881422  0
C  C77  1  0.44790730  0.68925677  0.44103710  1  0  -0.124073  0  3.640927  0  0  -0.14601  0  3.894158  0  0  -0.15251  0  3.913465  0  0  -0.075328  -0.141835  0  3.881412  0
C  C78  1  0.94791861  0.81072787  0.55896091  1  0  -0.124033  0  3.641004  0  0  -0.145922  0  3.894358  0  0  -0.152423  0  3.913651  0  0  -0.075209  -0.141764  0  3.881625  0
C  C79  1  0.55208907  0.18927206  0.05895892  1  0  -0.124149  0  3.640951  0  0  -0.145999  0  3.894228  0  0  -0.1525  0  3.913523  0  0  -0.07526  -0.141829  0  3.881479  0
C  C80  1  0.04220240  0.42878583  0.91881290  1  0  0.00369  0  3.68714  0  0  -0.017941  0  3.941306  0  0  -0.014722  0  3.960751  0  0  -0.068151  -0.019807  0  3.928221  0
C  C81  1  0.45779307  0.57120811  0.41880890  1  0  0.003487  0  3.687199  0  0  -0.017989  0  3.941281  0  0  -0.014769  0  3.960739  0  0  -0.068109  -0.01984  0  3.928195  0
C  C82  1  0.95782079  0.92877048  0.58119278  1  0  0.004047  0  3.68644  0  0  -0.017686  0  3.940679  0  0  -0.014465  0  3.960136  0  0  -0.06803  -0.019531  0  3.927601  0
C  C83  1  0.54217401  0.07122447  0.08118750  1  0  0.00393  0  3.686677  0  0  -0.017757  0  3.940827  0  0  -0.01452  0  3.960288  0  0  -0.068062  -0.019603  0  3.927733  0
C  C84  1  0.05014753  0.52001371  0.96843277  1  0  -0.134729  0  3.769603  0  0  -0.147869  0  4.02681  0  0  -0.155944  0  4.050696  0  0  -0.086395  -0.142647  0  4.010822  0
C  C85  1  0.44984320  0.47998104  0.46842457  1  0  -0.134629  0  3.769708  0  0  -0.14778  0  4.0268  0  0  -0.155857  0  4.050697  0  0  -0.086382  -0.142554  0  4.010825  0
C  C86  1  0.94989075  0.02000736  0.53157686  1  0  -0.135009  0  3.769539  0  0  -0.148068  0  4.026786  0  0  -0.156147  0  4.050682  0  0  -0.086495  -0.142877  0  4.010799  0
C  C87  1  0.55009191  0.97999213  0.03156682  1  0  -0.134811  0  3.76946  0  0  -0.147947  0  4.026733  0  0  -0.156022  0  4.050614  0  0  -0.08651  -0.142721  0  4.010742  0
C  C88  1  0.07298026  0.49024642  0.03892861  1  0  0.140349  0  3.707997  0  0  0.10719  0  3.959642  0  0  0.114343  0  3.977462  0  0  0.054816  0.102569  0  3.947581  0
C  C89  1  0.42700932  0.50974757  0.53892154  1  0  0.140407  0  3.708152  0  0  0.107306  0  3.95974  0  0  0.114455  0  3.977549  0  0  0.054916  0.102693  0  3.947675  0
C  C90  1  0.92705235  0.99024470  0.46108228  1  0  0.14049  0  3.708205  0  0  0.107351  0  3.959828  0  0  0.114495  0  3.977647  0  0  0.055022  0.102729  0  3.947773  0
C  C91  1  0.57293426  0.00975733  0.96107332  1  0  0.140238  0  3.708045  0  0  0.107051  0  3.959706  0  0  0.11423  0  3.977514  0  0  0.054941  0.102426  0  3.947636  0
C  C92  1  0.39772752  0.46963683  0.23049409  1  0  0.64691  0  3.87409  0  0  0.594293  0  4.181437  0  0  0.627687  0  4.173598  0  0  0.207004  0.571532  0  4.186092  0
C  C93  1  0.10224460  0.53036473  0.73048495  1  0  0.646834  0  3.874293  0  0  0.594208  0  4.18165  0  0  0.627608  0  4.173812  0  0  0.2069  0.571449  0  4.186292  0
C  C94  1  0.60230416  0.96964295  0.26951248  1  0  0.647042  0  3.874484  0  0  0.594412  0  4.181868  0  0  0.62781  0  4.174018  0  0  0.206962  0.571644  0  4.186525  0
C  C95  1  0.89772102  0.03036308  0.76951739  1  0  0.646884  0  3.874286  0  0  0.594436  0  4.181527  0  0  0.627833  0  4.17368  0  0  0.207012  0.571667  0  4.186192  0
C  C96  1  0.42525749  0.34708714  0.26520108  1  0  0.145803  0  3.655997  0  0  0.120465  0  3.90656  0  0  0.123514  0  3.914103  0  0  -0.006024  0.118234  0  3.901393  0
C  C97  1  0.07472552  0.65291677  0.76518900  1  0  0.145803  0  3.655833  0  0  0.120394  0  3.906482  0  0  0.123447  0  3.914021  0  0  -0.006016  0.118158  0  3.901292  0
C  C98  1  0.57476719  0.84709575  0.23480741  1  0  0.145996  0  3.655954  0  0  0.120656  0  3.906526  0  0  0.123697  0  3.914064  0  0  -0.006063  0.118408  0  3.901357  0
C  C99  1  0.92526116  0.15291328  0.73481300  1  0  0.145923  0  3.655751  0  0  0.1203  0  3.906727  0  0  0.123354  0  3.914271  0  0  -0.006075  0.118067  0  3.901554  0
C  C100  1  0.62798693  0.32333412  0.28568992  1  0  -0.334677  0  3.711683  0  0  -0.377641  0  3.959725  0  0  -0.38401  0  3.965489  0  0  -0.175534  -0.373187  0  3.955737  0
C  C101  1  0.87199729  0.67667396  0.78568231  1  0  -0.334449  0  3.711616  0  0  -0.377438  0  3.95944  0  0  -0.383792  0  3.965246  0  0  -0.175451  -0.37297  0  3.955405  0
C  C102  1  0.37204088  0.82333690  0.21431055  1  0  -0.334499  0  3.711745  0  0  -0.377498  0  3.959682  0  0  -0.383841  0  3.965458  0  0  -0.17552  -0.373051  0  3.955652  0
C  C103  1  0.12799329  0.17666797  0.71431824  1  0  -0.334667  0  3.711853  0  0  -0.377576  0  3.959785  0  0  -0.383946  0  3.965583  0  0  -0.175557  -0.373093  0  3.95579  0
C  C104  1  0.76939195  0.33946165  0.22644378  1  0  0.705805  0  3.843164  0  0  0.661564  0  4.139884  0  0  0.694841  0  4.133099  0  0  0.200253  0.638887  0  4.143687  0
C  C105  1  0.73058445  0.66053745  0.72643731  1  0  0.70563  0  3.843446  0  0  0.661471  0  4.140031  0  0  0.694749  0  4.13324  0  0  0.20013  0.638808  0  4.143831  0
C  C106  1  0.23062253  0.83946280  0.27355731  1  0  0.705752  0  3.842829  0  0  0.661549  0  4.1395  0  0  0.694823  0  4.132709  0  0  0.200249  0.638876  0  4.143305  0
C  C107  1  0.26940680  0.16053858  0.77356157  1  0  0.705712  0  3.843309  0  0  0.661452  0  4.140053  0  0  0.69473  0  4.133261  0  0  0.20015  0.63878  0  4.143851  0
N  N108  1  0.06714282  0.15898271  0.11349891  1  0  -0.351971  0  3.268934  0  0  -0.279721  0  3.53595  0  0  -0.297937  0  3.551918  0  0  -0.315881  -0.267521  0  3.525262  0
N  N109  1  0.43286568  0.84101250  0.61349795  1  0  -0.351801  0  3.268988  0  0  -0.279581  0  3.536033  0  0  -0.297794  0  3.551995  0  0  -0.315741  -0.267363  0  3.525333  0
N  N110  1  0.93285921  0.65898077  0.38649904  1  0  -0.352015  0  3.269072  0  0  -0.279816  0  3.536119  0  0  -0.298033  0  3.552087  0  0  -0.315898  -0.267585  0  3.525409  0
N  N111  1  0.56713521  0.34102272  0.88649935  1  0  -0.351828  0  3.268974  0  0  -0.27971  0  3.536071  0  0  -0.297912  0  3.552027  0  0  -0.315938  -0.267528  0  3.525393  0
N  N112  1  0.08146233  0.37666770  0.06019480  1  0  -0.350634  0  3.305432  0  0  -0.273798  0  3.575543  0  0  -0.291978  0  3.589432  0  0  -0.321111  -0.26164  0  3.566206  0
N  N113  1  0.41852704  0.62332752  0.56018997  1  0  -0.350673  0  3.305583  0  0  -0.273913  0  3.575713  0  0  -0.292093  0  3.589617  0  0  -0.321189  -0.261728  0  3.566366  0
N  N114  1  0.91855526  0.87666904  0.43981281  1  0  -0.350656  0  3.305481  0  0  -0.273891  0  3.575677  0  0  -0.292076  0  3.589576  0  0  -0.321282  -0.261719  0  3.566336  0
N  N115  1  0.58144142  0.12333175  0.93980975  1  0  -0.350614  0  3.305475  0  0  -0.273841  0  3.575695  0  0  -0.292023  0  3.589578  0  0  -0.321309  -0.261671  0  3.566348  0
O  O116  1  0.27341410  0.47830199  0.18234969  1  0  -0.634543  0  2.011964  0  0  -0.573758  0  2.273789  0  0  -0.600914  0  2.258795  0  0  -0.330953  -0.554604  0  2.283392  0
O  O117  1  0.22655570  0.52169522  0.68233980  1  0  -0.634513  0  2.01218  0  0  -0.573678  0  2.273946  0  0  -0.600827  0  2.258939  0  0  -0.330877  -0.554544  0  2.283555  0
O  O118  1  0.72661937  0.97830851  0.31765588  1  0  -0.63467  0  2.01242  0  0  -0.573862  0  2.274224  0  0  -0.601024  0  2.259231  0  0  -0.330935  -0.554716  0  2.283833  0
O  O119  1  0.77340249  0.02169742  0.81765934  1  0  -0.634658  0  2.012269  0  0  -0.573906  0  2.274026  0  0  -0.601064  0  2.259034  0  0  -0.330997  -0.55475  0  2.283635  0
O  O120  1  0.49302929  0.55412039  0.25535398  1  0  -0.627183  0  2.030446  0  0  -0.573682  0  2.256655  0  0  -0.599082  0  2.246753  0  0  -0.321673  -0.555882  0  2.262934  0
O  O121  1  0.00693553  0.44588692  0.75534763  1  0  -0.627114  0  2.030414  0  0  -0.573676  0  2.256603  0  0  -0.599074  0  2.2467  0  0  -0.321691  -0.555849  0  2.262861  0
O  O122  1  0.50701436  0.05412719  0.24465387  1  0  -0.627206  0  2.030353  0  0  -0.573809  0  2.256642  0  0  -0.599199  0  2.246739  0  0  -0.321711  -0.555973  0  2.262904  0
O  O123  1  0.99302233  0.94588289  0.74465815  1  0  -0.627081  0  2.030362  0  0  -0.573763  0  2.256576  0  0  -0.599155  0  2.246664  0  0  -0.321724  -0.555958  0  2.262855  0
O  O124  1  0.35154383  0.25764421  0.21944131  1  0  -0.591721  0  2.184749  0  0  -0.521708  0  2.431659  0  0  -0.540406  0  2.412321  0  0  -0.394314  -0.50838  0  2.44482  0
O  O125  1  0.14843684  0.74235539  0.71942387  1  0  -0.591613  0  2.18449  0  0  -0.521632  0  2.431312  0  0  -0.540348  0  2.411979  0  0  -0.394299  -0.508332  0  2.444489  0
O  O126  1  0.64846692  0.75765225  0.28056614  1  0  -0.59181  0  2.184673  0  0  -0.52176  0  2.43155  0  0  -0.540463  0  2.412215  0  0  -0.394248  -0.508442  0  2.444717  0
O  O127  1  0.85155815  0.24235396  0.78057549  1  0  -0.591668  0  2.184665  0  0  -0.521684  0  2.431618  0  0  -0.540402  0  2.41229  0  0  -0.394214  -0.508342  0  2.444772  0
O  O128  1  0.72080630  0.36939430  0.16592495  1  0  -0.622129  0  1.909917  0  0  -0.577045  0  2.132651  0  0  -0.600021  0  2.123692  0  0  -0.324039  -0.560647  0  2.138168  0
O  O129  1  0.77917073  0.63061450  0.66591825  1  0  -0.621979  0  1.909788  0  0  -0.576966  0  2.132536  0  0  -0.599946  0  2.123587  0  0  -0.323917  -0.56062  0  2.138089  0
O  O130  1  0.27920673  0.86938040  0.33407841  1  0  -0.622079  0  1.90976  0  0  -0.577019  0  2.132499  0  0  -0.599991  0  2.123539  0  0  -0.324  -0.560657  0  2.138039  0
O  O131  1  0.22082337  0.13062196  0.83408152  1  0  -0.622054  0  1.909772  0  0  -0.576982  0  2.132545  0  0  -0.599957  0  2.123588  0  0  -0.323923  -0.560599  0  2.138074  0
O  O132  1  0.94241707  0.31926158  0.24525216  1  0  -0.671412  0  2.020451  0  0  -0.597512  0  2.286112  0  0  -0.627213  0  2.271039  0  0  -0.345798  -0.576558  0  2.295568  0
O  O133  1  0.55756477  0.68072179  0.74524972  1  0  -0.671252  0  2.020747  0  0  -0.597405  0  2.286398  0  0  -0.627091  0  2.271302  0  0  -0.345741  -0.576411  0  2.295805  0
O  O134  1  0.05758946  0.81927617  0.25474304  1  0  -0.671238  0  2.020211  0  0  -0.597444  0  2.285953  0  0  -0.627145  0  2.270882  0  0  -0.345715  -0.576467  0  2.295396  0
O  O135  1  0.44243163  0.18072223  0.75474771  1  0  -0.671319  0  2.020619  0  0  -0.597419  0  2.286264  0  0  -0.627112  0  2.271188  0  0  -0.345783  -0.576469  0  2.29572  0
