# generated using pymatgen
data_CuH12C13S2(NO2)2
_symmetry_space_group_name_H-M   'P 1'
_cell_length_a   4.15844116
_cell_length_b   8.52468324
_cell_length_c   21.20822146
_cell_angle_alpha   93.51882760
_cell_angle_beta   90.08198166
_cell_angle_gamma   104.02544878
_symmetry_Int_Tables_number   1
_chemical_formula_structural   CuH12C13S2(NO2)2
_chemical_formula_sum   'Cu2 H24 C26 S4 N4 O8'
_cell_volume   727.92713211
_cell_formula_units_Z   2
loop_
 _symmetry_equiv_pos_site_id
 _symmetry_equiv_pos_as_xyz
  1  'x, y, z'
loop_
 _atom_site_type_symbol
 _atom_site_label
 _atom_site_symmetry_multiplicity
 _atom_site_fract_x
 _atom_site_fract_y
 _atom_site_fract_z
 _atom_site_occupancy
 _atom_site_hle17_ddec_charge
 _atom_site_hle17_ddec_spin_density
 _atom_site_hle17_ddec_sum_bond_order
 _atom_site_hle17_magmom
 _atom_site_hse06_10hf_ddec_charge
 _atom_site_hse06_10hf_ddec_spin_density
 _atom_site_hse06_10hf_ddec_sum_bond_order
 _atom_site_hse06_10hf_magmom
 _atom_site_hse06_ddec_charge
 _atom_site_hse06_ddec_spin_density
 _atom_site_hse06_ddec_sum_bond_order
 _atom_site_hse06_magmom
 _atom_site_pbe_cm5_charge
 _atom_site_pbe_ddec_charge
 _atom_site_pbe_ddec_spin_density
 _atom_site_pbe_ddec_sum_bond_order
 _atom_site_pbe_magmom
Cu  Cu0  1  0.49999940  0.49999926  0.49999923  1  0.863826  -0.685346  1.716412  -0.497  0.841088  -0.766077  2.095239  -0.606  0.93345  -0.831654  2.027456  -0.69  0.742983  0.784708  -0.721635  2.142601  -0.554
Cu  Cu1  1  0.99999586  0.50000076  0.00000080  1  0.865036  -0.685511  1.715752  -0.497  0.841418  -0.766053  2.095338  -0.606  0.933676  -0.831517  2.027353  -0.69  0.744154  0.785083  -0.721603  2.142729  -0.554
H  H2  1  0.39889059  0.81552663  0.46714094  1  0.089886  -0.001058  0.9351  -0.002  0.099504  -0.000971  0.996371  -0.001  0.101634  -0.000678  0.993658  -0.001  0.122692  0.097569  -0.001204  0.998695  -0.001
H  H3  1  0.58940640  0.18401902  0.03258151  1  0.089955  -0.001062  0.935075  -0.002  0.099187  -0.000975  0.996839  -0.001  0.101321  -0.00068  0.994075  -0.001  0.122785  0.097301  -0.00121  0.99915  -0.001
H  H4  1  0.60110706  0.18447920  0.53286052  1  0.089939  -0.001056  0.935077  -0.002  0.099531  -0.000971  0.996362  -0.001  0.101659  -0.000677  0.993653  -0.001  0.122669  0.097615  -0.001204  0.998667  -0.001
H  H5  1  0.41059604  0.81598196  0.96741938  1  0.089931  -0.001061  0.935087  -0.002  0.099166  -0.000975  0.996852  -0.001  0.1013  -0.00068  0.994087  -0.001  0.122792  0.097281  -0.00121  0.999163  -0.001
H  H6  1  0.33814554  0.95073559  0.37051462  1  0.124732  -0.000388  1.002972  0.0  0.132189  -0.000405  1.066224  0.0  0.136828  -0.000301  1.063645  0.0  0.102828  0.12868  -0.000491  1.068433  -0.001
H  H7  1  0.39010617  0.04954812  0.12906133  1  0.125055  -0.000392  1.003858  0.0  0.132281  -0.000407  1.067474  0.0  0.136905  -0.000302  1.064886  0.0  0.103251  0.128851  -0.000494  1.069566  -0.001
H  H8  1  0.66184909  0.04926902  0.62948588  1  0.124793  -0.00039  1.002879  0.0  0.132237  -0.000405  1.066147  0.0  0.136875  -0.000301  1.063569  0.0  0.102851  0.128731  -0.000491  1.068352  -0.001
H  H9  1  0.60989206  0.95045405  0.87093864  1  0.125045  -0.000393  1.003848  0.0  0.132257  -0.000407  1.06749  0.0  0.136879  -0.000302  1.064908  0.0  0.103252  0.128827  -0.000494  1.069582  -0.001
H  H10  1  0.62591738  0.55189697  0.26574093  1  0.100307  -0.000511  0.983848  0.0  0.107688  -0.00047  1.052888  0.0  0.110701  -0.000354  1.052314  0.0  0.097643  0.105506  -0.000566  1.053511  -0.001
H  H11  1  0.06949965  0.44948124  0.23452692  1  0.100185  -0.000506  0.982719  0.0  0.108297  -0.000471  1.051058  0.0  0.11142  -0.000354  1.050296  0.0  0.097989  0.106065  -0.000568  1.051737  -0.001
H  H12  1  0.37408868  0.44811127  0.73426012  1  0.100339  -0.000507  0.983839  0.0  0.107718  -0.00047  1.052891  0.0  0.11073  -0.000354  1.052318  0.0  0.097649  0.105534  -0.000566  1.053512  -0.001
H  H13  1  0.93049978  0.55051369  0.76547477  1  0.100189  -0.000507  0.982795  0.0  0.108288  -0.000471  1.051139  0.0  0.111411  -0.000354  1.050375  0.0  0.097967  0.106056  -0.000568  1.051812  -0.001
H  H14  1  0.66443922  0.43228769  0.36916536  1  0.086612  -0.000893  0.965157  -0.001  0.089317  -0.000815  1.039569  -0.001  0.091981  -0.000545  1.036333  -0.001  0.113765  0.087072  -0.00103  1.042189  -0.001
H  H15  1  0.22710131  0.56956105  0.13125591  1  0.085624  -0.000891  0.967544  -0.001  0.088403  -0.000811  1.042109  -0.001  0.091108  -0.000542  1.038768  -0.001  0.113509  0.086157  -0.001027  1.04476  -0.001
H  H16  1  0.33556083  0.56771813  0.63083516  1  0.086633  -0.000893  0.965118  -0.001  0.089336  -0.000815  1.03952  -0.001  0.092001  -0.000545  1.036277  -0.001  0.113784  0.087088  -0.001029  1.042136  -0.001
H  H17  1  0.77290173  0.43043630  0.86874584  1  0.085548  -0.00089  0.967586  -0.001  0.088325  -0.000811  1.042142  -0.001  0.091029  -0.000542  1.038804  -0.001  0.113516  0.086079  -0.001027  1.044794  -0.001
H  H18  1  0.09902880  0.01117744  0.20837705  1  0.123699  6.8e-05  0.962479  0.0  0.133073  4.2e-05  1.031189  0.0  0.134644  4.3e-05  1.030572  0.0  0.10574  0.131861  3.7e-05  1.031796  0.0
H  H19  1  0.08725721  0.98916063  0.29094050  1  0.122736  6.8e-05  0.964954  0.0  0.132706  4.2e-05  1.03272  0.0  0.134176  4.4e-05  1.032234  0.0  0.105602  0.131576  3.7e-05  1.033228  0.0
H  H20  1  0.90096581  0.98882231  0.79162286  1  0.123682  6.4e-05  0.962446  0.0  0.133052  4.2e-05  1.031169  0.0  0.134623  4.3e-05  1.030551  0.0  0.105721  0.13184  3.7e-05  1.031777  0.0
H  H21  1  0.91273260  0.01083912  0.70905941  1  0.122756  6.1e-05  0.964947  0.0  0.132729  4.2e-05  1.032708  0.0  0.134199  4.3e-05  1.032222  0.0  0.105593  0.131597  3.8e-05  1.033215  0.0
H  H22  1  0.80953210  0.14955812  0.42223862  1  0.018617  -0.009036  0.966604  -0.011  0.025698  -0.005648  1.040029  -0.007  0.023506  -0.003784  1.036794  -0.005  0.101448  0.027305  -0.007208  1.042163  -0.009
H  H23  1  0.65992755  0.85156027  0.07719335  1  0.018472  -0.009033  0.965216  -0.011  0.025441  -0.005647  1.038904  -0.007  0.023268  -0.003785  1.035584  -0.005  0.101134  0.027044  -0.007205  1.041063  -0.009
H  H24  1  0.19049790  0.85043547  0.57775409  1  0.01862  -0.009038  0.966559  -0.011  0.025742  -0.005649  1.039943  -0.007  0.023559  -0.003784  1.036704  -0.005  0.101482  0.027352  -0.00721  1.042071  -0.009
H  H25  1  0.34005926  0.14843829  0.92280795  1  0.018439  -0.009033  0.965106  -0.011  0.025382  -0.005647  1.038827  -0.007  0.023209  -0.003786  1.035504  -0.005  0.101113  0.026983  -0.007206  1.040988  -0.009
C  C26  1  0.44605230  0.76132687  0.42131685  1  0.154725  0.010923  3.667284  0.007  0.127224  0.002333  3.915763  0.001  0.138431  0.004013  3.932906  0.003  0.053172  0.120058  0.001004  3.90463  0.0
C  C27  1  0.68767271  0.23880330  0.07853658  1  0.154741  0.010894  3.666503  0.007  0.127331  0.00233  3.914726  0.001  0.138576  0.00401  3.931837  0.003  0.052992  0.12007  0.000988  3.903648  0.0
C  C28  1  0.55394413  0.23867652  0.57868361  1  0.154605  0.010903  3.667239  0.007  0.12714  0.002333  3.915735  0.001  0.138345  0.004012  3.93288  0.003  0.05316  0.119956  0.001004  3.904604  0.001
C  C29  1  0.31233272  0.76119886  0.92146245  1  0.154783  0.010894  3.666596  0.007  0.127386  0.002327  3.914807  0.001  0.138629  0.004011  3.931917  0.003  0.052944  0.120123  0.000987  3.903731  0.0
C  C30  1  0.41035117  0.83566432  0.36608181  1  -0.177994  -0.009296  3.699819  -0.01  -0.193266  -0.003837  3.943233  -0.004  -0.203187  -0.003496  3.963274  -0.004  -0.095766  -0.18683  -0.004091  3.930065  -0.004
C  C31  1  0.57630883  0.16469772  0.13367751  1  -0.178251  -0.009296  3.700707  -0.01  -0.193563  -0.003853  3.944202  -0.004  -0.203482  -0.003501  3.964249  -0.004  -0.09667  -0.187177  -0.004109  3.930999  -0.005
C  C32  1  0.58964045  0.16433908  0.63391866  1  -0.178053  -0.009281  3.699748  -0.01  -0.1933  -0.003837  3.943151  -0.004  -0.203223  -0.003495  3.9632  -0.004  -0.095783  -0.186871  -0.004091  3.929986  -0.004
C  C33  1  0.42369359  0.83529841  0.86632327  1  -0.178137  -0.009298  3.70068  -0.01  -0.193465  -0.003851  3.94421  -0.004  -0.203382  -0.003502  3.964258  -0.004  -0.096608  -0.187081  -0.004108  3.93101  -0.005
C  C34  1  0.46221521  0.75790529  0.30804326  1  0.074839  0.010426  3.799724  0.007  0.088937  0.003441  4.055536  0.002  0.097261  0.004178  4.075906  0.003  0.003111  0.08335  0.002805  4.041658  0.002
C  C35  1  0.70354879  0.24262121  0.19185629  1  0.074431  0.010388  3.800533  0.007  0.088705  0.003434  4.056199  0.002  0.097012  0.004164  4.076646  0.003  0.003394  0.083153  0.002794  4.042225  0.002
C  C36  1  0.53778003  0.24210054  0.69195774  1  0.074857  0.010423  3.799793  0.007  0.088941  0.003442  4.055629  0.002  0.097264  0.004177  4.076004  0.003  0.003114  0.083364  0.002805  4.041731  0.002
C  C37  1  0.29645065  0.75737856  0.80814456  1  0.074249  0.010399  3.800701  0.007  0.088553  0.003431  4.056347  0.002  0.09686  0.004167  4.076794  0.003  0.003323  0.082994  0.002795  4.042376  0.002
C  C38  1  0.56998408  0.61366048  0.30932857  1  -0.189884  -0.008523  3.757279  -0.009  -0.205452  -0.003356  4.00905  -0.004  -0.214183  -0.003198  4.028493  -0.004  -0.101812  -0.199816  -0.003447  3.996056  -0.004
C  C39  1  0.95355321  0.38732664  0.19081056  1  -0.188658  -0.008513  3.756456  -0.009  -0.204774  -0.003362  4.007574  -0.004  -0.213543  -0.003197  4.027018  -0.004  -0.101441  -0.199115  -0.003453  3.994598  -0.004
C  C40  1  0.43001897  0.38634654  0.69067198  1  -0.18996  -0.008528  3.757614  -0.009  -0.205544  -0.003357  4.009384  -0.004  -0.214275  -0.003197  4.028826  -0.004  -0.101835  -0.19991  -0.003446  3.99638  -0.004
C  C41  1  0.04644742  0.61267070  0.80919024  1  -0.1887  -0.008518  3.756565  -0.009  -0.204798  -0.003361  4.007676  -0.004  -0.213565  -0.003198  4.027116  -0.004  -0.101444  -0.199134  -0.003453  3.994693  -0.004
C  C42  1  0.59670421  0.54737709  0.36650990  1  0.135743  0.010288  3.700545  0.007  0.106429  0.002281  3.954484  0.001  0.116774  0.0039  3.972326  0.003  0.042958  0.099881  0.001032  3.942762  0.001
C  C43  1  0.04680771  0.45380159  0.13371637  1  0.135489  0.010248  3.700309  0.007  0.105681  0.00227  3.954143  0.001  0.116028  0.003882  3.97206  0.003  0.041867  0.099122  0.001026  3.942392  0.001
C  C44  1  0.40328682  0.45262511  0.63349195  1  0.135746  0.01028  3.70046  0.007  0.106475  0.00228  3.95439  0.001  0.116824  0.003897  3.972228  0.003  0.042938  0.099929  0.001031  3.94266  0.001
C  C45  1  0.95319594  0.54619698  0.86628587  1  0.13569  0.01025  3.700159  0.007  0.105886  0.002271  3.954014  0.001  0.116233  0.003886  3.971931  0.003  0.04191  0.099322  0.001027  3.942263  0.001
C  C46  1  0.24833385  0.00016911  0.24975940  1  -0.227258  -1.3e-05  3.668548  0.0  -0.258754  -3.8e-05  3.933306  0.0  -0.256195  1e-06  3.940575  0.0  -0.140491  -0.260536  -8e-05  3.928463  0.0
C  C47  1  0.75165836  0.99983064  0.75024051  1  -0.227235  2e-06  3.668426  0.0  -0.2588  -3.7e-05  3.933371  0.0  -0.256239  1e-06  3.940637  0.0  -0.140465  -0.260584  -8e-05  3.928527  0.0
C  C48  1  0.06538956  0.22340980  0.43186410  1  0.536354  0.009061  3.948657  0.009  0.477332  0.001068  4.264878  0.002  0.514465  0.001798  4.258291  0.002  0.12021  0.452445  0.000207  4.267999  0.002
C  C49  1  0.84222338  0.77754039  0.06779997  1  0.536509  0.009024  3.948673  0.009  0.477474  0.001036  4.264734  0.002  0.514607  0.001772  4.258214  0.002  0.12077  0.452582  0.000172  4.26783  0.002
C  C50  1  0.93462842  0.77657898  0.56813085  1  0.536256  0.009056  3.948725  0.009  0.477209  0.001067  4.264962  0.002  0.514329  0.001799  4.258385  0.002  0.120226  0.452325  0.000207  4.268071  0.002
C  C51  1  0.15775860  0.22245815  0.93219991  1  0.53671  0.009022  3.948405  0.009  0.477697  0.001035  4.264471  0.002  0.514834  0.001772  4.257945  0.002  0.120843  0.452807  0.000172  4.267572  0.002
S  S52  1  0.38458633  0.81656818  0.23321315  1  0.078488  0.002429  2.457537  0.001  0.082916  0.00131  2.803091  0.001  0.076396  0.001564  2.805219  0.001  0.055945  0.087528  0.001021  2.801683  0.001
S  S53  1  0.56705653  0.18356876  0.26653844  1  0.078645  0.002423  2.460621  0.001  0.082862  0.001313  2.806266  0.001  0.076343  0.001564  2.80845  0.001  0.055839  0.087462  0.001024  2.804797  0.001
S  S54  1  0.61540589  0.18343158  0.76678771  1  0.078501  0.002427  2.457521  0.001  0.082969  0.001312  2.803072  0.001  0.076451  0.001563  2.8052  0.001  0.055954  0.087575  0.001022  2.801657  0.001
S  S55  1  0.43293809  0.81643099  0.73346147  1  0.078695  0.002421  2.460618  0.001  0.082927  0.001313  2.806271  0.001  0.076409  0.001564  2.808455  0.001  0.055859  0.087527  0.001025  2.804798  0.001
N  N56  1  0.52848447  0.61817277  0.42181635  1  -0.297755  -0.072717  3.331799  -0.092  -0.244907  -0.050965  3.620008  -0.069  -0.275341  -0.042501  3.639806  -0.062  -0.355972  -0.226799  -0.055409  3.60838  -0.071
N  N57  1  0.91094906  0.38239039  0.07821919  1  -0.29792  -0.072678  3.330681  -0.092  -0.244153  -0.050912  3.617918  -0.069  -0.274602  -0.042469  3.637675  -0.062  -0.355636  -0.226039  -0.055349  3.606351  -0.071
N  N58  1  0.47151077  0.38183305  0.57818464  1  -0.297696  -0.072711  3.33152  -0.092  -0.244914  -0.050963  3.619765  -0.069  -0.27535  -0.042501  3.639559  -0.062  -0.355931  -0.226805  -0.055409  3.608143  -0.071
N  N59  1  0.08905638  0.61761180  0.92178172  1  -0.298022  -0.072679  3.330732  -0.092  -0.244243  -0.050912  3.61796  -0.069  -0.274692  -0.04247  3.637717  -0.062  -0.355632  -0.22613  -0.055351  3.606396  -0.071
O  O60  1  0.07362653  0.35025035  0.46892137  1  -0.583692  -0.096467  2.12308  -0.132  -0.567247  -0.060455  2.434931  -0.092  -0.612641  -0.04587  2.425837  -0.076  -0.334576  -0.53739  -0.06961  2.441241  -0.1
O  O61  1  0.72423912  0.65054129  0.03082313  1  -0.582961  -0.096476  2.122331  -0.132  -0.566455  -0.060516  2.434306  -0.092  -0.611859  -0.045923  2.425293  -0.076  -0.334062  -0.536583  -0.069694  2.440572  -0.1
O  O62  1  0.92638967  0.64973966  0.53107550  1  -0.583623  -0.096479  2.123225  -0.132  -0.567193  -0.06046  2.435077  -0.092  -0.612613  -0.045873  2.42605  -0.076  -0.334601  -0.537339  -0.069619  2.441381  -0.1
O  O63  1  0.27574107  0.34945847  0.96917678  1  -0.583041  -0.096481  2.122304  -0.132  -0.566524  -0.060516  2.43421  -0.092  -0.611927  -0.045923  2.425194  -0.076  -0.334053  -0.536657  -0.069696  2.440483  -0.1
O  O64  1  0.30651068  0.18110231  0.40722483  1  -0.592581  -0.001544  2.02676  -0.003  -0.550481  -0.000468  2.274509  -0.002  -0.575747  0.001064  2.265512  0.0  -0.332672  -0.532428  -0.002158  2.279698  -0.003
O  O65  1  0.12541658  0.81989010  0.09261473  1  -0.593314  -0.001503  2.028088  -0.003  -0.550858  -0.00045  2.275618  -0.002  -0.576143  0.001069  2.266628  0.0  -0.333118  -0.532799  -0.002122  2.280798  -0.003
O  O66  1  0.69352294  0.81888406  0.59277196  1  -0.592566  -0.001541  2.02673  -0.003  -0.550471  -0.000468  2.274509  -0.002  -0.57573  0.001064  2.265514  0.0  -0.332708  -0.532419  -0.002158  2.279696  -0.003
O  O67  1  0.87456901  0.18010602  0.90738510  1  -0.593414  -0.001504  2.028095  -0.003  -0.550962  -0.00045  2.275625  -0.002  -0.576247  0.00107  2.266633  0.0  -0.333168  -0.532889  -0.002122  2.280773  -0.003
