# generated using pymatgen
data_CdH6C6(N2Cl)2
_symmetry_space_group_name_H-M   'P 1'
_cell_length_a   7.13864575
_cell_length_b   8.82981458
_cell_length_c   14.78417185
_cell_angle_alpha   89.99992669
_cell_angle_beta   97.52617031
_cell_angle_gamma   90.00006329
_symmetry_Int_Tables_number   1
_chemical_formula_structural   CdH6C6(N2Cl)2
_chemical_formula_sum   'Cd4 H24 C24 N16 Cl8'
_cell_volume   923.86139827
_cell_formula_units_Z   4
loop_
 _symmetry_equiv_pos_site_id
 _symmetry_equiv_pos_as_xyz
  1  'x, y, z'
loop_
 _atom_site_type_symbol
 _atom_site_label
 _atom_site_symmetry_multiplicity
 _atom_site_fract_x
 _atom_site_fract_y
 _atom_site_fract_z
 _atom_site_occupancy
 _atom_site_hle17_bader_spin_density
 _atom_site_hle17_ddec_charge
 _atom_site_hle17_ddec_spin_density
 _atom_site_hle17_ddec_sum_bond_order
 _atom_site_hle17_magmom
 _atom_site_hse06_10hf_bader_spin_density
 _atom_site_hse06_10hf_ddec_charge
 _atom_site_hse06_10hf_ddec_spin_density
 _atom_site_hse06_10hf_ddec_sum_bond_order
 _atom_site_hse06_10hf_magmom
 _atom_site_hse06_bader_spin_density
 _atom_site_hse06_ddec_charge
 _atom_site_hse06_ddec_spin_density
 _atom_site_hse06_ddec_sum_bond_order
 _atom_site_hse06_magmom
 _atom_site_pbe_bader_spin_density
 _atom_site_pbe_cm5_charge
 _atom_site_pbe_ddec_charge
 _atom_site_pbe_ddec_spin_density
 _atom_site_pbe_ddec_sum_bond_order
 _atom_site_pbe_magmom
Cd  Cd0  1  0.90896783  0.15095288  0.76289863  1  0  0.973529  0  1.970209  0  0  0.80721  0  2.436665  0  0  0.853489  0  2.395367  0  0  0.599164  0.774558  0  2.464647  0
Cd  Cd1  1  0.59103422  0.65095591  0.23710283  1  0  0.973512  0  1.970169  0  0  0.807188  0  2.436619  0  0  0.853469  0  2.395323  0  0  0.599154  0.774523  0  2.464622  0
Cd  Cd2  1  0.09103459  0.84904591  0.23710286  1  0  0.973498  0  1.970229  0  0  0.807173  0  2.436689  0  0  0.853454  0  2.395391  0  0  0.59916  0.774504  0  2.464709  0
Cd  Cd3  1  0.40896538  0.34904400  0.76289712  1  0  0.973501  0  1.970175  0  0  0.807178  0  2.436627  0  0  0.853458  0  2.395331  0  0  0.599154  0.774504  0  2.464649  0
H  H4  1  0.74442583  0.59556703  0.64620046  1  0  0.298465  0  0.931295  0  0  0.281095  0  0.994693  0  0  0.289379  0  0.988122  0  0  0.283319  0.275187  0  0.999499  0
H  H5  1  0.75557193  0.09556480  0.35379805  1  0  0.298469  0  0.931259  0  0  0.281095  0  0.994672  0  0  0.28938  0  0.9881  0  0  0.283311  0.275187  0  0.999483  0
H  H6  1  0.25557094  0.40443402  0.35379931  1  0  0.298489  0  0.931251  0  0  0.281114  0  0.994661  0  0  0.289399  0  0.988088  0  0  0.283325  0.275203  0  0.999471  0
H  H7  1  0.24442766  0.90443511  0.64620325  1  0  0.298468  0  0.931288  0  0  0.281104  0  0.994671  0  0  0.289386  0  0.988108  0  0  0.283325  0.275195  0  0.999481  0
H  H8  1  0.95558007  0.55794100  0.81409055  1  0  0.307377  0  0.886269  0  0  0.288692  0  0.950892  0  0  0.296417  0  0.944664  0  0  0.306216  0.283177  0  0.95541  0
H  H9  1  0.54441764  0.05794350  0.18590934  1  0  0.307369  0  0.886224  0  0  0.288678  0  0.950854  0  0  0.296402  0  0.944633  0  0  0.306196  0.283166  0  0.95537  0
H  H10  1  0.04441952  0.44205892  0.18591075  1  0  0.307376  0  0.886215  0  0  0.288704  0  0.95083  0  0  0.296428  0  0.944603  0  0  0.306225  0.283188  0  0.955362  0
H  H11  1  0.45558478  0.94205642  0.81409079  1  0  0.307365  0  0.886242  0  0  0.288682  0  0.950855  0  0  0.296408  0  0.944627  0  0  0.306217  0.28317  0  0.955373  0
H  H12  1  0.64888569  0.03641267  0.53548142  1  0  0.10008  0  0.967188  0  0  0.109604  0  1.030666  0  0  0.111569  0  1.030281  0  0  0.112702  0.108185  0  1.031019  0
H  H13  1  0.85111906  0.53641543  0.46451893  1  0  0.100059  0  0.967188  0  0  0.109585  0  1.030675  0  0  0.111547  0  1.030291  0  0  0.112698  0.108166  0  1.031027  0
H  H14  1  0.35112522  0.96358497  0.46451655  1  0  0.100071  0  0.967213  0  0  0.109599  0  1.030684  0  0  0.111562  0  1.030299  0  0  0.112694  0.108177  0  1.031035  0
H  H15  1  0.14887912  0.46358675  0.53548160  1  0  0.100057  0  0.967243  0  0  0.109582  0  1.030721  0  0  0.111547  0  1.030338  0  0  0.112696  0.108161  0  1.031071  0
H  H16  1  0.59214359  0.72791872  0.50115955  1  0  0.115181  0  0.954711  0  0  0.123733  0  1.0184  0  0  0.126648  0  1.016836  0  0  0.116974  0.12159  0  1.019642  0
H  H17  1  0.90785573  0.22792083  0.49883830  1  0  0.115198  0  0.954704  0  0  0.123755  0  1.018383  0  0  0.126662  0  1.01684  0  0  0.116986  0.121613  0  1.019632  0
H  H18  1  0.40786025  0.27207893  0.49883865  1  0  0.115279  0  0.954643  0  0  0.123797  0  1.018357  0  0  0.126705  0  1.016811  0  0  0.117003  0.121653  0  1.019604  0
H  H19  1  0.09214104  0.77208135  0.50116214  1  0  0.115178  0  0.954722  0  0  0.123727  0  1.018415  0  0  0.126636  0  1.016866  0  0  0.116967  0.121585  0  1.019662  0
H  H20  1  0.14113550  0.93804694  0.97275383  1  0  0.105203  0  0.959231  0  0  0.115321  0  1.020171  0  0  0.117595  0  1.019202  0  0  0.111099  0.113667  0  1.020997  0
H  H21  1  0.35886882  0.43804897  0.02724366  1  0  0.10517  0  0.959231  0  0  0.115302  0  1.020166  0  0  0.117577  0  1.019193  0  0  0.11109  0.113646  0  1.020994  0
H  H22  1  0.85886269  0.06195411  0.02724535  1  0  0.10521  0  0.95923  0  0  0.115328  0  1.02017  0  0  0.117602  0  1.0192  0  0  0.111093  0.113671  0  1.020995  0
H  H23  1  0.64112936  0.56194754  0.97275620  1  0  0.105178  0  0.959261  0  0  0.115321  0  1.020184  0  0  0.117599  0  1.019207  0  0  0.11111  0.113667  0  1.021006  0
H  H24  1  0.12523734  0.62456470  0.96811222  1  0  0.113312  0  0.951979  0  0  0.122308  0  1.015242  0  0  0.12528  0  1.013242  0  0  0.116895  0.120132  0  1.016808  0
H  H25  1  0.37476379  0.12456674  0.03188663  1  0  0.113314  0  0.951973  0  0  0.122308  0  1.015236  0  0  0.125283  0  1.013233  0  0  0.116877  0.120128  0  1.016808  0
H  H26  1  0.87476508  0.37543635  0.03188723  1  0  0.113298  0  0.951953  0  0  0.122294  0  1.015222  0  0  0.125264  0  1.013227  0  0  0.116876  0.120116  0  1.016787  0
H  H27  1  0.62523580  0.87543091  0.96811399  1  0  0.113272  0  0.951972  0  0  0.122282  0  1.015216  0  0  0.125252  0  1.013221  0  0  0.116874  0.120105  0  1.01678  0
C  C28  1  0.81999067  0.81716395  0.69838249  1  0  0.252809  0  3.801022  0  0  0.224362  0  4.067628  0  0  0.236798  0  4.081705  0  0  0.206307  0.216123  0  4.057839  0
C  C29  1  0.68000592  0.31716631  0.30161647  1  0  0.252795  0  3.801166  0  0  0.224325  0  4.0678  0  0  0.236769  0  4.08188  0  0  0.206322  0.216082  0  4.058008  0
C  C30  1  0.18000610  0.18283596  0.30161727  1  0  0.252846  0  3.801094  0  0  0.224425  0  4.067662  0  0  0.236869  0  4.081744  0  0  0.206287  0.216176  0  4.057876  0
C  C31  1  0.31999368  0.68283474  0.69838416  1  0  0.25283  0  3.801131  0  0  0.224379  0  4.067735  0  0  0.236821  0  4.081819  0  0  0.206334  0.216132  0  4.057946  0
C  C32  1  0.69099528  0.93945652  0.57816122  1  0  0.010097  0  3.741358  0  0  -0.025041  0  4.013167  0  0  -0.022879  0  4.032189  0  0  -0.005025  -0.026578  0  4.000345  0
C  C33  1  0.80900851  0.43945872  0.42183880  1  0  0.010089  0  3.74137  0  0  -0.02506  0  4.013187  0  0  -0.022895  0  4.03221  0  0  -0.005051  -0.026592  0  4.00036  0
C  C34  1  0.30901139  0.06054113  0.42183784  1  0  0.010105  0  3.741381  0  0  -0.025033  0  4.013197  0  0  -0.022868  0  4.032216  0  0  -0.005014  -0.026562  0  4.000363  0
C  C35  1  0.19099109  0.56054233  0.57816182  1  0  0.010066  0  3.741421  0  0  -0.025079  0  4.013247  0  0  -0.022919  0  4.032271  0  0  -0.00506  -0.02661  0  4.000414  0
C  C36  1  0.66271435  0.78722910  0.56022265  1  0  0.002703  0  3.667487  0  0  -0.039289  0  3.938911  0  0  -0.036824  0  3.956084  0  0  0.003075  -0.040877  0  3.927326  0
C  C37  1  0.83728503  0.28723128  0.43977651  1  0  0.002737  0  3.667527  0  0  -0.039249  0  3.938936  0  0  -0.036785  0  3.956103  0  0  0.003064  -0.040842  0  3.927359  0
C  C38  1  0.33728950  0.21277082  0.43977554  1  0  0.002612  0  3.667625  0  0  -0.039352  0  3.939055  0  0  -0.036887  0  3.956224  0  0  0.003067  -0.04094  0  3.927469  0
C  C39  1  0.16271033  0.71276863  0.56022316  1  0  0.002783  0  3.667542  0  0  -0.039206  0  3.938959  0  0  -0.03674  0  3.956128  0  0  0.003104  -0.040801  0  3.927382  0
C  C40  1  0.92417946  0.79725635  0.78778384  1  0  0.253661  0  3.799602  0  0  0.222926  0  4.069194  0  0  0.234421  0  4.083878  0  0  0.204668  0.215288  0  4.059006  0
C  C41  1  0.57582276  0.29725768  0.21221549  1  0  0.253747  0  3.799518  0  0  0.223031  0  4.069082  0  0  0.234503  0  4.083794  0  0  0.204728  0.215389  0  4.058895  0
C  C42  1  0.07581872  0.20274357  0.21221669  1  0  0.253523  0  3.799691  0  0  0.222784  0  4.069294  0  0  0.234249  0  4.084019  0  0  0.204621  0.215151  0  4.059105  0
C  C43  1  0.42417966  0.70274337  0.78778464  1  0  0.253696  0  3.7996  0  0  0.222974  0  4.069158  0  0  0.234443  0  4.083876  0  0  0.204698  0.215334  0  4.058971  0
C  C44  1  0.07690232  0.86412243  0.91904789  1  0  0.014971  0  3.732602  0  0  -0.020031  0  4.006896  0  0  -0.018536  0  4.02642  0  0  -0.002257  -0.02112  0  3.993708  0
C  C45  1  0.42309907  0.36412553  0.08095217  1  0  0.015058  0  3.732835  0  0  -0.019945  0  4.007103  0  0  -0.01845  0  4.026628  0  0  -0.002219  -0.021037  0  3.993912  0
C  C46  1  0.92309728  0.13587749  0.08095206  1  0  0.014917  0  3.732645  0  0  -0.020087  0  4.006948  0  0  -0.018592  0  4.02647  0  0  -0.002248  -0.021172  0  3.993751  0
C  C47  1  0.57689911  0.63587551  0.91904701  1  0  0.014989  0  3.732934  0  0  -0.020034  0  4.007215  0  0  -0.01854  0  4.02674  0  0  -0.002257  -0.021127  0  3.99402  0
C  C48  1  0.07113766  0.70822787  0.91806752  1  0  0.024272  0  3.658005  0  0  -0.020821  0  3.932631  0  0  -0.018092  0  3.950482  0  0  0.008487  -0.022617  0  3.920615  0
C  C49  1  0.42886499  0.20822872  0.08193002  1  0  0.024155  0  3.657975  0  0  -0.020951  0  3.932616  0  0  -0.018222  0  3.950466  0  0  0.008453  -0.022733  0  3.920592  0
C  C50  1  0.92886194  0.29177318  0.08193243  1  0  0.024318  0  3.657953  0  0  -0.020759  0  3.932573  0  0  -0.018031  0  3.950422  0  0  0.008539  -0.022547  0  3.920552  0
C  C51  1  0.57113178  0.79177007  0.91806907  1  0  0.024235  0  3.65809  0  0  -0.020881  0  3.932746  0  0  -0.018153  0  3.950594  0  0  0.008459  -0.02267  0  3.920724  0
N  N52  1  0.78736116  0.95667653  0.66400694  1  0  -0.406234  0  3.223998  0  0  -0.339253  0  3.496746  0  0  -0.358533  0  3.51436  0  0  -0.358158  -0.32597  0  3.484479  0
N  N53  1  0.71263983  0.45667771  0.33599153  1  0  -0.406276  0  3.224038  0  0  -0.339281  0  3.496779  0  0  -0.358557  0  3.514378  0  0  -0.358162  -0.325991  0  3.484501  0
N  N54  1  0.21264127  0.04332225  0.33599116  1  0  -0.406246  0  3.223917  0  0  -0.339265  0  3.496649  0  0  -0.358545  0  3.514258  0  0  -0.358144  -0.325977  0  3.484377  0
N  N55  1  0.28736118  0.54332220  0.66400918  1  0  -0.406235  0  3.223899  0  0  -0.339248  0  3.496638  0  0  -0.358522  0  3.51424  0  0  -0.35814  -0.325955  0  3.484357  0
N  N56  1  0.74458968  0.71191489  0.63701125  1  0  -0.302493  0  3.439783  0  0  -0.239659  0  3.667868  0  0  -0.255443  0  3.682896  0  0  -0.374827  -0.228995  0  3.657603  0
N  N57  1  0.75541103  0.21191491  0.36298805  1  0  -0.302461  0  3.439742  0  0  -0.239628  0  3.667832  0  0  -0.255412  0  3.682856  0  0  -0.374791  -0.228969  0  3.657595  0
N  N58  1  0.25541133  0.28808389  0.36298879  1  0  -0.302513  0  3.439814  0  0  -0.239684  0  3.667878  0  0  -0.255466  0  3.682902  0  0  -0.374855  -0.229024  0  3.657642  0
N  N59  1  0.24458716  0.78808387  0.63701113  1  0  -0.302531  0  3.43979  0  0  -0.239699  0  3.667878  0  0  -0.255483  0  3.682904  0  0  -0.374853  -0.229037  0  3.65764  0
N  N60  1  0.98665109  0.91826452  0.83787041  1  0  -0.411638  0  3.208954  0  0  -0.34729  0  3.48735  0  0  -0.365808  0  3.504756  0  0  -0.355226  -0.334445  0  3.475152  0
N  N61  1  0.51334986  0.41826705  0.16212809  1  0  -0.411607  0  3.209052  0  0  -0.347274  0  3.487451  0  0  -0.365787  0  3.504867  0  0  -0.355212  -0.334426  0  3.475249  0
N  N62  1  0.01334426  0.08173426  0.16213130  1  0  -0.411541  0  3.208965  0  0  -0.347184  0  3.487346  0  0  -0.365695  0  3.504765  0  0  -0.355188  -0.334342  0  3.475148  0
N  N63  1  0.48664974  0.58173173  0.83787186  1  0  -0.41157  0  3.209051  0  0  -0.347237  0  3.487457  0  0  -0.365749  0  3.504875  0  0  -0.355216  -0.334386  0  3.47525  0
N  N64  1  0.97482231  0.66808486  0.83482365  1  0  -0.303237  0  3.448415  0  0  -0.23984  0  3.67905  0  0  -0.254983  0  3.694067  0  0  -0.374775  -0.229637  0  3.668921  0
N  N65  1  0.52517552  0.16808852  0.16517685  1  0  -0.303239  0  3.448204  0  0  -0.239826  0  3.678821  0  0  -0.254964  0  3.693842  0  0  -0.37479  -0.229626  0  3.668698  0
N  N66  1  0.02517305  0.33191506  0.16517603  1  0  -0.303166  0  3.448321  0  0  -0.239807  0  3.678988  0  0  -0.254938  0  3.694014  0  0  -0.374794  -0.229614  0  3.66887  0
N  N67  1  0.47482690  0.83191139  0.83482328  1  0  -0.303188  0  3.448434  0  0  -0.239779  0  3.679053  0  0  -0.254911  0  3.694076  0  0  -0.374755  -0.229582  0  3.66893  0
Cl  Cl68  1  0.12151192  0.32939441  0.86654451  1  0  -0.564775  0  1.016636  0  0  -0.499673  0  1.303111  0  0  -0.518611  0  1.282912  0  0  -0.293726  -0.486046  0  1.316778  0
Cl  Cl69  1  0.37848661  0.82939570  0.13345538  1  0  -0.564774  0  1.016636  0  0  -0.499674  0  1.303113  0  0  -0.518613  0  1.282915  0  0  -0.293732  -0.486045  0  1.316779  0
Cl  Cl70  1  0.87848627  0.67061004  0.13345399  1  0  -0.564791  0  1.016605  0  0  -0.4997  0  1.303091  0  0  -0.518637  0  1.28289  0  0  -0.293751  -0.486068  0  1.316757  0
Cl  Cl71  1  0.62151298  0.17060535  0.86654524  1  0  -0.564779  0  1.016602  0  0  -0.499696  0  1.303096  0  0  -0.518635  0  1.282897  0  0  -0.293744  -0.486069  0  1.316761  0
Cl  Cl72  1  0.71401914  0.35905806  0.66274715  1  0  -0.583307  0  0.956624  0  0  -0.524366  0  1.226787  0  0  -0.541893  0  1.206812  0  0  -0.304918  -0.511622  0  1.240368  0
Cl  Cl73  1  0.78598738  0.85905765  0.33725445  1  0  -0.583304  0  0.956651  0  0  -0.524366  0  1.226833  0  0  -0.541897  0  1.206862  0  0  -0.304918  -0.51162  0  1.240421  0
Cl  Cl74  1  0.28598468  0.64094072  0.33725578  1  0  -0.583296  0  0.956624  0  0  -0.524357  0  1.2268  0  0  -0.541889  0  1.206826  0  0  -0.304904  -0.51161  0  1.240387  0
Cl  Cl75  1  0.21401080  0.14094000  0.66274540  1  0  -0.583291  0  0.956639  0  0  -0.52436  0  1.226811  0  0  -0.541887  0  1.206843  0  0  -0.304908  -0.511615  0  1.240402  0
