# generated using pymatgen
data_ZnH17C18N2O5
_symmetry_space_group_name_H-M   'P 1'
_cell_length_a   8.47789371
_cell_length_b   9.77187424
_cell_length_c   11.49819693
_cell_angle_alpha   69.23872682
_cell_angle_beta   69.61959002
_cell_angle_gamma   65.48881115
_symmetry_Int_Tables_number   1
_chemical_formula_structural   ZnH17C18N2O5
_chemical_formula_sum   'Zn2 H34 C36 N4 O10'
_cell_volume   787.45625076
_cell_formula_units_Z   2
loop_
 _symmetry_equiv_pos_site_id
 _symmetry_equiv_pos_as_xyz
  1  'x, y, z'
loop_
 _atom_site_type_symbol
 _atom_site_label
 _atom_site_symmetry_multiplicity
 _atom_site_fract_x
 _atom_site_fract_y
 _atom_site_fract_z
 _atom_site_occupancy
 _atom_site_hle17_bader_spin_density
 _atom_site_hle17_ddec_charge
 _atom_site_hle17_ddec_spin_density
 _atom_site_hle17_ddec_sum_bond_order
 _atom_site_hle17_magmom
 _atom_site_hse06_10hf_bader_spin_density
 _atom_site_hse06_10hf_ddec_charge
 _atom_site_hse06_10hf_ddec_spin_density
 _atom_site_hse06_10hf_ddec_sum_bond_order
 _atom_site_hse06_10hf_magmom
 _atom_site_hse06_bader_spin_density
 _atom_site_hse06_ddec_charge
 _atom_site_hse06_ddec_spin_density
 _atom_site_hse06_ddec_sum_bond_order
 _atom_site_hse06_magmom
 _atom_site_pbe_bader_spin_density
 _atom_site_pbe_cm5_charge
 _atom_site_pbe_ddec_charge
 _atom_site_pbe_ddec_spin_density
 _atom_site_pbe_ddec_sum_bond_order
 _atom_site_pbe_magmom
Zn  Zn0  1  0.66114433  0.09149079  0.56005743  1  0  1.164015  0  1.682642  0  0  0.989363  0  2.142294  0  0  1.038028  0  2.081855  0  0  0.701585  0.954097  0  2.184789  0
Zn  Zn1  1  0.33885799  0.90850652  0.43994176  1  0  1.16401  0  1.682625  0  0  0.989349  0  2.142277  0  0  1.038016  0  2.08184  0  0  0.701579  0.954088  0  2.18477  0
H  H2  1  0.87410293  0.63251115  0.77622031  1  0  0.086986  0  0.977247  0  0  0.097804  0  1.041794  0  0  0.100568  0  1.039976  0  0  0.100992  0.095696  0  1.043283  0
H  H3  1  0.12588963  0.36749199  0.22377960  1  0  0.086956  0  0.977295  0  0  0.097763  0  1.041854  0  0  0.100525  0  1.040034  0  0  0.100982  0.095654  0  1.043349  0
H  H4  1  0.75863510  0.42240284  0.80383614  1  0  0.077921  0  0.979536  0  0  0.087754  0  1.044154  0  0  0.090398  0  1.043952  0  0  0.093694  0.085236  0  1.045625  0
H  H5  1  0.24135790  0.57759915  0.19616313  1  0  0.077959  0  0.979483  0  0  0.087774  0  1.044118  0  0  0.090418  0  1.043917  0  0  0.093722  0.085255  0  1.045589  0
H  H6  1  0.93899495  0.21833301  0.68554194  1  0  0.094907  0  0.990362  0  0  0.106444  0  1.053184  0  0  0.109627  0  1.050522  0  0  0.104307  0.104361  0  1.05454  0
H  H7  1  0.06100018  0.78166665  0.31445836  1  0  0.094879  0  0.990375  0  0  0.106428  0  1.053192  0  0  0.109611  0  1.050531  0  0  0.104298  0.104345  0  1.054549  0
H  H8  1  0.35033795  0.42899832  0.51464840  1  0  0.112309  0  0.951443  0  0  0.119087  0  1.019571  0  0  0.123042  0  1.016087  0  0  0.109107  0.11625  0  1.021945  0
H  H9  1  0.64966223  0.57099785  0.48535775  1  0  0.112339  0  0.951428  0  0  0.11914  0  1.019513  0  0  0.123094  0  1.016027  0  0  0.109132  0.116275  0  1.021918  0
H  H10  1  0.58341009  0.36853498  0.66218382  1  0  0.123712  0  0.963611  0  0  0.132286  0  1.025112  0  0  0.135935  0  1.02284  0  0  0.109302  0.129858  0  1.0265  0
H  H11  1  0.41659385  0.63146464  0.33781599  1  0  0.123735  0  0.963534  0  0  0.132292  0  1.025053  0  0  0.135942  0  1.022779  0  0  0.109295  0.129862  0  1.026449  0
H  H12  1  0.14665738  0.26167789  0.08546902  1  0  0.11434  0  0.967816  0  0  0.122548  0  1.032573  0  0  0.126304  0  1.029919  0  0  0.105737  0.120005  0  1.034294  0
H  H13  1  0.85334155  0.73832175  0.91452858  1  0  0.114309  0  0.96782  0  0  0.122548  0  1.03255  0  0  0.126305  0  1.029896  0  0  0.105733  0.119993  0  1.034283  0
H  H14  1  0.24075834  0.96677526  0.13154065  1  0  0.086958  0  0.942622  0  0  0.099619  0  1.008409  0  0  0.100488  0  1.008323  0  0  0.111725  0.098894  0  1.008653  0
H  H15  1  0.75924260  0.03322901  0.86845679  1  0  0.086954  0  0.942575  0  0  0.099619  0  1.008371  0  0  0.100487  0  1.008282  0  0  0.111717  0.098896  0  1.008615  0
H  H16  1  0.27553312  0.82994972  0.05028273  1  0  0.069153  0  0.936722  0  0  0.08824  0  0.997513  0  0  0.088059  0  0.998852  0  0  0.110726  0.08831  0  0.996817  0
H  H17  1  0.72446831  0.17004992  0.94971772  1  0  0.069131  0  0.93674  0  0  0.088232  0  0.997523  0  0  0.088049  0  0.998862  0  0  0.110723  0.088302  0  0.996827  0
H  H18  1  0.55023522  0.80876726  0.72258370  1  0  0.149693  0  0.966128  0  0  0.168804  0  1.023266  0  0  0.171428  0  1.021868  0  0  0.104855  0.167119  0  1.023982  0
H  H19  1  0.44976828  0.19123353  0.27741588  1  0  0.149674  0  0.966048  0  0  0.168797  0  1.023182  0  0  0.17142  0  1.021785  0  0  0.104838  0.167112  0  1.023899  0
H  H20  1  0.32240365  0.83683248  0.79284637  1  0  0.147519  0  0.928841  0  0  0.166692  0  0.989539  0  0  0.169724  0  0.987483  0  0  0.107203  0.16456  0  0.990678  0
H  H21  1  0.67760117  0.16316483  0.20715392  1  0  0.147557  0  0.928848  0  0  0.16675  0  0.989513  0  0  0.169781  0  0.987457  0  0  0.107239  0.164617  0  0.990654  0
H  H22  1  0.47825632  0.73878565  0.89178720  1  0  0.121488  0  0.962527  0  0  0.138809  0  1.029357  0  0  0.140587  0  1.029533  0  0  0.095749  0.136779  0  1.030363  0
H  H23  1  0.52175014  0.26121397  0.10821198  1  0  0.121487  0  0.962523  0  0  0.138812  0  1.029362  0  0  0.140592  0  1.029534  0  0  0.095746  0.136782  0  1.030368  0
H  H24  1  0.22090361  0.50631928  0.00595355  1  0  0.083296  0  0.963186  0  0  0.096534  0  1.022485  0  0  0.098802  0  1.022118  0  0  0.097128  0.094685  0  1.023431  0
H  H25  1  0.77909236  0.49368153  0.99404445  1  0  0.083271  0  0.963166  0  0  0.096516  0  1.022467  0  0  0.098783  0  1.022099  0  0  0.097114  0.094665  0  1.023416  0
H  H26  1  0.43756931  0.55697183  0.80002117  1  0  0.092691  0  0.959466  0  0  0.108421  0  1.013456  0  0  0.110367  0  1.013636  0  0  0.101143  0.10694  0  1.013873  0
H  H27  1  0.56242620  0.44303015  0.19997834  1  0  0.092691  0  0.959474  0  0  0.10842  0  1.013465  0  0  0.110365  0  1.013646  0  0  0.101139  0.10694  0  1.013881  0
H  H28  1  0.95349969  0.96101342  0.14726554  1  0  0.076239  0  0.951321  0  0  0.094753  0  1.013147  0  0  0.094906  0  1.014413  0  0  0.095645  0.094571  0  1.012295  0
H  H29  1  0.04650129  0.03898737  0.85273555  1  0  0.07622  0  0.951374  0  0  0.094769  0  1.013167  0  0  0.094925  0  1.014429  0  0  0.095635  0.094585  0  1.012313  0
H  H30  1  0.96861487  0.14149496  0.04593323  1  0  0.075431  0  0.926994  0  0  0.096812  0  0.983582  0  0  0.09724  0  0.984395  0  0  0.095838  0.096346  0  0.983291  0
H  H31  1  0.03138485  0.85850584  0.95406731  1  0  0.07544  0  0.927004  0  0  0.096837  0  0.983581  0  0  0.097266  0  0.984394  0  0  0.095843  0.096371  0  0.98329  0
H  H32  1  0.95956307  0.92625377  0.66858655  1  0  0.422204  0  0.8896  0  0  0.391982  0  0.952927  0  0  0.402502  0  0.937701  0  0  0.286444  0.384719  0  0.963463  0
H  H33  1  0.04044051  0.07374354  0.33141058  1  0  0.422193  0  0.889635  0  0  0.391995  0  0.95292  0  0  0.402516  0  0.937692  0  0  0.28646  0.384732  0  0.963455  0
H  H34  1  0.98212567  0.08203596  0.58045114  1  0  0.413712  0  0.887932  0  0  0.38347  0  0.958843  0  0  0.393855  0  0.943551  0  0  0.290201  0.376244  0  0.969411  0
H  H35  1  0.01788086  0.91796018  0.41954821  1  0  0.413786  0  0.887839  0  0  0.383506  0  0.958795  0  0  0.393892  0  0.943502  0  0  0.290223  0.376281  0  0.969362  0
C  C36  1  0.17636358  0.67769472  0.62605639  1  0  0.663617  0  3.894361  0  0  0.607831  0  4.193061  0  0  0.642581  0  4.185227  0  0  0.213198  0.584854  0  4.196681  0
C  C37  1  0.82363703  0.32230376  0.37394375  1  0  0.663674  0  3.894195  0  0  0.60789  0  4.192908  0  0  0.64264  0  4.185073  0  0  0.213242  0.584916  0  4.196526  0
C  C38  1  0.11762758  0.54475078  0.64362888  1  0  -0.071927  0  3.749904  0  0  -0.045524  0  3.983567  0  0  -0.055839  0  4.008227  0  0  -0.017819  -0.038959  0  3.966444  0
C  C39  1  0.88236961  0.45525004  0.35637316  1  0  -0.071946  0  3.74996  0  0  -0.045546  0  3.983637  0  0  -0.055866  0  4.008299  0  0  -0.017825  -0.038984  0  3.966506  0
C  C40  1  0.95242484  0.54056652  0.72630326  1  0  -0.049829  0  3.727467  0  0  -0.078921  0  3.974557  0  0  -0.076239  0  3.994255  0  0  -0.080913  -0.08032  0  3.960878  0
C  C41  1  0.04757193  0.45943545  0.27369680  1  0  -0.049751  0  3.72753  0  0  -0.078834  0  3.974619  0  0  -0.076149  0  3.994319  0  0  -0.080888  -0.08023  0  3.96094  0
C  C42  1  0.88898231  0.42337101  0.74127614  1  0  -0.088713  0  3.780444  0  0  -0.097806  0  4.034281  0  0  -0.103273  0  4.055925  0  0  -0.098713  -0.094231  0  4.019555  0
C  C43  1  0.11101320  0.57663097  0.25872511  1  0  -0.088769  0  3.780468  0  0  -0.097853  0  4.034308  0  0  -0.10332  0  4.055952  0  0  -0.098749  -0.094278  0  4.019581  0
C  C44  1  0.99066829  0.30829613  0.67456657  1  0  -0.053062  0  3.711638  0  0  -0.08265  0  3.960962  0  0  -0.079388  0  3.979595  0  0  -0.083197  -0.084235  0  3.947451  0
C  C45  1  0.00932601  0.69170238  0.32543603  1  0  -0.05305  0  3.711672  0  0  -0.082666  0  3.960968  0  0  -0.079406  0  3.979603  0  0  -0.083216  -0.084252  0  3.947457  0
C  C46  1  0.15860103  0.30860137  0.59385041  1  0  -0.084384  0  3.749165  0  0  -0.059248  0  3.987882  0  0  -0.069999  0  4.012284  0  0  -0.022744  -0.052731  0  3.971978  0
C  C47  1  0.84139703  0.69139712  0.40615385  1  0  -0.084425  0  3.749278  0  0  -0.059224  0  3.987924  0  0  -0.069971  0  4.012326  0  0  -0.022747  -0.052707  0  3.972011  0
C  C48  1  0.22036831  0.42833384  0.57783890  1  0  -0.05612  0  3.67793  0  0  -0.092068  0  3.924774  0  0  -0.088645  0  3.943872  0  0  -0.071088  -0.094086  0  3.912055  0
C  C49  1  0.77963019  0.57166350  0.42216560  1  0  -0.056106  0  3.67798  0  0  -0.092078  0  3.924796  0  0  -0.088655  0  3.943895  0  0  -0.071092  -0.094072  0  3.912086  0
C  C50  1  0.27509627  0.18371434  0.52426783  1  0  0.674098  0  3.858869  0  0  0.617629  0  4.153666  0  0  0.653008  0  4.145817  0  0  0.219396  0.5937  0  4.158364  0
C  C51  1  0.72490390  0.81628530  0.47573294  1  0  0.67403  0  3.859043  0  0  0.617527  0  4.153845  0  0  0.652902  0  4.146002  0  0  0.219319  0.593598  0  4.15854  0
C  C52  1  0.49181178  0.34477202  0.75460092  1  0  -0.137471  0  3.721607  0  0  -0.15675  0  3.976247  0  0  -0.159539  0  3.995795  0  0  -0.090405  -0.155617  0  3.963182  0
C  C53  1  0.50819008  0.65522646  0.24539890  1  0  -0.137472  0  3.721546  0  0  -0.156736  0  3.976186  0  0  -0.159523  0  3.995733  0  0  -0.090382  -0.155606  0  3.963121  0
C  C54  1  0.44774228  0.20928502  0.79782068  1  0  0.150384  0  3.841793  0  0  0.146814  0  4.090266  0  0  0.150523  0  4.113678  0  0  0.08475  0.144871  0  4.073801  0
C  C55  1  0.55225828  0.79071693  0.20217755  1  0  0.150428  0  3.841714  0  0  0.146867  0  4.090183  0  0  0.150576  0  4.113593  0  0  0.084778  0.144928  0  4.073713  0
C  C56  1  0.24378123  0.28350801  0.99539439  1  0  -0.154714  0  3.748495  0  0  -0.172869  0  4.003387  0  0  -0.176395  0  4.023364  0  0  -0.097559  -0.170331  0  3.98834  0
C  C57  1  0.75621599  0.71649280  0.00460416  1  0  -0.154679  0  3.748532  0  0  -0.172855  0  4.003419  0  0  -0.17638  0  4.023397  0  0  -0.097559  -0.170309  0  3.98838  0
C  C58  1  0.42521536  0.98320931  0.82566698  1  0  0.421866  0  3.675637  0  0  0.393313  0  3.952842  0  0  0.413035  0  3.964614  0  0  0.238262  0.379474  0  3.945338  0
C  C59  1  0.57478858  0.01679031  0.17433284  1  0  0.421932  0  3.675623  0  0  0.393362  0  3.95283  0  0  0.413088  0  3.964595  0  0  0.238285  0.379522  0  3.945328  0
C  C60  1  0.32894117  0.17890736  0.91773440  1  0  0.103157  0  3.789381  0  0  0.090769  0  4.036861  0  0  0.09498  0  4.059282  0  0  0.089999  0.088895  0  4.020446  0
C  C61  1  0.67105732  0.82109344  0.08226384  1  0  0.103125  0  3.78936  0  0  0.0907  0  4.036873  0  0  0.094911  0  4.059295  0  0  0.089983  0.088825  0  4.020453  0
C  C62  1  0.21893960  0.95405451  0.04783524  1  0  0.013727  0  3.625765  0  0  -0.046953  0  3.882941  0  0  -0.042448  0  3.894301  0  0  -0.053561  -0.049857  0  3.874977  0
C  C63  1  0.78106265  0.04594628  0.95216379  1  0  0.013817  0  3.625643  0  0  -0.046907  0  3.882884  0  0  -0.042398  0  3.89424  0  0  -0.053554  -0.049815  0  3.874924  0
C  C64  1  0.44540121  0.83354631  0.80783843  1  0  -0.408306  0  3.695691  0  0  -0.488781  0  3.935145  0  0  -0.493262  0  3.938562  0  0  -0.236654  -0.484876  0  3.932322  0
C  C65  1  0.55460355  0.16645447  0.19216084  1  0  -0.408379  0  3.695631  0  0  -0.488876  0  3.935062  0  0  -0.493358  0  3.938476  0  0  -0.236699  -0.484969  0  3.932241  0
C  C66  1  0.28667398  0.41948303  0.95005754  1  0  -0.074686  0  3.790994  0  0  -0.091003  0  4.045821  0  0  -0.092706  0  4.068598  0  0  -0.098973  -0.088719  0  4.030446  0
C  C67  1  0.71332281  0.58051894  0.04994078  1  0  -0.074667  0  3.790973  0  0  -0.090989  0  4.045803  0  0  -0.092692  0  4.068582  0  0  -0.098972  -0.088703  0  4.030423  0
C  C68  1  0.41015253  0.44825115  0.83282950  1  0  -0.086492  0  3.79328  0  0  -0.104623  0  4.050235  0  0  -0.107233  0  4.072898  0  0  -0.102013  -0.103592  0  4.036473  0
C  C69  1  0.58984595  0.55174965  0.16716874  1  0  -0.086519  0  3.793344  0  0  -0.104652  0  4.0503  0  0  -0.107265  0  4.072966  0  0  -0.102018  -0.10362  0  4.036532  0
C  C70  1  0.02046362  0.01601205  0.05233960  1  0  -0.130481  0  3.687535  0  0  -0.174821  0  3.952132  0  0  -0.17588  0  3.965404  0  0  -0.16594  -0.1739  0  3.942716  0
C  C71  1  0.97953736  0.98398875  0.94766148  1  0  -0.130533  0  3.687601  0  0  -0.174918  0  3.952223  0  0  -0.175978  0  3.965492  0  0  -0.165944  -0.173993  0  3.942801  0
N  N72  1  0.50364739  0.08594256  0.74221532  1  0  -0.506569  0  3.172435  0  0  -0.438757  0  3.463275  0  0  -0.462397  0  3.473447  0  0  -0.350056  -0.422851  0  3.456186  0
N  N73  1  0.49635485  0.91405824  0.25778545  1  0  -0.506567  0  3.172402  0  0  -0.43875  0  3.463247  0  0  -0.462392  0  3.473418  0  0  -0.350049  -0.422845  0  3.45616  0
N  N74  1  0.32028817  0.03451855  0.93325186  1  0  -0.173047  0  3.469705  0  0  -0.089429  0  3.692593  0  0  -0.107046  0  3.715939  0  0  -0.241115  -0.077254  0  3.676383  0
N  N75  1  0.67971114  0.96548341  0.06674583  1  0  -0.173116  0  3.4697  0  0  -0.089442  0  3.692559  0  0  -0.107062  0  3.715904  0  0  -0.24112  -0.077267  0  3.676351  0
O  O76  1  0.09986587  0.75836366  0.70769394  1  0  -0.644823  0  1.962734  0  0  -0.592321  0  2.190761  0  0  -0.615177  0  2.17937  0  0  -0.3292  -0.576747  0  2.198631  0
O  O77  1  0.90013687  0.24163249  0.29230636  1  0  -0.644852  0  1.962687  0  0  -0.592351  0  2.190695  0  0  -0.6152  0  2.17929  0  0  -0.329219  -0.576786  0  2.198583  0
O  O78  1  0.29946342  0.70241070  0.52554489  1  0  -0.652315  0  2.059613  0  0  -0.572631  0  2.326905  0  0  -0.602272  0  2.312482  0  0  -0.317886  -0.551622  0  2.335669  0
O  O79  1  0.70053424  0.29758895  0.47445390  1  0  -0.652321  0  2.059544  0  0  -0.572656  0  2.326852  0  0  -0.6023  0  2.312441  0  0  -0.317915  -0.551645  0  2.335615  0
O  O80  1  0.43809327  0.16813671  0.47714007  1  0  -0.649457  0  2.096548  0  0  -0.585647  0  2.363897  0  0  -0.611933  0  2.350402  0  0  -0.31209  -0.567171  0  2.37284  0
O  O81  1  0.56190594  0.83186874  0.52286181  1  0  -0.649492  0  2.09664  0  0  -0.58565  0  2.363966  0  0  -0.611935  0  2.350469  0  0  -0.312103  -0.567176  0  2.372905  0
O  O82  1  0.20119498  0.09820756  0.51263878  1  0  -0.667366  0  2.079565  0  0  -0.585069  0  2.346359  0  0  -0.614413  0  2.329533  0  0  -0.312309  -0.565022  0  2.358058  0
O  O83  1  0.79881027  0.90178858  0.48736175  1  0  -0.667326  0  2.079677  0  0  -0.585008  0  2.346472  0  0  -0.614352  0  2.329645  0  0  -0.312217  -0.564961  0  2.358169  0
O  O84  1  0.88739301  0.03754126  0.63679252  1  0  -0.849622  0  1.914857  0  0  -0.78988  0  2.126457  0  0  -0.81188  0  2.093646  0  0  -0.584734  -0.774312  0  2.148802  0
O  O85  1  0.11261185  0.96245604  0.36320342  1  0  -0.849667  0  1.914783  0  0  -0.789922  0  2.126445  0  0  -0.811926  0  2.093634  0  0  -0.584772  -0.774354  0  2.148789  0
