# generated using pymatgen
data_CuH3C8N3O4
_symmetry_space_group_name_H-M   'P 1'
_cell_length_a   10.18306435
_cell_length_b   19.33023993
_cell_length_c   19.33208529
_cell_angle_alpha   120.00289390
_cell_angle_beta   89.99868641
_cell_angle_gamma   89.98531740
_symmetry_Int_Tables_number   1
_chemical_formula_structural   CuH3C8N3O4
_chemical_formula_sum   'Cu12 H36 C96 N36 O48'
_cell_volume   3295.43219965
_cell_formula_units_Z   12
loop_
 _symmetry_equiv_pos_site_id
 _symmetry_equiv_pos_as_xyz
  1  'x, y, z'
loop_
 _atom_site_type_symbol
 _atom_site_label
 _atom_site_symmetry_multiplicity
 _atom_site_fract_x
 _atom_site_fract_y
 _atom_site_fract_z
 _atom_site_occupancy
 _atom_site_pbe_bader_charge
 _atom_site_pbe_bader_spin_density
 _atom_site_pbe_cm5_charge
 _atom_site_pbe_ddec_charge
 _atom_site_pbe_ddec_spin_density
 _atom_site_pbe_ddec_sum_bond_order
 _atom_site_pbe_magmom
Cu  Cu0  1  0.64077162  0.49106201  0.03510410  1  1.085623  0.530922  0.689764  0.845884  0.686473  2.223771  0.528
Cu  Cu1  1  0.64075326  0.54397809  0.50890900  1  1.082625  0.529344  0.68955  0.84535  0.684527  2.224571  0.527
Cu  Cu2  1  0.63980191  0.96462426  0.45578484  1  1.058187  -0.000382  0.672871  0.819368  -0.000498  2.228649  -0.002
Cu  Cu3  1  0.85920213  0.50888002  0.54400648  1  1.080531  -0.529362  0.689668  0.845592  -0.684565  2.224088  -0.527
Cu  Cu4  1  0.85924990  0.45599928  0.96498493  1  1.085399  -0.530894  0.689509  0.845293  -0.686512  2.224614  -0.528
Cu  Cu5  1  0.86027861  0.03544125  0.49118904  1  1.058092  0.000462  0.671673  0.817445  0.000607  2.22901  0.002
Cu  Cu6  1  0.35916755  0.50889624  0.96488178  1  1.085597  0.530477  0.689708  0.845658  0.685999  2.224391  0.528
Cu  Cu7  1  0.35925071  0.45599852  0.49110301  1  1.082069  -0.52919  0.68969  0.845771  -0.684346  2.22426  -0.526
Cu  Cu8  1  0.35916314  0.03513908  0.54399776  1  1.084313  -0.529346  0.689658  0.84475  -0.684625  2.224602  -0.527
Cu  Cu9  1  0.14081066  0.49115218  0.45601512  1  1.080261  0.529071  0.689712  0.845569  0.684231  2.224576  0.526
Cu  Cu10  1  0.14070496  0.54401251  0.03506226  1  1.084626  -0.530481  0.689595  0.845599  -0.685987  2.224731  -0.528
Cu  Cu11  1  0.14085363  0.96482119  0.50884842  1  1.085102  0.529468  0.689698  0.844829  0.684693  2.224215  0.527
H  H12  1  0.73888344  0.74393167  0.24092985  1  0.129433  0.000153  0.114138  0.132326  0.000122  0.985018  0.0
H  H13  1  0.73907465  0.49686908  0.25617396  1  0.12762  0.000484  0.114144  0.132199  0.000414  0.984861  0.0
H  H14  1  0.73856757  0.75919864  0.50305023  1  0.132376  0.000336  0.113994  0.132219  0.000301  0.98544  0.0
H  H15  1  0.76101610  0.25608326  0.49700058  1  0.127931  -0.000157  0.114242  0.132484  -0.000127  0.984856  0.0
H  H16  1  0.76109767  0.50313071  0.75929148  1  0.134325  -0.000484  0.114033  0.132013  -0.000416  0.984996  0.0
H  H17  1  0.76133353  0.24081910  0.74385099  1  0.128847  -0.000331  0.11398  0.13226  -0.000295  0.985525  0.0
H  H18  1  0.26092903  0.25606742  0.75924800  1  0.132399  -0.000184  0.114276  0.132305  -0.000175  0.985028  0.0
H  H19  1  0.26087922  0.50317298  0.74389573  1  0.12834  0.000176  0.114268  0.132338  0.000167  0.985217  0.0
H  H20  1  0.26125375  0.24075995  0.49675740  1  0.136142  -0.000489  0.114031  0.132042  -0.000422  0.985431  0.0
H  H21  1  0.23915284  0.74393326  0.50320426  1  0.12864  0.000484  0.114324  0.132474  0.000417  0.985252  0.0
H  H22  1  0.23899468  0.49685196  0.24072480  1  0.134904  0.000183  0.114145  0.132198  0.000179  0.984882  0.0
H  H23  1  0.23878337  0.75921320  0.25597601  1  0.132836  -0.000175  0.11408  0.132021  -0.000168  0.985434  0.0
H  H24  1  0.00996073  0.67931187  0.04637720  1  0.147907  0.000164  0.111948  0.131024  7e-05  1.058632  0.0
H  H25  1  0.01032609  0.36697046  0.32077697  1  0.148271  -2.3e-05  0.11177  0.130876  -4.6e-05  1.059691  0.0
H  H26  1  0.00975946  0.95375752  0.63260162  1  0.155793  -9.2e-05  0.111978  0.131022  -5.9e-05  1.059592  0.0
H  H27  1  0.48992280  0.32063389  0.36701443  1  0.146491  2.4e-05  0.111979  0.131161  4.7e-05  1.058155  0.0
H  H28  1  0.48980169  0.63297212  0.95378893  1  0.146852  -0.000164  0.111742  0.130896  -7e-05  1.059373  0.0
H  H29  1  0.49019171  0.04624078  0.67883566  1  0.176841  9.3e-05  0.111985  0.131135  5.9e-05  1.059552  0.0
H  H30  1  0.98977217  0.32076488  0.95378094  1  0.144579  0.00016  0.111739  0.130879  6.8e-05  1.059323  0.0
H  H31  1  0.98965725  0.63305169  0.67923399  1  0.147512  2.8e-05  0.111798  0.131169  4.8e-05  1.059111  0.0
H  H32  1  0.98992141  0.04631033  0.36716713  1  0.147093  -7.1e-05  0.11203  0.130827  -1.2e-05  1.059289  0.0
H  H33  1  0.51026483  0.67925711  0.63308521  1  0.143187  -2.2e-05  0.111766  0.131145  -4.7e-05  1.059266  0.0
H  H34  1  0.51025433  0.36700123  0.04620668  1  0.14709  -0.000158  0.111802  0.130959  -6.8e-05  1.059251  0.0
H  H35  1  0.51011475  0.95366889  0.32086872  1  0.147068  6.7e-05  0.112118  0.130919  1e-05  1.059268  0.0
H  H36  1  0.02507131  0.91463316  0.25375267  1  0.110641  9e-06  0.113247  0.131654  1.4e-05  0.998158  0.0
H  H37  1  0.02552008  0.33915670  0.08551795  1  0.10324  -0.000242  0.113106  0.13123  -0.000223  0.997502  0.0
H  H38  1  0.02519154  0.74651340  0.66078927  1  0.11461  -0.000226  0.112889  0.131126  -0.000194  0.997694  0.0
H  H39  1  0.47492808  0.08532988  0.33907806  1  0.104756  -1.1e-05  0.113293  0.131825  -1.4e-05  0.997998  0.0
H  H40  1  0.47458992  0.66082257  0.74636240  1  0.111183  0.000229  0.113135  0.131181  0.000193  0.997832  0.0
H  H41  1  0.47470768  0.25347620  0.91426407  1  0.112765  0.000246  0.113078  0.131352  0.000223  0.997837  0.0
H  H42  1  0.97442492  0.08548937  0.74632042  1  0.111346  0.000236  0.11317  0.131219  0.000209  0.997939  0.0
H  H43  1  0.97446127  0.66095678  0.91452999  1  0.094716  -0.000245  0.113258  0.131627  -0.000222  0.997568  0.0
H  H44  1  0.97456000  0.25369722  0.33921124  1  0.110636  0.000227  0.113158  0.131226  0.000194  0.997902  0.0
H  H45  1  0.52563568  0.91451078  0.66083805  1  0.102553  -0.000234  0.113174  0.131345  -0.000208  0.997638  0.0
H  H46  1  0.52542094  0.33907115  0.25358764  1  0.111397  -0.000226  0.113181  0.131346  -0.000194  0.997663  0.0
H  H47  1  0.52544070  0.74633436  0.08548874  1  0.109444  0.000247  0.113179  0.131191  0.000222  0.997754  0.0
C  C48  1  0.02712770  0.79892875  0.14460210  1  0.31602  0.000744  0.0995  0.196896  0.000481  4.119303  0.001
C  C49  1  0.02755858  0.34559919  0.20119103  1  0.303987  0.001508  0.099523  0.196585  0.001048  4.121443  0.001
C  C50  1  0.02688668  0.85567121  0.65421068  1  0.309102  0.00076  0.099822  0.197278  0.000527  4.121724  0.001
C  C51  1  0.47286216  0.20102514  0.34564605  1  0.309516  -0.000859  0.099582  0.19708  -0.000595  4.119053  -0.001
C  C52  1  0.47254648  0.65435624  0.85557574  1  0.30102  -0.001424  0.099566  0.196039  -0.000943  4.121926  -0.001
C  C53  1  0.47301425  0.14432856  0.79852853  1  0.33517  -0.000729  0.099781  0.197352  -0.000518  4.121543  -0.001
C  C54  1  0.97247852  0.20117045  0.85555638  1  0.363608  3.8e-05  0.099327  0.195939  2e-06  4.121815  0.0
C  C55  1  0.97242573  0.65444818  0.79884335  1  0.302372  -0.000175  0.099658  0.197156  -0.000127  4.120768  0.0
C  C56  1  0.97259481  0.14450720  0.34574448  1  0.322753  -0.001481  0.098768  0.195328  -0.000998  4.121749  -0.001
C  C57  1  0.52755035  0.79885089  0.65443026  1  0.32186  0.001529  0.099566  0.196565  0.001058  4.121443  0.001
C  C58  1  0.52748597  0.34560863  0.14440661  1  0.299493  -2e-05  0.099436  0.196325  1e-06  4.121301  0.0
C  C59  1  0.52744445  0.85549710  0.20122982  1  0.361134  0.00012  0.098691  0.194967  6.9e-05  4.122127  0.0
C  C60  1  0.97235770  0.72248684  0.10494254  1  0.01264  -0.001162  -0.079503  -0.163645  -0.00081  3.917034  -0.001
C  C61  1  0.97271436  0.38236228  0.27762197  1  0.049916  -0.000717  -0.079495  -0.163329  -0.000522  3.918863  0.0
C  C62  1  0.97212971  0.89524657  0.61731146  1  0.001247  0.000154  -0.07991  -0.164628  9.6e-05  3.920076  0.0
C  C63  1  0.52756601  0.27748161  0.38241780  1  0.03445  0.000865  -0.079512  -0.163485  0.000625  3.917427  0.0
C  C64  1  0.52743094  0.61759724  0.89524327  1  0.008435  0.001121  -0.07939  -0.163219  0.000784  3.918253  0.001
C  C65  1  0.52782240  0.10475639  0.72206184  1  -0.031742  -0.000264  -0.079995  -0.165028  -0.000172  3.919849  0.0
C  C66  1  0.02734182  0.27758335  0.89522217  1  0.007645  -0.00109  -0.079493  -0.163227  -0.000756  3.918802  0.0
C  C67  1  0.02726701  0.61767390  0.72240600  1  0.050567  0.000844  -0.07962  -0.163935  0.000605  3.918528  0.0
C  C68  1  0.02750893  0.10485149  0.38249227  1  -0.007501  0.000961  -0.079556  -0.163702  0.000681  3.919209  0.0
C  C69  1  0.47267955  0.72243259  0.61770623  1  0.032464  -0.000766  -0.079764  -0.164232  -0.000557  3.9187  0.0
C  C70  1  0.47264767  0.38237395  0.10475139  1  0.01018  0.00102  -0.079363  -0.16303  0.000709  3.918921  0.0
C  C71  1  0.47253120  0.89512941  0.27764674  1  0.000128  -0.000968  -0.079578  -0.16379  -0.000683  3.918745  0.0
C  C72  1  0.87186864  0.70174381  0.14000107  1  -0.005768  0.001818  -0.014066  -0.012266  0.001308  3.980724  0.002
C  C73  1  0.87216285  0.43815585  0.29838229  1  0.022544  0.001082  -0.013582  -0.012003  0.000795  3.981551  0.001
C  C74  1  0.87170113  0.86011051  0.56153147  1  0.049388  -0.000511  -0.012723  -0.008405  -0.000384  3.978459  0.0
C  C75  1  0.62799022  0.29824028  0.43823053  1  0.038661  -0.001769  -0.014104  -0.012188  -0.001286  3.980656  -0.002
C  C76  1  0.62800535  0.56181562  0.86021290  1  0.054868  -0.001232  -0.01383  -0.011882  -0.000861  3.981133  -0.001
C  C77  1  0.62825560  0.13988977  0.70142678  1  -0.008306  0.000599  -0.012838  -0.008433  0.000431  3.978919  0.0
C  C78  1  0.12787311  0.29831622  0.86018932  1  0.013398  0.002391  -0.013777  -0.01231  0.001706  3.981625  0.002
C  C79  1  0.12780968  0.56188713  0.70166682  1  0.021898  -0.002323  -0.013486  -0.011772  -0.001715  3.981092  -0.002
C  C80  1  0.12816144  0.13986933  0.43817317  1  0.05183  -0.00119  -0.014032  -0.012454  -0.000835  3.982829  -0.001
C  C81  1  0.37217579  0.70169634  0.56192488  1  0.035778  0.00115  -0.013534  -0.011683  0.000826  3.980826  0.001
C  C82  1  0.37208798  0.43815881  0.13980231  1  0.053896  -0.002306  -0.013742  -0.012118  -0.001678  3.981865  -0.002
C  C83  1  0.37188684  0.86010504  0.29830837  1  0.041598  0.002355  -0.014063  -0.012414  0.001704  3.982545  0.002
C  C84  1  0.82029309  0.75860151  0.21409285  1  -0.024397  -0.000178  -0.078805  -0.123215  -7.5e-05  3.908786  0.0
C  C85  1  0.82059979  0.45541097  0.24155428  1  -0.012192  -0.000863  -0.079189  -0.122876  -0.000483  3.907847  -0.001
C  C86  1  0.82019373  0.78606817  0.54436587  1  -0.035913  -0.000929  -0.079407  -0.124826  -0.000557  3.910051  -0.001
C  C87  1  0.67960598  0.24141950  0.45550496  1  -0.033849  4.2e-05  -0.07892  -0.123202  -3.2e-05  3.909005  0.0
C  C88  1  0.67956048  0.54458609  0.78613395  1  -0.040905  0.001147  -0.079033  -0.123021  0.00066  3.908182  0.001
C  C89  1  0.67972285  0.21394627  0.75830477  1  -0.019771  0.000838  -0.079275  -0.124464  0.000486  3.909835  0.001
C  C90  1  0.17942214  0.24146736  0.78609801  1  -0.069017  0.000762  -0.079179  -0.122867  0.000489  3.90781  0.001
C  C91  1  0.17935801  0.54463354  0.75850055  1  -0.012211  -0.000846  -0.079287  -0.122942  -0.000562  3.908493  -0.001
C  C92  1  0.17970321  0.21391920  0.45536124  1  -0.034092  0.001131  -0.078979  -0.122885  0.000648  3.908987  0.001
C  C93  1  0.32064645  0.75852572  0.54465427  1  -0.022754  -0.000935  -0.079304  -0.123063  -0.000517  3.908546  -0.001
C  C94  1  0.32052794  0.45539564  0.21387603  1  -0.041045  -0.000801  -0.0792  -0.123104  -0.000534  3.908536  -0.001
C  C95  1  0.32032924  0.78605870  0.24142023  1  -0.071455  0.000737  -0.078931  -0.122717  0.000478  3.908604  0.001
C  C96  1  0.87694031  0.83495996  0.25435046  1  0.05571  -0.000761  -0.010659  -0.004782  -0.000522  3.961338  -0.001
C  C97  1  0.87735150  0.41934787  0.16522775  1  -0.000975  -0.000437  -0.012906  -0.00839  -0.000269  3.965113  0.0
C  C98  1  0.87708144  0.74587897  0.58048463  1  0.026979  0.000559  -0.013142  -0.00779  0.000441  3.964958  0.0
C  C99  1  0.62299795  0.16505922  0.41938839  1  0.004694  0.00078  -0.010507  -0.004853  0.000533  3.961498  0.001
C  C100  1  0.62278581  0.58063949  0.74587070  1  0.043354  0.000322  -0.013021  -0.008533  0.000169  3.965125  0.0
C  C101  1  0.62279043  0.25413653  0.83460279  1  0.052721  -0.000456  -0.013077  -0.008337  -0.00035  3.965789  0.0
C  C102  1  0.12263448  0.16515186  0.74582541  1  0.056424  -0.001336  -0.01288  -0.00835  -0.000967  3.965461  -0.001
C  C103  1  0.12261318  0.58069989  0.83481659  1  -0.00263  0.001352  -0.012844  -0.008247  0.000969  3.965283  0.001
C  C104  1  0.12284199  0.25417880  0.41933139  1  0.030637  0.000325  -0.012574  -0.007406  0.000169  3.964976  0.0
C  C105  1  0.37742929  0.83482992  0.58067893  1  -0.00294  -0.000418  -0.012913  -0.008569  -0.000249  3.96583  0.0
C  C106  1  0.37727119  0.41931528  0.25412485  1  0.045324  0.001407  -0.013048  -0.008544  0.001039  3.965682  0.001
C  C107  1  0.37718703  0.74582396  0.16512014  1  0.05626  -0.001311  -0.012778  -0.007781  -0.000947  3.964964  -0.001
C  C108  1  0.98200275  0.85520071  0.22075557  1  0.001746  0.000321  -0.079837  -0.176959  0.00025  3.895195  0.0
C  C109  1  0.98251704  0.36555445  0.14497679  1  -0.019245  0.001416  -0.079681  -0.175749  0.000892  3.895199  0.001
C  C110  1  0.98205523  0.77950091  0.63434103  1  -0.02128  0.001091  -0.080358  -0.177639  0.000713  3.898218  0.001
C  C111  1  0.51797477  0.14476342  0.36553335  1  -0.006705  -0.000427  -0.079885  -0.177081  -0.000318  3.895813  0.0
C  C112  1  0.51759936  0.63441651  0.77941128  1  -0.031452  -0.001381  -0.079574  -0.175345  -0.000913  3.894851  -0.001
C  C113  1  0.51782484  0.22050828  0.85483134  1  -0.007915  -0.001024  -0.080702  -0.17775  -0.000624  3.898983  -0.001
C  C114  1  0.01748955  0.14493014  0.77937542  1  -0.044921  -0.000754  -0.07937  -0.175008  -0.000453  3.895649  -0.001
C  C115  1  0.01746825  0.63451693  0.85506668  1  -0.008261  0.000616  -0.079873  -0.176578  0.000345  3.895969  0.001
C  C116  1  0.01763052  0.22066269  0.36561545  1  -0.030735  -0.001386  -0.079543  -0.175418  -0.000917  3.894759  -0.001
C  C117  1  0.48256149  0.85506748  0.63446080  1  -0.019202  0.001429  -0.079546  -0.17549  0.000925  3.896148  0.001
C  C118  1  0.48241935  0.36552214  0.22056936  1  -0.033639  0.00079  -0.0797  -0.175861  0.000492  3.895682  0.001
C  C119  1  0.48237950  0.77936860  0.14493999  1  -0.042199  -0.000709  -0.079481  -0.175213  -0.000398  3.895015  -0.001
C  C120  1  0.82301084  0.61769553  0.09472438  1  1.530734  -0.001133  0.226406  0.601813  -0.000781  4.10297  -0.002
C  C121  1  0.82322722  0.47693473  0.38241338  1  1.53511  -0.001579  0.226327  0.601775  -0.001093  4.104233  -0.002
C  C122  1  0.82220388  0.90555220  0.52286029  1  1.527668  -0.000307  0.226094  0.598508  -0.0002  4.107108  0.0
C  C123  1  0.67687173  0.38230513  0.47699473  1  1.535299  0.001443  0.226086  0.601445  0.000997  4.103134  0.002
C  C124  1  0.67691850  0.52303323  0.90545694  1  1.530309  0.001211  0.226669  0.60174  0.000876  4.104112  0.002
C  C125  1  0.67781643  0.09448322  0.61734711  1  1.529616  0.000314  0.226286  0.598699  0.000205  4.105775  0.0
C  C126  1  0.17676430  0.38235887  0.90541679  1  1.556608  -0.00098  0.226327  0.601982  -0.000659  4.10356  -0.001
C  C127  1  0.17674139  0.52307501  0.61762758  1  1.535543  0.001272  0.225941  0.601309  0.000872  4.104373  0.002
C  C128  1  0.17721673  0.09461780  0.47692638  1  1.528981  0.001431  0.226198  0.601209  0.001028  4.103608  0.002
C  C129  1  0.32329428  0.61765236  0.52310568  1  1.536744  -0.001572  0.225912  0.60144  -0.001093  4.103678  -0.002
C  C130  1  0.32316108  0.47696576  0.09456372  1  1.530858  0.000915  0.226546  0.601805  0.000658  4.104135  0.001
C  C131  1  0.32280823  0.90533762  0.38230430  1  1.52553  -0.001147  0.226492  0.601981  -0.000809  4.104523  -0.002
C  C132  1  0.82388267  0.89624515  0.33418643  1  1.521314  -0.000105  0.219272  0.57515  -6.8e-05  4.146765  0.0
C  C133  1  0.82415321  0.43766370  0.10396995  1  1.535359  -0.001396  0.219048  0.578066  -0.001103  4.143489  -0.002
C  C134  1  0.82398257  0.66628631  0.56223917  1  1.534814  -0.00131  0.219149  0.57766  -0.001033  4.141004  -0.002
C  C135  1  0.67614475  0.10378353  0.43796024  1  1.532169  0.000108  0.219125  0.57509  7.3e-05  4.145624  0.0
C  C136  1  0.67595184  0.56232145  0.66628874  1  1.534573  0.001403  0.218985  0.577758  0.001097  4.143638  0.002
C  C137  1  0.67592862  0.33371424  0.89595823  1  1.527161  0.001301  0.219209  0.578059  0.001038  4.142256  0.002
C  C138  1  0.17578441  0.10390734  0.66621050  1  1.523513  0.001168  0.219032  0.577433  0.000937  4.143885  0.002
C  C139  1  0.17574862  0.56233850  0.89606407  1  1.536964  -0.001184  0.219287  0.578114  -0.000952  4.143172  -0.002
C  C140  1  0.17599389  0.33376399  0.43765778  1  1.535563  0.001402  0.218831  0.576998  0.001098  4.144685  0.002
C  C141  1  0.32423929  0.89607570  0.56231907  1  1.537587  -0.001383  0.21939  0.578534  -0.001086  4.142957  -0.002
C  C142  1  0.32415033  0.43767684  0.33373779  1  1.533893  -0.001193  0.219166  0.578019  -0.000951  4.14294  -0.002
C  C143  1  0.32406947  0.66623490  0.10387640  1  1.523047  0.001174  0.218905  0.577547  0.000952  4.144487  0.002
N  N144  1  0.12592697  0.81126170  0.10106645  1  -0.408919  0.000165  -0.15825  -0.228842  0.00011  3.265794  0.0
N  N145  1  0.12640318  0.28971832  0.18886082  1  -0.404013  0.000491  -0.158795  -0.229689  0.000337  3.265701  0.0
N  N146  1  0.12578223  0.89925720  0.71001032  1  -0.379295  0.000334  -0.158646  -0.229205  0.000223  3.264542  0.0
N  N147  1  0.37407687  0.18866972  0.28974193  1  -0.376761  -0.000207  -0.158624  -0.229439  -0.000145  3.26505  0.0
N  N148  1  0.37369139  0.71021667  0.89913138  1  -0.386947  -0.000466  -0.159252  -0.229587  -0.000311  3.265937  0.0
N  N149  1  0.37417318  0.10071989  0.81075222  1  -0.386032  -0.000313  -0.158411  -0.229087  -0.000214  3.263617  0.0
N  N150  1  0.87360558  0.18889499  0.89911009  1  -0.410685  -0.00016  -0.159021  -0.229683  -0.000104  3.265398  0.0
N  N151  1  0.87356935  0.71032107  0.81114946  1  -0.405004  0.000102  -0.158954  -0.22963  6.1e-05  3.264979  0.0
N  N152  1  0.87371005  0.10094587  0.28994500  1  -0.382684  -0.000482  -0.158367  -0.229013  -0.000325  3.266184  0.0
N  N153  1  0.62639065  0.81114879  0.71027807  1  -0.403193  0.000503  -0.158728  -0.22928  0.000343  3.266447  0.0
N  N154  1  0.62636562  0.28974153  0.10084730  1  -0.400927  0.000163  -0.158735  -0.229162  0.000104  3.265254  0.0
N  N155  1  0.62631891  0.89907436  0.18900339  1  -0.407894  -0.000122  -0.158313  -0.228729  -7.8e-05  3.266562  0.0
N  N156  1  0.20057640  0.86919320  0.13183280  1  -0.268632  5.2e-05  0.144117  0.365896  2.9e-05  4.274218  0.0
N  N157  1  0.20089161  0.26242194  0.13082929  1  -0.291547  8.4e-05  0.144624  0.366593  6.2e-05  4.273426  0.0
N  N158  1  0.20029319  0.86850984  0.73728236  1  -0.305224  -0.0  0.144364  0.366909  -4e-06  4.27254  0.0
N  N159  1  0.29938219  0.13075155  0.26258523  1  -0.322749  -5.8e-05  0.144471  0.366306  -2.9e-05  4.273443  0.0
N  N160  1  0.29921277  0.73751047  0.86838389  1  -0.295802  -6e-05  0.14491  0.366781  -3.8e-05  4.274551  0.0
N  N161  1  0.29963677  0.13148349  0.86877567  1  -0.26333  -1.8e-05  0.144443  0.366949  -2e-05  4.273281  0.0
N  N162  1  0.79907696  0.13088956  0.86837314  1  -0.26332  5.8e-05  0.145273  0.367461  3.5e-05  4.273703  0.0
N  N163  1  0.79901121  0.73758201  0.86915332  1  -0.289655  -5.2e-05  0.144461  0.366253  -2.2e-05  4.274454  0.0
N  N164  1  0.79926000  0.13162207  0.26257134  1  -0.301743  -6.3e-05  0.144049  0.366268  -3.8e-05  4.275431  0.0
N  N165  1  0.70091150  0.86913737  0.73752786  1  -0.294281  7.5e-05  0.144977  0.366903  5.1e-05  4.27366  0.0
N  N166  1  0.70090217  0.26248169  0.13159290  1  -0.279126  -6.7e-05  0.144883  0.366777  -4.6e-05  4.273814  0.0
N  N167  1  0.70077379  0.86841004  0.13096035  1  -0.256482  5e-05  0.144282  0.366261  2.2e-05  4.275268  0.0
N  N168  1  0.28035766  0.91707397  0.14943616  1  0.214552  1.6e-05  -0.07273  -0.199988  5e-06  2.586288  0.0
N  N169  1  0.28048806  0.23204774  0.08281192  1  0.230597  0.000387  -0.073157  -0.200544  0.000255  2.584825  0.0
N  N170  1  0.27990644  0.85086414  0.76765547  1  0.221401  0.000372  -0.073071  -0.201184  0.000244  2.58495  0.0
N  N171  1  0.21956781  0.08288333  0.23230960  1  0.235915  -7.1e-05  -0.072837  -0.2002  -4.4e-05  2.585995  0.0
N  N172  1  0.21963543  0.76787977  0.85074253  1  0.220754  -0.000345  -0.072936  -0.200416  -0.000221  2.586428  0.0
N  N173  1  0.22003456  0.14913488  0.91678334  1  0.184953  -0.000359  -0.07311  -0.201115  -0.000238  2.586531  0.0
N  N174  1  0.71945186  0.08292361  0.85074734  1  0.208408  -0.000337  -0.073411  -0.201036  -0.000223  2.586923  0.0
N  N175  1  0.71936468  0.76791614  0.91713420  1  0.229432  0.000272  -0.072983  -0.200443  0.000182  2.586656  0.0
N  N176  1  0.71968408  0.14920720  0.23214602  1  0.220567  -0.000373  -0.072755  -0.200424  -0.000239  2.587283  0.0
N  N177  1  0.78056283  0.91711366  0.76786615  1  0.232775  0.0004  -0.07347  -0.200962  0.000264  2.585385  0.0
N  N178  1  0.78055708  0.23214140  0.14923938  1  0.217333  0.000337  -0.073475  -0.201131  0.000225  2.585915  0.0
N  N179  1  0.78036223  0.85083271  0.08295208  1  0.200093  -0.000301  -0.07301  -0.200558  -0.000199  2.586767  0.0
O  O180  1  0.70132364  0.60473738  0.09734735  1  -1.083558  0.092539  -0.296474  -0.485828  0.060382  2.282476  0.084
O  O181  1  0.70152108  0.49252124  0.39534846  1  -1.089112  0.092542  -0.296434  -0.485795  0.060415  2.2834  0.084
O  O182  1  0.70034265  0.90312513  0.50823691  1  -1.080367  0.000161  -0.291732  -0.477809  0.0001  2.285108  0.0
O  O183  1  0.79856640  0.39522968  0.49259578  1  -1.090636  -0.092505  -0.296248  -0.485746  -0.060397  2.282698  -0.084
O  O184  1  0.79863226  0.50748454  0.90287502  1  -1.086902  -0.092578  -0.296552  -0.485655  -0.060428  2.283575  -0.084
O  O185  1  0.79972833  0.09692962  0.60515022  1  -1.076961  -0.000146  -0.292061  -0.477919  -9e-05  2.283206  0.0
O  O186  1  0.29845838  0.39529821  0.90275470  1  -1.086595  0.092442  -0.296437  -0.485939  0.060356  2.282611  0.084
O  O187  1  0.29842987  0.50743653  0.60468653  1  -1.089908  -0.092434  -0.296252  -0.485775  -0.060375  2.283112  -0.084
O  O188  1  0.29890500  0.09744252  0.49264920  1  -1.083095  -0.092649  -0.296365  -0.485429  -0.060456  2.282594  -0.084
O  O189  1  0.20160649  0.60472013  0.50748024  1  -1.089529  0.09248  -0.29622  -0.485679  0.060391  2.282869  0.084
O  O190  1  0.20145615  0.49258074  0.09722626  1  -1.086143  -0.092382  -0.296405  -0.485768  -0.060328  2.282987  -0.084
O  O191  1  0.20115665  0.90248826  0.39519371  1  -1.077093  0.092499  -0.296434  -0.48571  0.060384  2.283762  0.084
O  O192  1  0.90962643  0.56388164  0.05389676  1  -1.122313  -0.073916  -0.31691  -0.558512  -0.048709  2.46316  -0.068
O  O193  1  0.90976167  0.48991319  0.43623664  1  -1.12108  -0.07587  -0.316844  -0.558377  -0.049992  2.465663  -0.068
O  O194  1  0.90897765  0.94603327  0.50963030  1  -1.117185  -0.000873  -0.31362  -0.551719  -0.000587  2.464984  0.0
O  O195  1  0.59028818  0.43611995  0.48993422  1  -1.1195  0.075618  -0.316658  -0.558427  0.049832  2.464287  0.068
O  O196  1  0.59034270  0.51000481  0.94624833  1  -1.121367  0.074178  -0.316996  -0.558545  0.048851  2.465306  0.068
O  O197  1  0.59108537  0.05399457  0.56360820  1  -1.120183  0.000883  -0.313652  -0.552001  0.000592  2.464818  0.0
O  O198  1  0.09019977  0.43620399  0.94625353  1  -1.124421  -0.073856  -0.316957  -0.558675  -0.048668  2.465517  -0.068
O  O199  1  0.09020694  0.51011824  0.56380332  1  -1.120897  0.075595  -0.316729  -0.558263  0.049816  2.465242  0.068
O  O200  1  0.09081527  0.05364227  0.48979097  1  -1.122001  0.075047  -0.316865  -0.557297  0.049415  2.469565  0.068
O  O201  1  0.40983660  0.56379543  0.51010795  1  -1.122187  -0.07581  -0.316807  -0.558443  -0.049948  2.465575  -0.068
O  O202  1  0.40972413  0.48993339  0.05371931  1  -1.122031  0.073895  -0.31692  -0.55843  0.048679  2.464959  0.068
O  O203  1  0.40921509  0.94632627  0.43614237  1  -1.123286  -0.074794  -0.317028  -0.557885  -0.049279  2.469461  -0.068
O  O204  1  0.71481283  0.88023123  0.35552885  1  -1.091361  6.7e-05  -0.300602  -0.496854  1.7e-05  2.361771  0.0
O  O205  1  0.71427036  0.47435971  0.11927165  1  -1.092222  0.095343  -0.304122  -0.504488  0.06215  2.359678  0.086
O  O206  1  0.71412283  0.64484162  0.52553276  1  -1.094497  0.09559  -0.303969  -0.503485  0.062262  2.358224  0.086
O  O207  1  0.78525552  0.11982979  0.47531560  1  -1.085971  -7.8e-05  -0.300951  -0.496844  -2.5e-05  2.360073  0.0
O  O208  1  0.78584367  0.52562466  0.64488606  1  -1.09445  -0.095237  -0.303972  -0.503758  -0.06202  2.35964  -0.086
O  O209  1  0.78578067  0.35515079  0.88069515  1  -1.094326  -0.095702  -0.304023  -0.503868  -0.062391  2.358574  -0.086
O  O210  1  0.28565378  0.11925276  0.64486803  1  -1.091274  -0.094862  -0.304092  -0.503828  -0.061841  2.359823  -0.085
O  O211  1  0.28559711  0.52561179  0.88073824  1  -1.092654  0.095183  -0.304232  -0.504382  0.062079  2.35942  0.086
O  O212  1  0.28583695  0.35514627  0.47438004  1  -1.094567  -0.095248  -0.304033  -0.503613  -0.062032  2.359619  -0.086
O  O213  1  0.21436432  0.88072558  0.52564067  1  -1.091506  0.094947  -0.304328  -0.504514  0.061882  2.359845  0.085
O  O214  1  0.21429973  0.47442737  0.35516017  1  -1.093387  0.095173  -0.304141  -0.503949  0.062017  2.359001  0.086
O  O215  1  0.21422625  0.64485605  0.11920076  1  -1.093706  -0.095176  -0.304061  -0.504028  -0.062057  2.359856  -0.086
O  O216  1  0.89174878  0.95939711  0.37446004  1  -1.108091  -0.000314  -0.300963  -0.514659  -0.000231  2.419787  0.0
O  O217  1  0.89207179  0.41535700  0.04089170  1  -1.107494  -0.081854  -0.303915  -0.521477  -0.05349  2.420962  -0.073
O  O218  1  0.89192240  0.62553845  0.58457916  1  -1.10979  -0.081866  -0.303853  -0.521557  -0.053543  2.418274  -0.073
O  O219  1  0.60834209  0.04063005  0.41508919  1  -1.101486  0.000319  -0.300578  -0.514663  0.000234  2.420933  0.0
O  O220  1  0.60803555  0.58462542  0.62552515  1  -1.110188  0.081771  -0.303877  -0.521677  0.053491  2.42033  0.073
O  O221  1  0.60799379  0.37445068  0.95905930  1  -1.114307  0.081891  -0.303903  -0.521567  0.053537  2.419271  0.073
O  O222  1  0.10788982  0.04084641  0.62539896  1  -1.114033  0.081402  -0.303755  -0.521112  0.053246  2.420549  0.073
O  O223  1  0.10779469  0.58465162  0.95913798  1  -1.107864  -0.081514  -0.304075  -0.521609  -0.053265  2.419862  -0.073
O  O224  1  0.10809922  0.37453916  0.41535048  1  -1.110361  0.081801  -0.303949  -0.521547  0.053522  2.421106  0.073
O  O225  1  0.39208715  0.95916262  0.58458421  1  -1.108717  -0.081772  -0.303906  -0.521684  -0.053474  2.420557  -0.073
O  O226  1  0.39206270  0.41534887  0.37448813  1  -1.110349  -0.081499  -0.303915  -0.521748  -0.05331  2.419607  -0.073
O  O227  1  0.39204163  0.62544370  0.04081972  1  -1.113132  0.081426  -0.303816  -0.521403  0.053243  2.420664  0.073
