# generated using pymatgen
data_ZnH28C32(N2O3)2
_symmetry_space_group_name_H-M   'P 1'
_cell_length_a   7.18657634
_cell_length_b   13.82147541
_cell_length_c   14.41581969
_cell_angle_alpha   89.99989590
_cell_angle_beta   101.86260553
_cell_angle_gamma   89.99970910
_symmetry_Int_Tables_number   1
_chemical_formula_structural   ZnH28C32(N2O3)2
_chemical_formula_sum   'Zn2 H56 C64 N8 O12'
_cell_volume   1401.32942976
_cell_formula_units_Z   2
loop_
 _symmetry_equiv_pos_site_id
 _symmetry_equiv_pos_as_xyz
  1  'x, y, z'
loop_
 _atom_site_type_symbol
 _atom_site_label
 _atom_site_symmetry_multiplicity
 _atom_site_fract_x
 _atom_site_fract_y
 _atom_site_fract_z
 _atom_site_occupancy
 _atom_site_hle17_bader_spin_density
 _atom_site_hle17_ddec_charge
 _atom_site_hle17_ddec_spin_density
 _atom_site_hle17_ddec_sum_bond_order
 _atom_site_hle17_magmom
 _atom_site_hse06_10hf_bader_spin_density
 _atom_site_hse06_10hf_ddec_charge
 _atom_site_hse06_10hf_ddec_spin_density
 _atom_site_hse06_10hf_ddec_sum_bond_order
 _atom_site_hse06_10hf_magmom
 _atom_site_hse06_bader_spin_density
 _atom_site_hse06_ddec_charge
 _atom_site_hse06_ddec_spin_density
 _atom_site_hse06_ddec_sum_bond_order
 _atom_site_hse06_magmom
 _atom_site_pbe_bader_spin_density
 _atom_site_pbe_cm5_charge
 _atom_site_pbe_ddec_charge
 _atom_site_pbe_ddec_spin_density
 _atom_site_pbe_ddec_sum_bond_order
 _atom_site_pbe_magmom
Zn  Zn0  1  0.25000253  0.25581872  0.25000194  1  0  0.985498  0  1.951793  0  0  0.797311  0  2.439439  0  0  0.842712  0  2.384663  0  0  0.692352  0.765745  0  2.477008  0
Zn  Zn1  1  0.74999774  0.74418151  0.75000138  1  0  0.985552  0  1.951765  0  0  0.797337  0  2.439425  0  0  0.842746  0  2.384646  0  0  0.692378  0.765767  0  2.47699  0
H  H2  1  0.81880589  0.27124114  0.17214197  1  0  0.106004  0  0.940713  0  0  0.114438  0  1.00721  0  0  0.117184  0  1.003169  0  0  0.142291  0.112338  0  1.01021  0
H  H3  1  0.68120422  0.27124335  0.32786257  1  0  0.105956  0  0.940732  0  0  0.11436  0  1.007261  0  0  0.117106  0  1.003222  0  0  0.142274  0.112262  0  1.010259  0
H  H4  1  0.18120005  0.72876126  0.82785914  1  0  0.105964  0  0.940726  0  0  0.114355  0  1.007285  0  0  0.117098  0  1.00325  0  0  0.142272  0.112258  0  1.010281  0
H  H5  1  0.31880029  0.72875761  0.67213840  1  0  0.106052  0  0.940699  0  0  0.114406  0  1.007268  0  0  0.117151  0  1.00323  0  0  0.142293  0.112309  0  1.010262  0
H  H6  1  0.18247528  0.04034192  0.13635164  1  0  0.11775  0  0.961035  0  0  0.125336  0  1.022819  0  0  0.128418  0  1.021072  0  0  0.12077  0.123129  0  1.024149  0
H  H7  1  0.31753922  0.04034515  0.36365080  1  0  0.117773  0  0.961031  0  0  0.125364  0  1.022808  0  0  0.128447  0  1.02106  0  0  0.120766  0.123158  0  1.024134  0
H  H8  1  0.81752925  0.95965759  0.86365141  1  0  0.117725  0  0.960963  0  0  0.125309  0  1.022747  0  0  0.12839  0  1.021  0  0  0.120739  0.123102  0  1.024073  0
H  H9  1  0.68246527  0.95965581  0.63634809  1  0  0.117762  0  0.961005  0  0  0.12535  0  1.022783  0  0  0.128434  0  1.021035  0  0  0.12076  0.123146  0  1.024111  0
H  H10  1  0.81361977  0.99938568  0.03738585  1  0  0.117147  0  0.960696  0  0  0.126477  0  1.024463  0  0  0.129023  0  1.023366  0  0  0.126057  0.124621  0  1.025375  0
H  H11  1  0.68639514  0.99938472  0.46261095  1  0  0.117237  0  0.960615  0  0  0.126544  0  1.024418  0  0  0.129088  0  1.023324  0  0  0.126082  0.124688  0  1.025329  0
H  H12  1  0.18638190  0.00061600  0.96261483  1  0  0.117177  0  0.960666  0  0  0.126524  0  1.024421  0  0  0.129069  0  1.023325  0  0  0.126069  0.124669  0  1.025336  0
H  H13  1  0.31361075  0.00061406  0.53738392  1  0  0.117167  0  0.960702  0  0  0.126503  0  1.024467  0  0  0.129047  0  1.023372  0  0  0.126059  0.124646  0  1.025378  0
H  H14  1  0.49494847  0.18809349  0.10990651  1  0  0.087741  0  0.947682  0  0  0.100696  0  1.01342  0  0  0.101886  0  1.012839  0  0  0.111498  0.099686  0  1.014048  0
H  H15  1  0.00506440  0.18809170  0.39009411  1  0  0.087752  0  0.947632  0  0  0.100709  0  1.013371  0  0  0.10189  0  1.012788  0  0  0.111481  0.099698  0  1.013997  0
H  H16  1  0.50505462  0.81190964  0.89009431  1  0  0.087713  0  0.947651  0  0  0.10065  0  1.013409  0  0  0.101828  0  1.012821  0  0  0.111461  0.09964  0  1.014039  0
H  H17  1  0.99494009  0.81190781  0.60990408  1  0  0.08771  0  0.947665  0  0  0.100653  0  1.013421  0  0  0.101839  0  1.012835  0  0  0.111476  0.099642  0  1.014049  0
H  H18  1  0.49135195  0.07858860  0.04383221  1  0  0.08736  0  0.946666  0  0  0.096598  0  1.018397  0  0  0.099234  0  1.015192  0  0  0.111352  0.094668  0  1.020746  0
H  H19  1  0.00866067  0.07858596  0.45616581  1  0  0.087452  0  0.946697  0  0  0.09668  0  1.01841  0  0  0.099306  0  1.015206  0  0  0.111408  0.094743  0  1.020768  0
H  H20  1  0.50865115  0.92141380  0.95617001  1  0  0.087392  0  0.946695  0  0  0.096639  0  1.01839  0  0  0.099261  0  1.01518  0  0  0.111365  0.094708  0  1.020743  0
H  H21  1  0.99134523  0.92141428  0.54383113  1  0  0.087403  0  0.946627  0  0  0.096623  0  1.018349  0  0  0.09925  0  1.015148  0  0  0.111377  0.094692  0  1.0207  0
H  H22  1  0.37242280  0.24178755  0.95436343  1  0  0.111581  0  0.942131  0  0  0.130884  0  0.999797  0  0  0.131504  0  1.001698  0  0  0.107278  0.130349  0  0.998605  0
H  H23  1  0.12759138  0.24178537  0.54563636  1  0  0.111626  0  0.942085  0  0  0.130951  0  0.99969  0  0  0.131566  0  1.001593  0  0  0.107351  0.130412  0  0.998503  0
H  H24  1  0.62758029  0.75821413  0.04563739  1  0  0.111568  0  0.942171  0  0  0.130879  0  0.999829  0  0  0.131501  0  1.00173  0  0  0.107283  0.130344  0  0.998639  0
H  H25  1  0.87241167  0.75821848  0.45435961  1  0  0.111572  0  0.942145  0  0  0.130843  0  0.999827  0  0  0.131466  0  1.001727  0  0  0.107269  0.130311  0  0.998638  0
H  H26  1  0.61096539  0.27579372  0.97508301  1  0  0.107145  0  0.940951  0  0  0.123239  0  1.004007  0  0  0.123992  0  1.005265  0  0  0.10666  0.122631  0  1.003225  0
H  H27  1  0.88904511  0.27579088  0.52491654  1  0  0.107212  0  0.940936  0  0  0.123232  0  1.004072  0  0  0.123981  0  1.005337  0  0  0.106683  0.122621  0  1.003293  0
H  H28  1  0.38903627  0.72420652  0.02491559  1  0  0.107164  0  0.940968  0  0  0.123233  0  1.004061  0  0  0.123986  0  1.00532  0  0  0.106643  0.122623  0  1.003279  0
H  H29  1  0.11095514  0.72420501  0.47508400  1  0  0.107165  0  0.940915  0  0  0.123183  0  1.004036  0  0  0.123937  0  1.005292  0  0  0.106649  0.122577  0  1.003255  0
H  H30  1  0.51489214  0.35763906  0.84898883  1  0  0.086999  0  0.972457  0  0  0.097515  0  1.035953  0  0  0.098962  0  1.036972  0  0  0.101389  0.096465  0  1.035275  0
H  H31  1  0.98510465  0.35763718  0.65100711  1  0  0.087045  0  0.972522  0  0  0.097515  0  1.036051  0  0  0.098957  0  1.037077  0  0  0.101401  0.096466  0  1.035373  0
H  H32  1  0.48511095  0.64236117  0.15101200  1  0  0.086996  0  0.972491  0  0  0.097507  0  1.035993  0  0  0.098952  0  1.037011  0  0  0.101396  0.096452  0  1.035318  0
H  H33  1  0.01489984  0.64236089  0.34899108  1  0  0.086974  0  0.97249  0  0  0.097512  0  1.035958  0  0  0.098957  0  1.036978  0  0  0.101398  0.096459  0  1.035283  0
H  H34  1  0.49726117  0.44407863  0.69747148  1  0  0.105505  0  0.942908  0  0  0.116568  0  0.99831  0  0  0.118849  0  0.99834  0  0  0.105837  0.114888  0  0.99844  0
H  H35  1  0.00273515  0.44408135  0.80252338  1  0  0.105577  0  0.942767  0  0  0.116603  0  0.998212  0  0  0.118885  0  0.998243  0  0  0.105858  0.114924  0  0.99834  0
H  H36  1  0.50275045  0.55592161  0.30253020  1  0  0.105502  0  0.942985  0  0  0.116581  0  0.998377  0  0  0.118863  0  0.998405  0  0  0.105808  0.114899  0  0.998513  0
H  H37  1  0.99724944  0.55592105  0.19747281  1  0  0.105493  0  0.943018  0  0  0.11654  0  0.998437  0  0  0.11882  0  0.998469  0  0  0.105804  0.114859  0  0.998573  0
H  H38  1  0.48097326  0.35163714  0.54777310  1  0  0.095817  0  0.972237  0  0  0.104428  0  1.037367  0  0  0.106498  0  1.036911  0  0  0.101452  0.102828  0  1.037858  0
H  H39  1  0.01902406  0.35163592  0.95222272  1  0  0.095701  0  0.972267  0  0  0.104345  0  1.037381  0  0  0.106407  0  1.036934  0  0  0.101408  0.102749  0  1.037859  0
H  H40  1  0.51903409  0.64836454  0.45222746  1  0  0.095709  0  0.972463  0  0  0.104385  0  1.037514  0  0  0.10643  0  1.037087  0  0  0.101417  0.102804  0  1.037981  0
H  H41  1  0.98095627  0.64836214  0.04777443  1  0  0.095822  0  0.972281  0  0  0.104411  0  1.037438  0  0  0.1065  0  1.036953  0  0  0.101442  0.102812  0  1.037927  0
H  H42  1  0.48257706  0.17178730  0.55044450  1  0  0.078205  0  0.975711  0  0  0.087449  0  1.039517  0  0  0.08913  0  1.040952  0  0  0.091595  0.086254  0  1.038601  0
H  H43  1  0.01742366  0.17178610  0.94955406  1  0  0.078131  0  0.975657  0  0  0.087325  0  1.03952  0  0  0.089007  0  1.040954  0  0  0.091548  0.086133  0  1.038597  0
H  H44  1  0.51742603  0.82821438  0.44955632  1  0  0.078152  0  0.975746  0  0  0.087387  0  1.03956  0  0  0.089069  0  1.040993  0  0  0.091592  0.086192  0  1.038647  0
H  H45  1  0.98257229  0.82821197  0.05044189  1  0  0.078148  0  0.975695  0  0  0.087413  0  1.039488  0  0  0.089095  0  1.040921  0  0  0.091557  0.086214  0  1.038577  0
H  H46  1  0.50628711  0.08426680  0.70455580  1  0  0.084268  0  0.990439  0  0  0.089487  0  1.063024  0  0  0.092623  0  1.061087  0  0  0.095517  0.087246  0  1.064428  0
H  H47  1  0.99371552  0.08426607  0.79544260  1  0  0.084259  0  0.990411  0  0  0.08946  0  1.063015  0  0  0.092598  0  1.061079  0  0  0.095518  0.08722  0  1.064421  0
H  H48  1  0.49370887  0.91573416  0.29544431  1  0  0.084282  0  0.990441  0  0  0.089503  0  1.063032  0  0  0.092639  0  1.061094  0  0  0.095519  0.087261  0  1.064437  0
H  H49  1  0.00630033  0.91573272  0.20455465  1  0  0.084225  0  0.990463  0  0  0.089444  0  1.063056  0  0  0.092582  0  1.061117  0  0  0.095459  0.087203  0  1.064461  0
H  H50  1  0.35338776  0.50792889  0.52772979  1  0  0.108517  0  0.97104  0  0  0.115044  0  1.039967  0  0  0.119285  0  1.0361  0  0  0.104828  0.111901  0  1.042971  0
H  H51  1  0.14660222  0.50793453  0.97227126  1  0  0.108523  0  0.971044  0  0  0.115058  0  1.039952  0  0  0.1193  0  1.036084  0  0  0.104834  0.111914  0  1.042956  0
H  H52  1  0.64660112  0.49206845  0.47227030  1  0  0.108511  0  0.971043  0  0  0.115046  0  1.039962  0  0  0.119288  0  1.036093  0  0  0.104822  0.111899  0  1.042973  0
H  H53  1  0.85338666  0.49206643  0.02772883  1  0  0.108523  0  0.971012  0  0  0.115004  0  1.039987  0  0  0.119245  0  1.036122  0  0  0.104852  0.111862  0  1.042985  0
H  H54  1  0.81927917  0.40517094  0.36510942  1  0  0.094718  0  0.960013  0  0  0.105946  0  1.01976  0  0  0.109447  0  1.017046  0  0  0.101102  0.103432  0  1.021772  0
H  H55  1  0.68070813  0.40517134  0.13489050  1  0  0.094669  0  0.960132  0  0  0.105943  0  1.019815  0  0  0.109441  0  1.017107  0  0  0.101107  0.103429  0  1.021828  0
H  H56  1  0.18070828  0.59482640  0.63488983  1  0  0.094683  0  0.960115  0  0  0.105962  0  1.019784  0  0  0.10946  0  1.017076  0  0  0.101116  0.103445  0  1.021795  0
H  H57  1  0.31928074  0.59482961  0.86510958  1  0  0.09471  0  0.960031  0  0  0.105937  0  1.019776  0  0  0.109438  0  1.017062  0  0  0.101105  0.103425  0  1.021786  0
C  C58  1  0.86931571  0.20299223  0.14984371  1  0  0.173401  0  3.63583  0  0  0.109864  0  3.899615  0  0  0.123544  0  3.912468  0  0  0.149748  0.100991  0  3.890797  0
C  C59  1  0.63069655  0.20299453  0.35015908  1  0  0.173613  0  3.63594  0  0  0.110109  0  3.89972  0  0  0.123787  0  3.912577  0  0  0.149818  0.101236  0  3.890901  0
C  C60  1  0.13068597  0.79701307  0.85015836  1  0  0.173462  0  3.636142  0  0  0.109926  0  3.899971  0  0  0.123609  0  3.912833  0  0  0.149722  0.101045  0  3.891153  0
C  C61  1  0.36930796  0.79700643  0.64984119  1  0  0.173389  0  3.635941  0  0  0.109919  0  3.899712  0  0  0.1236  0  3.91257  0  0  0.14972  0.101047  0  3.890885  0
C  C62  1  0.05257411  0.08256046  0.12852695  1  0  -0.013749  0  3.737631  0  0  -0.043631  0  4.000369  0  0  -0.042035  0  4.018383  0  0  -0.001939  -0.044706  0  3.988272  0
C  C63  1  0.44743850  0.08256188  0.37147522  1  0  -0.013796  0  3.737788  0  0  -0.043695  0  4.000555  0  0  -0.042093  0  4.018551  0  0  -0.001954  -0.044773  0  3.988461  0
C  C64  1  0.94743041  0.91744050  0.87147541  1  0  -0.013686  0  3.737642  0  0  -0.043582  0  4.000376  0  0  -0.041977  0  4.018383  0  0  -0.001907  -0.044657  0  3.988277  0
C  C65  1  0.55256600  0.91743836  0.62852505  1  0  -0.013816  0  3.737734  0  0  -0.043716  0  4.000499  0  0  -0.042113  0  4.018499  0  0  -0.001977  -0.044803  0  3.988411  0
C  C66  1  0.87168052  0.06095319  0.07994186  1  0  -0.052817  0  3.661788  0  0  -0.095367  0  3.919417  0  0  -0.092821  0  3.937075  0  0  0.006919  -0.097033  0  3.907601  0
C  C67  1  0.62833327  0.06095319  0.42005788  1  0  -0.052977  0  3.661832  0  0  -0.095519  0  3.919481  0  0  -0.092972  0  3.937142  0  0  0.006884  -0.097187  0  3.907666  0
C  C68  1  0.12831973  0.93904777  0.92005868  1  0  -0.052948  0  3.66195  0  0  -0.095525  0  3.919602  0  0  -0.092978  0  3.93726  0  0  0.006876  -0.097196  0  3.907792  0
C  C69  1  0.37167407  0.93904704  0.57994060  1  0  -0.052868  0  3.661861  0  0  -0.095441  0  3.919506  0  0  -0.092894  0  3.937164  0  0  0.006892  -0.097103  0  3.90769  0
C  C70  1  0.55458361  0.15082899  0.05548740  1  0  0.017199  0  3.60809  0  0  -0.046631  0  3.866054  0  0  -0.041562  0  3.874557  0  0  -0.054132  -0.049939  0  3.860319  0
C  C71  1  0.94543204  0.15082665  0.44451236  1  0  0.017013  0  3.60827  0  0  -0.046818  0  3.866193  0  0  -0.041709  0  3.874641  0  0  -0.054155  -0.050116  0  3.86044  0
C  C72  1  0.44542092  0.84917342  0.94451495  1  0  0.017183  0  3.608138  0  0  -0.04659  0  3.865997  0  0  -0.041458  0  3.874417  0  0  -0.05409  -0.049904  0  3.860267  0
C  C73  1  0.05457528  0.84917213  0.55548473  1  0  0.017257  0  3.608004  0  0  -0.046536  0  3.86586  0  0  -0.041441  0  3.87433  0  0  -0.054082  -0.049842  0  3.86013  0
C  C74  1  0.51753496  0.21194756  0.96563840  1  0  -0.263381  0  3.684069  0  0  -0.30986  0  3.934383  0  0  -0.314769  0  3.944184  0  0  -0.163671  -0.306313  0  3.927622  0
C  C75  1  0.98248049  0.21194518  0.53436037  1  0  -0.263529  0  3.684247  0  0  -0.309911  0  3.934477  0  0  -0.314824  0  3.944261  0  0  -0.16386  -0.306353  0  3.927709  0
C  C76  1  0.48246672  0.78805340  0.03436367  1  0  -0.263315  0  3.684174  0  0  -0.309822  0  3.934514  0  0  -0.314751  0  3.944299  0  0  -0.163642  -0.306269  0  3.927746  0
C  C77  1  0.01752824  0.78805361  0.46563478  1  0  -0.263391  0  3.684155  0  0  -0.309758  0  3.934322  0  0  -0.314676  0  3.944115  0  0  -0.163685  -0.306218  0  3.927572  0
C  C78  1  0.53492145  0.15821529  0.87615254  1  0  0.449728  0  3.664036  0  0  0.433243  0  3.931231  0  0  0.455423  0  3.933831  0  0  0.164855  0.418137  0  3.929238  0
C  C79  1  0.96509033  0.15820990  0.62384804  1  0  0.449667  0  3.664029  0  0  0.433068  0  3.931274  0  0  0.455248  0  3.933868  0  0  0.16471  0.417958  0  3.929279  0
C  C80  1  0.46507879  0.84178494  0.12384731  1  0  0.44963  0  3.66395  0  0  0.433134  0  3.931166  0  0  0.455316  0  3.933768  0  0  0.164826  0.418036  0  3.92916  0
C  C81  1  0.03492838  0.84178600  0.37615158  1  0  0.449562  0  3.66403  0  0  0.433092  0  3.931149  0  0  0.45527  0  3.933755  0  0  0.164837  0.417992  0  3.929149  0
C  C82  1  0.51296239  0.21428250  0.78650780  1  0  -0.065149  0  3.774121  0  0  -0.041656  0  4.001678  0  0  -0.050021  0  4.027992  0  0  -0.023876  -0.036118  0  3.983882  0
C  C83  1  0.98703881  0.21427688  0.71348953  1  0  -0.065176  0  3.774208  0  0  -0.041517  0  4.00156  0  0  -0.049887  0  4.02787  0  0  -0.02383  -0.035985  0  3.983779  0
C  C84  1  0.48703786  0.78571918  0.21349343  1  0  -0.065029  0  3.774186  0  0  -0.041504  0  4.00169  0  0  -0.049873  0  4.028001  0  0  -0.023817  -0.035969  0  3.983887  0
C  C85  1  0.01296995  0.78571684  0.28650909  1  0  -0.065122  0  3.77429  0  0  -0.041615  0  4.001793  0  0  -0.04998  0  4.028107  0  0  -0.023875  -0.036076  0  3.98399  0
C  C86  1  0.50733800  0.31597064  0.78418014  1  0  -0.061382  0  3.715967  0  0  -0.083558  0  3.958481  0  0  -0.08346  0  3.981691  0  0  -0.075295  -0.083419  0  3.942687  0
C  C87  1  0.99266209  0.31597007  0.71581760  1  0  -0.061624  0  3.715779  0  0  -0.083789  0  3.958251  0  0  -0.083682  0  3.981453  0  0  -0.075421  -0.083653  0  3.942465  0
C  C88  1  0.49266366  0.68403176  0.21582055  1  0  -0.061432  0  3.715931  0  0  -0.083595  0  3.958424  0  0  -0.083494  0  3.981635  0  0  -0.075379  -0.08345  0  3.942623  0
C  C89  1  0.00734240  0.68403089  0.28418059  1  0  -0.061312  0  3.716027  0  0  -0.083495  0  3.958518  0  0  -0.083396  0  3.981728  0  0  -0.075287  -0.083352  0  3.94272  0
C  C90  1  0.49612159  0.36516447  0.69871991  1  0  -0.07034  0  3.734911  0  0  -0.080999  0  3.983222  0  0  -0.085617  0  4.006617  0  0  -0.085619  -0.077984  0  3.967353  0
C  C91  1  0.00386991  0.36516069  0.80127600  1  0  -0.070328  0  3.734841  0  0  -0.080953  0  3.983176  0  0  -0.085573  0  4.006565  0  0  -0.085581  -0.07794  0  3.967309  0
C  C92  1  0.50388438  0.63483504  0.30128606  1  0  -0.070374  0  3.734852  0  0  -0.081069  0  3.983209  0  0  -0.085687  0  4.006594  0  0  -0.08554  -0.078057  0  3.967353  0
C  C93  1  0.99611892  0.63483231  0.19871784  1  0  -0.070391  0  3.73474  0  0  -0.081058  0  3.98308  0  0  -0.085677  0  4.006474  0  0  -0.085593  -0.078048  0  3.967223  0
C  C94  1  0.48799377  0.31342479  0.61467857  1  0  -0.048593  0  3.720047  0  0  -0.066914  0  3.970875  0  0  -0.067554  0  3.992908  0  0  -0.082489  -0.066141  0  3.955769  0
C  C95  1  0.01200540  0.31342444  0.88531820  1  0  -0.048517  0  3.71995  0  0  -0.066891  0  3.9708  0  0  -0.067522  0  3.992834  0  0  -0.082484  -0.066125  0  3.955695  0
C  C96  1  0.51201501  0.68657761  0.38532283  1  0  -0.04866  0  3.720342  0  0  -0.067029  0  3.971184  0  0  -0.067652  0  3.993231  0  0  -0.082568  -0.066278  0  3.956077  0
C  C97  1  0.98798485  0.68657579  0.11467578  1  0  -0.048659  0  3.720097  0  0  -0.06696  0  3.970921  0  0  -0.067611  0  3.992946  0  0  -0.082532  -0.066192  0  3.955818  0
C  C98  1  0.48937979  0.21207164  0.61621946  1  0  -0.09303  0  3.781783  0  0  -0.100756  0  4.030947  0  0  -0.105326  0  4.054225  0  0  -0.100258  -0.097697  0  4.015004  0
C  C99  1  0.01061905  0.21206624  0.88377607  1  0  -0.092871  0  3.781541  0  0  -0.100543  0  4.03073  0  0  -0.105113  0  4.054005  0  0  -0.100144  -0.097483  0  4.014787  0
C  C100  1  0.51062191  0.78792859  0.38378470  1  0  -0.092744  0  3.781559  0  0  -0.10044  0  4.030694  0  0  -0.105007  0  4.053964  0  0  -0.100159  -0.097384  0  4.014762  0
C  C101  1  0.98937973  0.78792676  0.11621877  1  0  -0.092911  0  3.781744  0  0  -0.100651  0  4.030873  0  0  -0.105222  0  4.054158  0  0  -0.100204  -0.097586  0  4.014927  0
C  C102  1  0.50242870  0.16293786  0.70145284  1  0  -0.061344  0  3.733079  0  0  -0.087683  0  3.980863  0  0  -0.087335  0  4.001859  0  0  -0.084122  -0.087617  0  3.966475  0
C  C103  1  0.99757448  0.16294001  0.79854409  1  0  -0.06128  0  3.733324  0  0  -0.087629  0  3.98103  0  0  -0.08728  0  4.002027  0  0  -0.084115  -0.087566  0  3.966649  0
C  C104  1  0.49757153  0.83706310  0.29854562  1  0  -0.06147  0  3.733055  0  0  -0.087833  0  3.980836  0  0  -0.087484  0  4.001831  0  0  -0.084152  -0.087768  0  3.966445  0
C  C105  1  0.00243570  0.83706240  0.20145398  1  0  -0.061288  0  3.733016  0  0  -0.08764  0  3.980792  0  0  -0.087295  0  4.001788  0  0  -0.084057  -0.08758  0  3.966402  0
C  C106  1  0.20060254  0.39098441  0.37947416  1  0  0.630188  0  3.92589  0  0  0.584779  0  4.212386  0  0  0.618791  0  4.204285  0  0  0.197686  0.561729  0  4.217074  0
C  C107  1  0.29938823  0.39098886  0.12052596  1  0  0.630302  0  3.926023  0  0  0.584959  0  4.212502  0  0  0.618972  0  4.204395  0  0  0.1977  0.561913  0  4.217186  0
C  C108  1  0.79938776  0.60901221  0.62052677  1  0  0.63012  0  3.92609  0  0  0.584785  0  4.212579  0  0  0.618797  0  4.204474  0  0  0.197593  0.561732  0  4.217265  0
C  C109  1  0.70060350  0.60901354  0.87947510  1  0  0.630222  0  3.925985  0  0  0.584843  0  4.212479  0  0  0.618854  0  4.204379  0  0  0.197702  0.561797  0  4.217159  0
C  C110  1  0.09662668  0.44936465  0.44012260  1  0  -0.0611  0  3.764328  0  0  -0.037336  0  3.992421  0  0  -0.043656  0  4.014266  0  0  -0.018684  -0.03317  0  3.977583  0
C  C111  1  0.40336205  0.44936677  0.05987998  1  0  -0.060967  0  3.764109  0  0  -0.037424  0  3.992513  0  0  -0.043743  0  4.014354  0  0  -0.018715  -0.033252  0  3.977669  0
C  C112  1  0.90336504  0.55063341  0.55987847  1  0  -0.060838  0  3.763878  0  0  -0.037284  0  3.992234  0  0  -0.043603  0  4.014078  0  0  -0.018668  -0.033107  0  3.97738  0
C  C113  1  0.59662684  0.55063491  0.94012149  1  0  -0.061001  0  3.76422  0  0  -0.037343  0  3.992444  0  0  -0.043662  0  4.014288  0  0  -0.018676  -0.033174  0  3.977602  0
C  C114  1  0.19885302  0.50411403  0.51547491  1  0  -0.084484  0  3.739571  0  0  -0.10824  0  3.991254  0  0  -0.108952  0  4.010462  0  0  -0.085566  -0.107613  0  3.978229  0
C  C115  1  0.30113702  0.50411707  0.98452753  1  0  -0.084594  0  3.73958  0  0  -0.108295  0  3.991317  0  0  -0.109008  0  4.010523  0  0  -0.085612  -0.107669  0  3.978291  0
C  C116  1  0.80113587  0.49588259  0.48452587  1  0  -0.084576  0  3.739509  0  0  -0.108281  0  3.991229  0  0  -0.108994  0  4.010438  0  0  -0.085585  -0.107653  0  3.978203  0
C  C117  1  0.69885044  0.49588317  0.01547310  1  0  -0.084548  0  3.739508  0  0  -0.108231  0  3.991225  0  0  -0.108944  0  4.010432  0  0  -0.085639  -0.107602  0  3.978198  0
C  C118  1  0.89759382  0.44632051  0.42493099  1  0  -0.077585  0  3.745976  0  0  -0.100105  0  3.994527  0  0  -0.100488  0  4.01349  0  0  -0.086963  -0.099734  0  3.98161  0
C  C119  1  0.60239731  0.44632051  0.07507133  1  0  -0.077656  0  3.745739  0  0  -0.100152  0  3.994382  0  0  -0.100533  0  4.01334  0  0  -0.086953  -0.099785  0  3.981469  0
C  C120  1  0.10239933  0.55367900  0.57507022  1  0  -0.077728  0  3.745792  0  0  -0.100231  0  3.994441  0  0  -0.100612  0  4.013399  0  0  -0.087023  -0.099859  0  3.981518  0
C  C121  1  0.39759300  0.55368045  0.92493098  1  0  -0.077605  0  3.745789  0  0  -0.100091  0  3.994369  0  0  -0.100474  0  4.01333  0  0  -0.086968  -0.099723  0  3.981452  0
N  N122  1  0.04834805  0.17159144  0.17175093  1  0  -0.379803  0  3.317714  0  0  -0.299752  0  3.61799  0  0  -0.319043  0  3.629256  0  0  -0.362439  -0.286754  0  3.610184  0
N  N123  1  0.45166076  0.17159365  0.32825278  1  0  -0.379861  0  3.317841  0  0  -0.29981  0  3.618131  0  0  -0.319098  0  3.629398  0  0  -0.362485  -0.286812  0  3.61033  0
N  N124  1  0.95165647  0.82840952  0.82825143  1  0  -0.379871  0  3.317778  0  0  -0.299748  0  3.617996  0  0  -0.31905  0  3.629272  0  0  -0.362448  -0.286743  0  3.610189  0
N  N125  1  0.54834375  0.82840731  0.67174888  1  0  -0.379805  0  3.317712  0  0  -0.299729  0  3.617955  0  0  -0.319025  0  3.629227  0  0  -0.362428  -0.286726  0  3.610147  0
N  N126  1  0.75794111  0.13769332  0.09450716  1  0  -0.051083  0  3.547861  0  0  0.045447  0  3.76385  0  0  0.030651  0  3.79004  0  0  -0.235732  0.055247  0  3.745973  0
N  N127  1  0.74207184  0.13769233  0.40549305  1  0  -0.051003  0  3.547807  0  0  0.045535  0  3.763756  0  0  0.030729  0  3.789937  0  0  -0.235664  0.055336  0  3.745875  0
N  N128  1  0.24206198  0.86230981  0.90549297  1  0  -0.050991  0  3.548016  0  0  0.045526  0  3.763982  0  0  0.030712  0  3.790157  0  0  -0.235665  0.055333  0  3.746105  0
N  N129  1  0.25793407  0.86230791  0.59450529  1  0  -0.051042  0  3.547931  0  0  0.045492  0  3.763874  0  0  0.030689  0  3.790058  0  0  -0.235644  0.055291  0  3.745996  0
O  O130  1  0.56413751  0.06976594  0.87809885  1  0  -0.49361  0  1.922496  0  0  -0.447422  0  2.132553  0  0  -0.465994  0  2.128799  0  0  -0.269443  -0.434729  0  2.134985  0
O  O131  1  0.93589372  0.06976207  0.62190385  1  0  -0.493454  0  1.922325  0  0  -0.447271  0  2.132437  0  0  -0.465845  0  2.128691  0  0  -0.269304  -0.434574  0  2.134867  0
O  O132  1  0.43585564  0.93023574  0.12190237  1  0  -0.493567  0  1.922389  0  0  -0.447361  0  2.132427  0  0  -0.465934  0  2.128678  0  0  -0.269426  -0.434673  0  2.134857  0
O  O133  1  0.06414773  0.93023599  0.37809668  1  0  -0.493528  0  1.922383  0  0  -0.447362  0  2.132428  0  0  -0.465931  0  2.128677  0  0  -0.269443  -0.434673  0  2.134859  0
O  O134  1  0.09659587  0.32687856  0.32582010  1  0  -0.665696  0  2.061497  0  0  -0.593016  0  2.336505  0  0  -0.621766  0  2.320791  0  0  -0.342357  -0.572824  0  2.346578  0
O  O135  1  0.40339133  0.32688191  0.17417908  1  0  -0.665714  0  2.061617  0  0  -0.593037  0  2.33663  0  0  -0.62179  0  2.320917  0  0  -0.34233  -0.572847  0  2.346695  0
O  O136  1  0.90339156  0.67312095  0.67417707  1  0  -0.665683  0  2.061556  0  0  -0.593005  0  2.336558  0  0  -0.621758  0  2.320844  0  0  -0.342345  -0.572815  0  2.346626  0
O  O137  1  0.59659898  0.67312194  0.82582254  1  0  -0.665734  0  2.06156  0  0  -0.593037  0  2.336543  0  0  -0.621789  0  2.320827  0  0  -0.342373  -0.57285  0  2.346613  0
O  O138  1  0.37479154  0.40261752  0.38391378  1  0  -0.608862  0  1.906392  0  0  -0.563118  0  2.12635  0  0  -0.585351  0  2.117452  0  0  -0.320389  -0.547563  0  2.131923  0
O  O139  1  0.12519913  0.40262244  0.11608908  1  0  -0.608898  0  1.906235  0  0  -0.563187  0  2.126205  0  0  -0.585422  0  2.117307  0  0  -0.320399  -0.547635  0  2.131775  0
O  O140  1  0.62520449  0.59737620  0.61609258  1  0  -0.608831  0  1.906405  0  0  -0.563135  0  2.126386  0  0  -0.585362  0  2.117474  0  0  -0.320318  -0.547584  0  2.131959  0
O  O141  1  0.87478976  0.59737924  0.88391309  1  0  -0.60891  0  1.906452  0  0  -0.563165  0  2.126392  0  0  -0.585406  0  2.117508  0  0  -0.320389  -0.547614  0  2.13196  0
