# generated using pymatgen
data_Al4H12C36N3ClO26
_symmetry_space_group_name_H-M   'P 1'
_cell_length_a   6.77842109
_cell_length_b   16.64575649
_cell_length_c   18.40765546
_cell_angle_alpha   106.56509311
_cell_angle_beta   89.77725357
_cell_angle_gamma   89.87444615
_symmetry_Int_Tables_number   1
_chemical_formula_structural   Al4H12C36N3ClO26
_chemical_formula_sum   'Al4 H12 C36 N3 Cl1 O26'
_cell_volume   1990.74306653
_cell_formula_units_Z   1
loop_
 _symmetry_equiv_pos_site_id
 _symmetry_equiv_pos_as_xyz
  1  'x, y, z'
loop_
 _atom_site_type_symbol
 _atom_site_label
 _atom_site_symmetry_multiplicity
 _atom_site_fract_x
 _atom_site_fract_y
 _atom_site_fract_z
 _atom_site_occupancy
 _atom_site_pbe_bader_charge
 _atom_site_pbe_bader_spin_density
 _atom_site_pbe_cm5_charge
 _atom_site_pbe_ddec_charge
 _atom_site_pbe_ddec_spin_density
 _atom_site_pbe_ddec_sum_bond_order
 _atom_site_pbe_magmom
Al  Al0  1  0.12504278  0.49973115  0.49838966  1  2.503084  0  0.405491  1.639761  0  2.566497  0
Al  Al1  1  0.62400156  0.49842117  0.49800981  1  2.502222  0  0.404874  1.642413  0  2.567982  0
Al  Al2  1  0.65464015  0.99966772  0.99981480  1  2.502126  0  0.405221  1.644138  0  2.569273  0
Al  Al3  1  0.15509836  0.99907430  0.00122592  1  2.503026  0  0.40598  1.644945  0  2.564898  0
H  H4  1  0.99107154  0.79452951  0.63925288  1  0.0973  0  0.117738  0.116276  0  0.958142  0
H  H5  1  0.66723809  0.86310736  0.73965858  1  0.107408  0  0.12285  0.12739  0  0.95169  0
H  H6  1  0.22478793  0.80436980  0.76880123  1  0.119893  0  0.113354  0.115475  0  1.015326  0
H  H7  1  0.58419440  0.21636948  0.34887530  1  0.108076  0  0.118204  0.119237  0  0.961304  0
H  H8  1  0.73474802  0.22411724  0.20632849  1  0.09755  0  0.106848  0.101034  0  0.986306  0
H  H9  1  0.52035808  0.37738286  0.22483808  1  0.10529  0  0.109541  0.099687  0  0.978693  0
H  H10  1  0.19252361  0.28109385  0.14961537  1  0.066446  0  0.107317  0.098087  0  0.978992  0
H  H11  1  0.04559597  0.27475829  0.29387108  1  0.114979  0  0.111818  0.115321  0  0.983781  0
H  H12  1  0.37551654  0.60280893  0.55035128  1  0.642753  0  0.344315  0.428556  0  0.868672  0
H  H13  1  0.87666695  0.39888031  0.50945098  1  0.616439  0  0.353582  0.43456  0  0.847931  0
H  H14  1  0.40717052  0.89534127  0.00243425  1  0.623133  0  0.360288  0.443882  0  0.832834  0
H  H15  1  0.90602048  0.10463359  0.99997827  1  0.625643  0  0.35414  0.433134  0  0.848571  0
C  C16  1  0.37739430  0.38599320  0.38418586  1  1.588038  0  0.275685  0.652028  0  4.096175  0
C  C17  1  0.37131458  0.41268337  0.58465916  1  1.70386  0  0.273331  0.69882  0  4.184202  0
C  C18  1  0.86879361  0.61386744  0.61293493  1  1.626286  0  0.272193  0.660583  0  4.098543  0
C  C19  1  0.87676930  0.58248968  0.41161800  1  1.688168  0  0.276483  0.701052  0  4.18319  0
C  C20  1  0.87606935  0.63188748  0.35897810  1  0.027438  0  -0.003543  -0.146995  0  3.836876  0
C  C21  1  0.88016880  0.67589509  0.31567718  1  -0.114701  0  -0.005125  0.034118  0  4.257017  0
C  C22  1  0.88533498  0.72448435  0.26877961  1  0.069477  0  0.002197  -0.004521  0  4.17993  0
C  C23  1  0.89073469  0.76959850  0.22600782  1  -0.099962  0  0.012095  0.012639  0  4.167352  0
C  C24  1  0.89582733  0.81834198  0.17928492  1  -0.288684  0  0.004076  0.041436  0  4.221505  0
C  C25  1  0.89975879  0.86258960  0.13627439  1  0.243311  0  0.011761  -0.119837  0  3.802843  0
C  C26  1  0.77015106  0.81387324  0.74342288  1  -0.011016  0  -0.052889  -0.07589  0  3.573168  0
C  C27  1  0.94519291  0.77571256  0.68893412  1  -0.011914  0  -0.061795  -0.042647  0  3.608927  0
C  C28  1  0.87171908  0.68460143  0.68421257  1  0.004487  0  0.006962  -0.085282  0  3.623062  0
C  C29  1  0.70155458  0.72303148  0.74076346  1  0.331215  0  0.102193  0.04775  0  3.673139  0
C  C30  1  0.83143147  0.72664081  0.81025537  1  0.321908  0  0.095324  -0.001781  0  3.63431  0
C  C31  1  0.00543801  0.68612442  0.75452287  1  0.185615  0  0.040772  0.115862  0  3.663529  0
C  C32  1  0.07776110  0.77817394  0.75876022  1  0.000653  0  -0.070625  -0.09227  0  3.615316  0
C  C33  1  0.90353935  0.81633517  0.81344826  1  0.007304  0  0.00437  -0.040305  0  3.638592  0
C  C34  1  0.50064449  0.23216480  0.30409405  1  -0.020955  0  -0.054132  -0.081487  0  3.574992  0
C  C35  1  0.31635542  0.18193110  0.26324769  1  0.293345  0  0.096739  0.068538  0  3.614413  0
C  C36  1  0.40218937  0.18529377  0.18492294  1  0.022498  0  0.0023  -0.064225  0  3.642492  0
C  C37  1  0.58230656  0.23679473  0.22585133  1  -0.03889  0  -0.070815  -0.058186  0  3.630733  0
C  C38  1  0.46345895  0.32007891  0.23489134  1  -0.047355  0  -0.06414  -0.057772  0  3.598656  0
C  C39  1  0.28068033  0.26882246  0.19496193  1  -0.00374  0  -0.065505  -0.05409  0  3.613945  0
C  C40  1  0.19764956  0.26435835  0.27337673  1  -0.031979  0  -0.07005  -0.103939  0  3.63057  0
C  C41  1  0.37923551  0.31523548  0.31373635  1  -0.003088  0  0.000452  -0.029011  0  3.646826  0
C  C42  1  0.37252977  0.36392902  0.63792582  1  0.078702  0  0.001797  -0.130266  0  3.81984  0
C  C43  1  0.37659996  0.32040811  0.68159381  1  -0.157993  0  -0.003856  0.03267  0  4.242322  0
C  C44  1  0.38200701  0.27238599  0.72892544  1  -0.089705  0  0.006348  0.006597  0  4.181505  0
C  C45  1  0.38803164  0.22787525  0.77219452  1  0.08032  0  0.001816  -0.003103  0  4.185273  0
C  C46  1  0.39449311  0.17969937  0.81937528  1  -0.138465  0  -0.008182  0.031068  0  4.262237  0
C  C47  1  0.40028640  0.13576965  0.86268753  1  0.032834  0  -0.005533  -0.14918  0  3.843764  0
C  C48  1  0.40355022  0.08527732  0.91443603  1  1.680032  0  0.273995  0.700714  0  4.18483  0
C  C49  1  0.40387718  0.11403220  0.11449597  1  1.58781  0  0.26853  0.650849  0  4.116923  0
C  C50  1  0.90260614  0.91318654  0.08478152  1  1.6947  0  0.284922  0.713956  0  4.154907  0
C  C51  1  0.90728224  0.88688036  0.88497975  1  1.636159  0  0.268257  0.64769  0  4.122961  0
N  N52  1  0.49277384  0.70621035  0.74146340  1  0.335244  0  0.051028  0.505588  0  4.216619  0
N  N53  1  0.78131656  0.69449956  0.87439655  1  0.397064  0  0.055217  0.517696  0  4.248151  0
N  N54  1  0.24619791  0.10609276  0.28086243  1  0.393077  0  0.05735  0.512125  0  4.229823  0
Cl  Cl55  1  0.11744427  0.59565351  0.76210603  1  -0.137613  0  0.014577  -0.036872  0  1.549381  0
O  O56  1  0.54007871  0.42808880  0.56097283  1  -1.228766  0  -0.227094  -0.582304  0  2.280123  0
O  O57  1  0.21041443  0.41168854  0.41342908  1  -1.256447  0  -0.227947  -0.579293  0  2.333369  0
O  O58  1  0.04557229  0.56096218  0.42985841  1  -1.22113  0  -0.221602  -0.567353  0  2.287459  0
O  O59  1  0.20223193  0.43406182  0.56631295  1  -1.228671  0  -0.228006  -0.588843  0  2.297796  0
O  O60  1  0.03732411  0.59180311  0.58328882  1  -1.24586  0  -0.229321  -0.587147  0  2.346294  0
O  O61  1  0.54562828  0.41442524  0.40965988  1  -1.256181  0  -0.232773  -0.589303  0  2.324565  0
O  O62  1  0.37455999  0.55011093  0.51018814  1  -1.44128  0  -0.448192  -0.984893  0  2.136494  0
O  O63  1  0.70194105  0.58394628  0.58853152  1  -1.248652  0  -0.231121  -0.588511  0  2.36799  0
O  O64  1  0.70938244  0.56622173  0.43562285  1  -1.230619  0  -0.222585  -0.571254  0  2.284443  0
O  O65  1  0.87546231  0.44938589  0.49311152  1  -1.418191  0  -0.448512  -0.990305  0  2.157885  0
O  O66  1  0.23494052  0.08744490  0.08823371  1  -1.258134  0  -0.237397  -0.597805  0  2.327605  0
O  O67  1  0.57291790  0.06601782  0.93414633  1  -1.221798  0  -0.225297  -0.574905  0  2.284452  0
O  O68  1  0.73807819  0.91415918  0.91058566  1  -1.254877  0  -0.233755  -0.591624  0  2.352405  0
O  O69  1  0.57175834  0.08861916  0.08597681  1  -1.257896  0  -0.23053  -0.587248  0  2.338076  0
O  O70  1  0.73532025  0.93336025  0.06385835  1  -1.230793  0  -0.219601  -0.576359  0  2.286703  0
O  O71  1  0.23595307  0.06563756  0.93567232  1  -1.228739  0  -0.225017  -0.577022  0  2.28932  0
O  O72  1  0.40547938  0.94958103  0.99256371  1  -1.421452  0  -0.446724  -0.991644  0  2.154084  0
O  O73  1  0.07184990  0.93255023  0.06469660  1  -1.220552  0  -0.220428  -0.578399  0  2.285483  0
O  O74  1  0.07528434  0.91151740  0.91235686  1  -1.245313  0  -0.227509  -0.571807  0  2.327582  0
O  O75  1  0.90497215  0.04921501  0.00719479  1  -1.427959  0  -0.449147  -0.993758  0  2.174646  0
O  O76  1  0.42113001  0.71740245  0.80574483  1  -0.421336  0  -0.101086  -0.296019  0  2.013145  0
O  O77  1  0.40051432  0.68984492  0.68095517  1  -0.451694  0  -0.108746  -0.311185  0  1.984602  0
O  O78  1  0.71491135  0.62247358  0.85746535  1  -0.42405  0  -0.128867  -0.325105  0  1.906197  0
O  O79  1  0.81927256  0.73952114  0.93885306  1  -0.435997  0  -0.119084  -0.309001  0  1.89616  0
O  O80  1  0.11459733  0.11564429  0.32970338  1  -0.459463  0  -0.15011  -0.349382  0  1.84434  0
O  O81  1  0.32845467  0.03915892  0.24757889  1  -0.433007  0  -0.12569  -0.317547  0  1.864651  0
