# generated using pymatgen
data_AlH5C13NCl3O5
_symmetry_space_group_name_H-M   'P 1'
_cell_length_a   6.60495209
_cell_length_b   11.07673890
_cell_length_c   16.92328204
_cell_angle_alpha   83.84875269
_cell_angle_beta   82.80916271
_cell_angle_gamma   73.73716581
_symmetry_Int_Tables_number   1
_chemical_formula_structural   AlH5C13NCl3O5
_chemical_formula_sum   'Al2 H10 C26 N2 Cl6 O10'
_cell_volume   1175.85652142
_cell_formula_units_Z   2
loop_
 _symmetry_equiv_pos_site_id
 _symmetry_equiv_pos_as_xyz
  1  'x, y, z'
loop_
 _atom_site_type_symbol
 _atom_site_label
 _atom_site_symmetry_multiplicity
 _atom_site_fract_x
 _atom_site_fract_y
 _atom_site_fract_z
 _atom_site_occupancy
 _atom_site_pbe_bader_charge
 _atom_site_pbe_bader_spin_density
 _atom_site_pbe_cm5_charge
 _atom_site_pbe_ddec_charge
 _atom_site_pbe_ddec_spin_density
 _atom_site_pbe_ddec_sum_bond_order
 _atom_site_pbe_magmom
Al  Al0  1  0.49178973  0.50568043  0.49735914  1  2.502956  0  0.385728  1.647125  0  2.569132  0
Al  Al1  1  0.99212199  0.50359120  0.49925642  1  2.500703  0  0.394358  1.640599  0  2.55698  0
H  H2  1  0.18228501  0.65849780  0.45149036  1  0.622146  0  0.338759  0.421182  0  0.881779  0
H  H3  1  0.74167745  0.43265643  0.59443396  1  0.600233  0  0.338679  0.410857  0  0.894677  0
H  H4  1  0.91385720  0.41192700  0.74242770  1  0.074172  0  0.095765  0.094992  0  1.045236  0
H  H5  1  0.86703909  0.39672527  0.89179561  1  0.076688  0  0.110238  0.11787  0  1.001359  0
H  H6  1  0.39599577  0.55242572  0.89203498  1  0.091393  0  0.114125  0.133386  0  0.989671  0
H  H7  1  0.56942660  0.56416959  0.09726432  1  0.09685  0  0.112606  0.129281  0  0.995893  0
H  H8  1  0.23186754  0.39484905  0.12276497  1  0.103918  0  0.109941  0.118575  0  0.99867  0
H  H9  1  0.15554824  0.41271097  0.27054272  1  0.106756  0  0.105937  0.111806  0  1.017831  0
H  H10  1  0.83134682  0.76893960  0.61335294  1  0.08324  0  0.109731  0.134521  0  1.013646  0
H  H11  1  0.63140680  0.23789654  0.59066365  1  0.143574  0  0.114184  0.134634  0  1.030775  0
C  C12  1  0.62192692  0.73187855  0.50389015  1  1.552096  0  0.266225  0.657124  0  4.10201  0
C  C13  1  0.79676406  0.50551119  0.35604636  1  1.594683  0  0.270195  0.652672  0  4.082524  0
C  C14  1  0.36075995  0.28155125  0.48987727  1  1.642486  0  0.269829  0.653329  0  4.101678  0
C  C15  1  0.19567096  0.49414929  0.64370748  1  1.602655  0  0.266371  0.654548  0  4.079018  0
C  C16  1  0.17980522  0.48955843  0.73265310  1  -0.018622  0  -0.0153  -0.100976  0  3.929809  0
C  C17  1  0.01905699  0.44191666  0.77601918  1  0.004723  0  -0.081595  -0.065079  0  3.990925  0
C  C18  1  0.99183651  0.43370921  0.85868136  1  0.032363  0  -0.084224  -0.149715  0  3.946375  0
C  C19  1  0.12800063  0.47513941  0.90030637  1  0.319247  0  0.0933  0.195399  0  4.037462  0
C  C20  1  0.29251203  0.52024605  0.85873422  1  0.067818  0  -0.084812  -0.213333  0  3.922711  0
C  C21  1  0.31742798  0.52844448  0.77548740  1  0.030492  0  0.021121  0.14043  0  4.025795  0
C  C22  1  0.69745928  0.53076547  0.13574358  1  0.082974  0  -0.084484  -0.21505  0  3.930703  0
C  C23  1  0.90425762  0.48034832  0.10146241  1  0.243818  0  0.093331  0.194827  0  4.044329  0
C  C24  1  0.07195850  0.43579132  0.14985446  1  0.05462  0  -0.084457  -0.153287  0  3.951437  0
C  C25  1  0.02893027  0.44555091  0.23147546  1  -0.059067  0  -0.077794  -0.065283  0  3.982618  0
C  C26  1  0.82299899  0.49912641  0.26756563  1  0.014112  0  -0.01156  -0.099955  0  3.899224  0
C  C27  1  0.65621208  0.54227934  0.21787464  1  0.091113  0  0.027261  0.151818  0  4.001212  0
C  C28  1  0.55511713  0.87331652  0.50115202  1  0.08421  0  -0.009232  -0.121902  0  3.908061  0
C  C29  1  0.64136699  0.93752095  0.55158301  1  0.051828  0  0.001379  0.078574  0  3.972068  0
C  C30  1  0.41254343  0.94136272  0.44819952  1  0.111167  0  0.015709  0.070008  0  4.021811  0
C  C31  1  0.78452474  0.87153790  0.60748465  1  0.093642  0  -0.092922  -0.184211  0  3.932799  0
C  C32  1  0.87012384  0.93519557  0.65440103  1  0.041283  0  0.008942  0.094685  0  4.063269  0
C  C33  1  0.43016909  0.14016502  0.49239821  1  0.032528  0  -0.006632  -0.119135  0  3.910695  0
C  C34  1  0.34754027  0.07564912  0.44444619  1  0.111775  0  0.01655  0.066428  0  4.042278  0
C  C35  1  0.58093933  0.07268125  0.54608998  1  -0.050067  0  0.002511  0.078566  0  3.963984  0
C  C36  1  0.67108476  0.13562901  0.59513977  1  0.015042  0  -0.089764  -0.178427  0  3.927679  0
C  C37  1  0.81405416  0.06932250  0.64742570  1  0.104475  0  0.010335  0.095672  0  4.053031  0
N  N38  1  0.10994218  0.47661443  0.98444272  1  -0.443619  0  -0.141684  -0.125484  0  3.243053  0
N  N39  1  0.92576974  0.47970979  0.01737749  1  -0.464942  0  -0.13932  -0.122266  0  3.259635  0
Cl  Cl40  1  0.51417277  0.59423095  0.72884855  1  -0.188004  0  0.026051  -0.037401  0  1.617864  0
Cl  Cl41  1  0.39647111  0.61318661  0.25166590  1  -0.174016  0  0.01984  -0.035897  0  1.583699  0
Cl  Cl42  1  0.17287187  0.15646871  0.37729961  1  -0.162279  0  0.020445  -0.027395  0  1.589324  0
Cl  Cl43  1  0.32103950  0.86587389  0.38203596  1  -0.178359  0  0.015888  -0.050373  0  1.63604  0
Cl  Cl44  1  0.04580220  0.85127916  0.72049814  1  -0.189934  0  -0.007372  -0.07296  0  1.566687  0
Cl  Cl45  1  0.92480577  0.15059965  0.70365346  1  -0.200973  0  -0.003971  -0.063531  0  1.514598  0
O  O46  1  0.47548595  0.67667729  0.51860961  1  -1.247596  0  -0.237474  -0.600004  0  2.382555  0
O  O47  1  0.96509302  0.48472985  0.39069125  1  -1.247783  0  -0.231037  -0.579829  0  2.351075  0
O  O48  1  0.16555187  0.33297114  0.50781198  1  -1.250777  0  -0.226652  -0.578449  0  2.366601  0
O  O49  1  0.38028644  0.47077983  0.60633341  1  -1.264326  0  -0.239195  -0.610871  0  2.413101  0
O  O50  1  0.50505244  0.33825285  0.47323426  1  -1.248998  0  -0.224814  -0.561405  0  2.323125  0
O  O51  1  0.02244989  0.51746746  0.61166499  1  -1.252408  0  -0.237626  -0.590652  0  2.324073  0
O  O52  1  0.81953411  0.67914645  0.49085679  1  -1.247066  0  -0.231652  -0.588034  0  2.332727  0
O  O53  1  0.61046963  0.53112652  0.39162343  1  -1.261377  0  -0.233273  -0.599762  0  2.442553  0
O  O54  1  0.22093410  0.56846793  0.46646239  1  -1.425102  0  -0.44956  -0.988166  0  2.215569  0
O  O55  1  0.75613303  0.44697607  0.53659911  1  -1.406464  0  -0.448926  -0.980073  0  2.20162  0
