# generated using pymatgen
data_CuH14C14NO7
_symmetry_space_group_name_H-M   'P 1'
_cell_length_a   7.72127422
_cell_length_b   10.23533403
_cell_length_c   10.30387393
_cell_angle_alpha   104.92172491
_cell_angle_beta   105.45146638
_cell_angle_gamma   99.66300904
_symmetry_Int_Tables_number   1
_chemical_formula_structural   CuH14C14NO7
_chemical_formula_sum   'Cu2 H28 C28 N2 O14'
_cell_volume   733.56399750
_cell_formula_units_Z   2
loop_
 _symmetry_equiv_pos_site_id
 _symmetry_equiv_pos_as_xyz
  1  'x, y, z'
loop_
 _atom_site_type_symbol
 _atom_site_label
 _atom_site_symmetry_multiplicity
 _atom_site_fract_x
 _atom_site_fract_y
 _atom_site_fract_z
 _atom_site_occupancy
 _atom_site_hle17_ddec_charge
 _atom_site_hle17_ddec_spin_density
 _atom_site_hle17_ddec_sum_bond_order
 _atom_site_hle17_magmom
 _atom_site_hse06_10hf_ddec_charge
 _atom_site_hse06_10hf_ddec_spin_density
 _atom_site_hse06_10hf_ddec_sum_bond_order
 _atom_site_hse06_10hf_magmom
 _atom_site_hse06_ddec_charge
 _atom_site_hse06_ddec_spin_density
 _atom_site_hse06_ddec_sum_bond_order
 _atom_site_hse06_magmom
 _atom_site_pbe_cm5_charge
 _atom_site_pbe_ddec_charge
 _atom_site_pbe_ddec_spin_density
 _atom_site_pbe_ddec_sum_bond_order
 _atom_site_pbe_magmom
Cu  Cu0  1  0.24194341  0.05552838  0.17016654  1  0.947179  -0.738903  1.720902  -0.523  0.937217  -0.82432  2.11316  -0.645  1.028317  -0.896221  2.037244  -0.728  0.72378  0.87998  -0.770641  2.165944  -0.59
Cu  Cu1  1  0.75805121  0.94447643  0.82983270  1  0.947318  0.738938  1.720943  0.523  0.937247  0.824328  2.113242  0.645  1.028363  0.896219  2.037305  0.728  0.723795  0.879972  0.770641  2.166043  0.59
H  H2  1  0.16564810  0.81966514  0.00912455  1  0.410646  -0.000108  0.907199  0.001  0.380177  -0.000561  0.971132  0.0  0.393296  -0.000333  0.952826  0.0  0.283787  0.3709  -0.000741  0.984048  0.0
H  H3  1  0.83434370  0.18033548  0.99087115  1  0.410637  0.000108  0.907234  -0.001  0.380175  0.00056  0.971148  0.0  0.393294  0.000333  0.952843  0.0  0.28379  0.370895  0.000741  0.984071  0.0
H  H4  1  0.14723963  0.91077125  0.89543897  1  0.419888  -0.000831  0.889124  -0.001  0.385759  -0.00122  0.961513  -0.002  0.398783  -0.000961  0.942338  -0.001  0.287377  0.376347  -0.001382  0.975403  -0.002
H  H5  1  0.85276068  0.08923458  0.10455965  1  0.419895  0.000831  0.889113  0.001  0.385764  0.00122  0.961503  0.002  0.398792  0.000961  0.942324  0.001  0.287399  0.376353  0.001382  0.975394  0.002
H  H6  1  0.69534341  0.07440342  0.28652860  1  0.422523  1.3e-05  0.879717  0.0  0.395815  1.9e-05  0.93769  0.0  0.407856  2.2e-05  0.920119  0.0  0.283654  0.387358  1.2e-05  0.95  0.0
H  H7  1  0.30465484  0.92560032  0.71346911  1  0.422518  -1.3e-05  0.879731  0.0  0.395824  -1.9e-05  0.937681  0.0  0.407867  -2.1e-05  0.920103  0.0  0.283639  0.387369  -1.2e-05  0.949988  0.0
H  H8  1  0.55407753  0.99649936  0.34440165  1  0.412677  3e-05  0.837923  0.0  0.403062  4.5e-05  0.885323  0.0  0.412431  2.9e-05  0.873178  0.0  0.312369  0.396298  5.1e-05  0.893379  0.0
H  H9  1  0.44592752  0.00350438  0.65560121  1  0.41284  -3e-05  0.837707  0.0  0.403217  -4.5e-05  0.885119  0.0  0.412588  -2.9e-05  0.872968  0.0  0.312435  0.396455  -5.1e-05  0.893178  0.0
H  H10  1  0.29994759  0.54747711  0.13789777  1  0.114422  -0.000352  0.961921  -0.001  0.123572  -0.000354  1.022814  -0.001  0.126828  -0.00025  1.021701  0.0  0.112066  0.121102  -0.000514  1.023807  -0.001
H  H11  1  0.70006170  0.45253498  0.86210900  1  0.114444  0.000352  0.961903  0.001  0.123549  0.000354  1.022849  0.001  0.126805  0.00025  1.021737  0.0  0.112069  0.121085  0.000514  1.023835  0.001
H  H12  1  0.22495987  0.60885544  0.73207323  1  0.112908  -2.7e-05  0.956973  0.0  0.124017  -4.4e-05  1.015766  0.0  0.12652  -3e-05  1.016268  0.0  0.104695  0.12226  4e-06  1.015472  0.0
H  H13  1  0.77503527  0.39113892  0.26792634  1  0.112894  2.7e-05  0.956985  0.0  0.124001  4.5e-05  1.015775  0.0  0.126505  3.1e-05  1.016276  0.0  0.104648  0.122246  -3e-06  1.01548  0.0
H  H14  1  0.92517802  0.09936061  0.54675849  1  0.106621  0.000278  0.947137  0.0  0.11605  0.000144  1.009495  0.0  0.119284  8.3e-05  1.006725  0.0  0.106147  0.113638  0.000201  1.011509  0.0
H  H15  1  0.07482617  0.90063684  0.45324066  1  0.106579  -0.000277  0.947158  0.0  0.115999  -0.000144  1.009523  0.0  0.119233  -8.3e-05  1.006754  0.0  0.106144  0.113587  -0.000201  1.011536  0.0
H  H16  1  0.06566692  0.49716068  0.86976973  1  0.108403  2e-05  0.952025  0.0  0.115458  -3e-05  1.019605  0.0  0.118897  -2.1e-05  1.016494  0.0  0.104775  0.112928  -4.7e-05  1.021919  0.0
H  H17  1  0.93432156  0.50283787  0.13022772  1  0.10838  -2e-05  0.952054  0.0  0.115477  3.1e-05  1.019588  0.0  0.118934  2.1e-05  1.016457  0.0  0.104776  0.112948  4.7e-05  1.021897  0.0
H  H18  1  0.44814193  0.09795819  0.98043149  1  0.101781  -0.001007  0.953358  -0.002  0.108807  -0.000837  1.016015  -0.001  0.110169  -0.000602  1.014393  -0.001  0.121616  0.107945  -0.001013  1.01666  -0.002
H  H19  1  0.55185532  0.90205077  0.01956348  1  0.101694  0.001008  0.953418  0.002  0.108808  0.000837  1.015995  0.001  0.110172  0.000602  1.014371  0.001  0.121598  0.107939  0.001013  1.016643  0.002
H  H20  1  0.18529675  0.34664020  0.20773960  1  0.092804  -0.000889  0.94516  -0.001  0.099634  -0.000782  1.008672  -0.001  0.102118  -0.000557  1.005994  -0.001  0.123351  0.097505  -0.000985  1.010914  -0.001
H  H21  1  0.81470914  0.65336982  0.79226600  1  0.09276  0.000889  0.945272  0.001  0.099602  0.000783  1.008768  0.001  0.102086  0.000558  1.006092  0.001  0.123379  0.097472  0.000985  1.011014  0.001
H  H22  1  0.58426791  0.28947800  0.90937314  1  0.11542  -0.000344  0.967876  0.0  0.12527  -0.000327  1.025556  0.0  0.128779  -0.000231  1.024178  0.0  0.111702  0.122621  -0.000406  1.026831  -0.001
H  H23  1  0.41572803  0.71053097  0.09062256  1  0.115396  0.000343  0.96789  0.0  0.125253  0.000327  1.025568  0.0  0.128756  0.000231  1.024192  0.0  0.111689  0.122601  0.000406  1.026845  0.001
H  H24  1  0.40786612  0.63287436  0.45025415  1  0.100382  1.7e-05  0.918373  0.0  0.120169  2e-05  0.975314  0.0  0.120908  7e-06  0.974569  0.0  0.105117  0.11956  3.8e-05  0.975932  0.0
H  H25  1  0.59214651  0.36711994  0.54975062  1  0.100401  -1.6e-05  0.918464  0.0  0.120223  -2e-05  0.97535  0.0  0.120961  -7e-06  0.974606  0.0  0.105163  0.119613  -3.8e-05  0.975972  0.0
H  H26  1  0.46387356  0.63843728  0.63069879  1  0.088474  -8.8e-05  0.969151  0.0  0.100503  -3.6e-05  1.042039  0.0  0.100592  -4.5e-05  1.04237  0.0  0.096128  0.1005  -4e-05  1.041707  0.0
H  H27  1  0.53613440  0.36155913  0.36930468  1  0.088555  8.8e-05  0.969109  0.0  0.100577  3.6e-05  1.041993  0.0  0.100671  4.5e-05  1.042308  0.0  0.096157  0.10057  3.9e-05  1.04167  0.0
H  H28  1  0.25401216  0.68033705  0.54705448  1  0.07517  6.1e-05  0.990553  0.0  0.088707  2.7e-05  1.064371  0.0  0.08785  1.8e-05  1.066214  0.0  0.091448  0.089142  4.1e-05  1.063333  0.0
H  H29  1  0.74599711  0.31966351  0.45294544  1  0.075143  -6.1e-05  0.990656  0.0  0.08871  -2.7e-05  1.064442  0.0  0.087851  -1.9e-05  1.066287  0.0  0.091413  0.08914  -4.1e-05  1.063406  0.0
C  C30  1  0.34139474  0.45150278  0.10242266  1  -0.138408  -0.011617  3.667515  -0.012  -0.156873  -0.004612  3.9149  -0.005  -0.164239  -0.004414  3.932815  -0.005  -0.070934  -0.152135  -0.004496  3.903094  -0.005
C  C31  1  0.65860599  0.54850411  0.89757923  1  -0.138266  0.011627  3.667444  0.012  -0.156667  0.004611  3.914835  0.005  -0.164024  0.004415  3.932748  0.005  -0.07084  -0.151931  0.004497  3.903015  0.005
C  C32  1  0.17140116  0.41606669  0.56209777  1  0.282408  -0.001538  3.768506  -0.001  0.26342  -0.000426  4.025531  0.0  0.279378  -0.000303  4.039317  0.0  0.096592  0.252598  -0.000624  4.016186  0.0
C  C33  1  0.82859815  0.58393185  0.43790559  1  0.282341  0.001532  3.768492  0.001  0.263434  0.000425  4.025411  0.0  0.279393  0.000303  4.039196  0.0  0.096596  0.252609  0.000624  4.016078  0.0
C  C34  1  0.98809958  0.29003154  0.71844995  1  -0.100229  0.007862  3.790962  0.008  -0.082055  0.003977  4.035663  0.004  -0.094608  0.00292  4.06019  0.003  -0.03588  -0.073906  0.004743  4.01907  0.005
C  C35  1  0.01189355  0.70996491  0.28154784  1  -0.100149  -0.00786  3.790917  -0.008  -0.082019  -0.003981  4.035656  -0.004  -0.094577  -0.002919  4.060189  -0.003  -0.035926  -0.073883  -0.004744  4.019079  -0.005
C  C36  1  0.45852760  0.43991861  0.01884560  1  0.095107  0.009446  3.746661  0.01  0.107914  0.003149  3.972816  0.003  0.112658  0.003396  3.993798  0.004  0.018619  0.104389  0.002979  3.959084  0.003
C  C37  1  0.54146577  0.56009039  0.98115448  1  0.095093  -0.009454  3.746788  -0.01  0.107838  -0.003149  3.972983  -0.003  0.11257  -0.003396  3.993969  -0.004  0.018624  0.104311  -0.002979  3.959245  -0.003
C  C38  1  0.16223060  0.49678149  0.69179300  1  -0.203081  0.002408  3.741781  0.002  -0.225142  0.000502  4.006136  0.001  -0.233695  0.000405  4.026945  0.001  -0.111106  -0.21925  0.000635  3.991692  0.001
C  C39  1  0.83776389  0.50321495  0.30820601  1  -0.203015  -0.002403  3.741738  -0.002  -0.225087  -0.000503  4.006061  -0.001  -0.233642  -0.000404  4.026876  -0.001  -0.111004  -0.219193  -0.000635  3.991615  -0.001
C  C40  1  0.07694311  0.18333934  0.36568348  1  0.683546  0.004202  3.855531  0.008  0.631056  -0.00023  4.165863  0.002  0.670753  0.000295  4.155379  0.002  0.218782  0.604245  -0.000771  4.171774  0.002
C  C41  1  0.92305741  0.81665917  0.63431525  1  0.683589  -0.004203  3.855441  -0.008  0.631107  0.000233  4.165768  -0.002  0.670811  -0.000295  4.155278  -0.002  0.218804  0.604303  0.000771  4.171654  -0.002
C  C42  1  0.99354608  0.21062826  0.58731770  1  -0.057662  -0.002787  3.743973  -0.003  -0.094381  -0.001393  3.994408  -0.002  -0.088743  -0.000962  4.011712  -0.001  -0.082245  -0.097814  -0.00147  3.9827  -0.002
C  C43  1  0.00645205  0.78936712  0.41268075  1  -0.057609  0.002781  3.743924  0.003  -0.094297  0.001394  3.994347  0.002  -0.088654  0.000961  4.011648  0.001  -0.082198  -0.097726  0.00147  3.982642  0.002
C  C44  1  0.07147124  0.43407457  0.76877389  1  -0.029462  -0.002358  3.72317  -0.002  -0.06093  -2.7e-05  3.98575  0.0  -0.056035  -2.8e-05  4.004094  0.0  -0.081607  -0.063762  -0.000148  3.972903  0.0
C  C45  1  0.92852126  0.56592397  0.23122432  1  -0.029519  0.002353  3.723238  0.002  -0.061024  2.8e-05  3.985833  0.0  -0.056136  2.8e-05  4.004163  0.0  -0.081653  -0.063856  0.000148  3.97299  0.0
C  C46  1  0.89698828  0.22030700  0.80197224  1  0.639143  -0.001832  3.890317  -0.005  0.597346  0.001717  4.18451  0.0  0.635186  0.001106  4.178297  0.0  0.207618  0.571491  0.002548  4.187838  0.0
C  C47  1  0.10300452  0.77969258  0.19802435  1  0.639114  0.001832  3.890309  0.005  0.597382  -0.001711  4.184426  0.0  0.635223  -0.001107  4.178214  0.0  0.207645  0.571534  -0.002548  4.187734  0.0
C  C48  1  0.41857094  0.19909246  0.01376585  1  0.142823  0.007321  3.664417  0.008  0.11823  0.001023  3.911236  0.002  0.127288  0.002184  3.931529  0.003  0.04894  0.11162  7e-05  3.898597  0.001
C  C49  1  0.58142733  0.80091545  0.98623002  1  0.142871  -0.007335  3.664321  -0.008  0.118129  -0.001024  3.911153  -0.002  0.127187  -0.002186  3.931449  -0.003  0.048952  0.11153  -7e-05  3.898488  -0.001
C  C50  1  0.08299345  0.27114683  0.50858784  1  -0.177338  -0.010069  3.748982  -0.011  -0.159565  -0.00493  3.992998  -0.006  -0.171777  -0.00326  4.011792  -0.004  -0.028319  -0.151869  -0.00631  3.980621  -0.007
C  C51  1  0.91700947  0.72885064  0.49141399  1  -0.177407  0.010072  3.748969  0.011  -0.159644  0.004931  3.992944  0.006  -0.171865  0.003261  4.011745  0.004  -0.028367  -0.151947  0.00631  3.980568  0.007
C  C52  1  0.27155258  0.33767670  0.13959849  1  0.14076  0.007343  3.693276  0.008  0.111472  0.00089  3.954518  0.002  0.123176  0.001956  3.969779  0.003  0.049603  0.103863  7.6e-05  3.944685  0.001
C  C53  1  0.72844986  0.66233123  0.86040398  1  0.140673  -0.00735  3.693472  -0.008  0.111324  -0.000888  3.954667  -0.002  0.123034  -0.001957  3.969912  -0.003  0.049454  0.103706  -7.5e-05  3.944836  -0.001
C  C54  1  0.49381623  0.30859332  0.97317800  1  -0.140721  -0.011455  3.666302  -0.012  -0.15617  -0.00452  3.903226  -0.005  -0.164137  -0.004282  3.923004  -0.005  -0.073595  -0.151705  -0.004643  3.891189  -0.005
C  C55  1  0.50617942  0.69141462  0.02682030  1  -0.140657  0.011467  3.666281  0.012  -0.156103  0.00452  3.903305  0.005  -0.16406  0.004283  3.92308  0.005  -0.073554  -0.15164  0.004644  3.891258  0.005
C  C56  1  0.34964514  0.61436496  0.53164076  1  -0.070022  3.6e-05  3.609967  0.0  -0.169083  2.7e-05  3.880274  0.0  -0.160813  -1.3e-05  3.883646  0.0  -0.146454  -0.174563  7.3e-05  3.877776  0.0
C  C57  1  0.65036094  0.38563356  0.46836678  1  -0.070186  -4e-05  3.610085  0.0  -0.169278  -2.7e-05  3.88042  0.0  -0.161008  1.4e-05  3.883792  0.0  -0.146504  -0.174751  -7.3e-05  3.877924  0.0
N  N58  1  0.31059907  0.21306998  0.09741672  1  -0.325071  -0.080642  3.329731  -0.099  -0.280638  -0.056364  3.633007  -0.074  -0.313236  -0.047027  3.653513  -0.065  -0.351074  -0.26089  -0.061228  3.620989  -0.078
N  N59  1  0.68939986  0.78693585  0.90258068  1  -0.32508  0.080643  3.329741  0.099  -0.280482  0.056358  3.63292  0.074  -0.31309  0.047028  3.653438  0.065  -0.351031  -0.260727  0.061228  3.620881  0.078
O  O60  1  0.23278110  0.18751406  0.34376761  1  -0.575242  -0.097195  2.094054  -0.127  -0.555676  -0.059184  2.38557  -0.085  -0.59837  -0.045451  2.376081  -0.069  -0.308484  -0.526811  -0.067965  2.391342  -0.094
O  O61  1  0.76722287  0.81248654  0.65623424  1  -0.575221  0.097183  2.094077  0.127  -0.555652  0.059177  2.3856  0.085  -0.598351  0.045451  2.37611  0.069  -0.308453  -0.52678  0.067968  2.391356  0.094
O  O62  1  0.21779472  0.91053427  0.99238998  1  -0.845772  -0.05584  2.013532  -0.071  -0.811662  -0.043017  2.253423  -0.059  -0.844488  -0.034891  2.212526  -0.05  -0.586612  -0.788962  -0.048055  2.281261  -0.063
O  O63  1  0.78219591  0.08947056  0.00760949  1  -0.845776  0.05584  2.013527  0.071  -0.811654  0.043018  2.253419  0.059  -0.844489  0.034889  2.212503  0.05  -0.586638  -0.788946  0.048055  2.281258  0.063
O  O64  1  0.82166809  0.08807807  0.74253047  1  -0.612295  0.087221  2.084321  0.113  -0.586495  0.051956  2.364069  0.074  -0.629507  0.039166  2.354955  0.059  -0.338743  -0.557313  0.060447  2.369572  0.083
O  O65  1  0.17832036  0.91192048  0.25746601  1  -0.612288  -0.087227  2.084219  -0.113  -0.586538  -0.051959  2.363944  -0.074  -0.629547  -0.039164  2.354827  -0.059  -0.338775  -0.557365  -0.060452  2.369436  -0.083
O  O66  1  0.89835715  0.29117660  0.92354466  1  -0.616617  0.000154  1.989917  0.001  -0.564504  0.000521  2.211918  0.001  -0.591097  2.9e-05  2.203343  0.0  -0.315084  -0.545905  0.000715  2.217296  0.001
O  O67  1  0.10163836  0.70882297  0.07645341  1  -0.616552  -0.000154  1.989939  -0.001  -0.564457  -0.000525  2.211925  -0.001  -0.59105  -2.7e-05  2.203351  0.0  -0.315052  -0.545864  -0.000715  2.217294  -0.001
O  O68  1  0.25461934  0.46852245  0.47982954  1  -0.24894  2.8e-05  2.386507  0.0  -0.171793  -0.000173  2.62698  0.0  -0.192423  -0.000151  2.632346  0.0  -0.177275  -0.157227  -0.000196  2.622655  0.0
O  O69  1  0.74538799  0.53147605  0.52017435  1  -0.248813  -2.8e-05  2.386528  0.0  -0.171722  0.000173  2.627023  0.0  -0.19235  0.00015  2.632387  0.0  -0.177251  -0.157156  0.000196  2.622702  0.0
O  O70  1  0.92010998  0.11161026  0.27626280  1  -0.637273  0.001707  2.009476  0.001  -0.579279  0.001255  2.235758  0.001  -0.608776  0.001467  2.22352  0.001  -0.304789  -0.558723  0.001042  2.243457  0.0
O  O71  1  0.07989375  0.88839348  0.72374079  1  -0.637318  -0.001707  2.00934  -0.001  -0.579339  -0.001256  2.235631  -0.001  -0.60884  -0.001469  2.223388  -0.001  -0.304817  -0.558787  -0.001041  2.243324  0.0
O  O72  1  0.56165523  0.04573681  0.27636540  1  -0.835017  0.000898  1.808185  0.0  -0.799454  0.000718  1.97826  0.0  -0.819175  0.000836  1.944246  0.0  -0.596009  -0.785477  0.000592  2.001089  0.0
O  O73  1  0.43834196  0.95426380  0.72363228  1  -0.835212  -0.000898  1.808069  0.0  -0.799635  -0.00072  1.978127  0.0  -0.819361  -0.000836  1.944101  0.0  -0.596061  -0.78566  -0.000592  2.000966  0.0
