# generated using pymatgen
data_Zr6H33C52N5(ClO16)2
_symmetry_space_group_name_H-M   'P 1'
_cell_length_a   14.77049077
_cell_length_b   14.76795851
_cell_length_c   14.77581653
_cell_angle_alpha   60.17871847
_cell_angle_beta   60.04420114
_cell_angle_gamma   60.13504307
_symmetry_Int_Tables_number   1
_chemical_formula_structural   Zr6H33C52N5(ClO16)2
_chemical_formula_sum   'Zr6 H33 C52 N5 Cl2 O32'
_cell_volume   2285.19395908
_cell_formula_units_Z   1
loop_
 _symmetry_equiv_pos_site_id
 _symmetry_equiv_pos_as_xyz
  1  'x, y, z'
loop_
 _atom_site_type_symbol
 _atom_site_label
 _atom_site_symmetry_multiplicity
 _atom_site_fract_x
 _atom_site_fract_y
 _atom_site_fract_z
 _atom_site_occupancy
 _atom_site_pbe_bader_charge
 _atom_site_pbe_bader_spin_density
 _atom_site_pbe_cm5_charge
 _atom_site_pbe_ddec_charge
 _atom_site_pbe_ddec_spin_density
 _atom_site_pbe_ddec_sum_bond_order
 _atom_site_pbe_magmom
Zr  Zr0  1  0.87417836  0.88377682  0.61952467  1  2.636077  0  1.630832  2.372593  0  2.76066  0
Zr  Zr1  1  0.11649439  0.11812617  0.38366772  1  2.624108  0  1.624459  2.361754  0  2.784731  0
Zr  Zr2  1  0.11340180  0.88067559  0.62264816  1  2.632391  0  1.622398  2.371701  0  2.745428  0
Zr  Zr3  1  0.87646616  0.12132227  0.38106581  1  2.638907  0  1.630713  2.373656  0  2.758208  0
Zr  Zr4  1  0.11545361  0.88225613  0.38163072  1  2.633708  0  1.625891  2.365742  0  2.771986  0
Zr  Zr5  1  0.87690783  0.12214638  0.61929762  1  2.635273  0  1.625928  2.368018  0  2.765742  0
H  H6  1  0.08984792  0.71897225  0.59492032  1  0.607731  0  0.328402  0.419194  0  0.864694  0
H  H7  1  0.09509505  0.09303632  0.21887057  1  0.591964  0  0.328704  0.419942  0  0.86461  0
H  H8  1  0.09087628  0.09366293  0.59643392  1  0.614603  0  0.333114  0.427075  0  0.851467  0
H  H9  1  0.71343339  0.09753454  0.59366490  1  0.605734  0  0.33382  0.42722  0  0.850147  0
H  H10  1  0.82658551  0.61071977  0.61560337  1  0.099193  0  0.10325  0.11197  0  1.005484  0
H  H11  1  0.15117660  0.58015516  0.37035029  1  0.088616  0  0.105603  0.118566  0  1.009285  0
H  H12  1  0.83489135  0.43861338  0.61098647  1  0.085063  0  0.105329  0.110413  0  0.999382  0
H  H13  1  0.58663351  0.84960266  0.92384372  1  0.065086  0  0.103414  0.114092  0  1.005756  0
H  H14  1  0.59622456  0.13617452  0.92217130  1  0.094771  0  0.102938  0.113485  0  1.017318  0
H  H15  1  0.41806152  0.85298435  0.09525405  1  0.087285  0  0.101943  0.104069  0  1.007575  0
H  H16  1  0.14470021  0.85629780  0.08113062  1  0.075817  0  0.102688  0.113344  0  1.006061  0
H  H17  1  0.83596288  0.12485752  0.11001542  1  0.087527  0  0.108398  0.121469  0  1.001138  0
H  H18  1  0.13749226  0.86122071  0.91228064  1  0.085121  0  0.103589  0.108507  0  1.00405  0
H  H19  1  0.58372161  0.42459895  0.64303986  1  0.05909  0  0.10014  0.107696  0  1.012105  0
H  H20  1  0.59639264  0.42178726  0.34784689  1  0.103823  0  0.107948  0.121682  0  0.99992  0
H  H21  1  0.41208365  0.59239841  0.63930265  1  0.108025  0  0.102613  0.106017  0  1.005861  0
H  H22  1  0.98737666  0.57612547  0.74082235  1  0.077456  0  0.098826  0.10295  0  1.047566  0
H  H23  1  0.00253058  0.40533834  0.73639433  1  0.084326  0  0.098195  0.098077  0  1.015552  0
H  H24  1  0.99937568  0.23684392  0.07288218  1  0.073305  0  0.09846  0.102377  0  1.045651  0
H  H25  1  0.00895432  0.23404622  0.90390018  1  0.067339  0  0.097772  0.097803  0  1.014652  0
H  H26  1  0.58421400  0.14121246  0.34659149  1  0.074284  0  0.100541  0.110069  0  1.010446  0
H  H27  1  0.59590865  0.85005685  0.63472656  1  0.085739  0  0.10743  0.120747  0  1.00363  0
H  H28  1  0.41416420  0.13349458  0.35431958  1  0.030976  0  0.099669  0.101562  0  1.0154  0
H  H29  1  0.18070256  0.33846558  0.33806395  1  0.482974  0  0.303407  0.312686  0  0.989433  0
H  H30  1  0.23868075  0.43848094  0.29391927  1  0.468901  0  0.313591  0.307481  0  0.935695  0
H  H31  1  0.35063143  0.16636397  0.16223639  1  0.494853  0  0.303145  0.312323  0  0.991229  0
H  H32  1  0.45393590  0.22191916  0.05345093  1  0.447461  0  0.310818  0.301964  0  0.942587  0
H  H33  1  0.80769357  0.15537168  0.86565860  1  0.512685  0  0.304287  0.313568  0  0.990563  0
H  H34  1  0.75253404  0.20477626  0.97542366  1  0.452487  0  0.313218  0.3048  0  0.940794  0
H  H35  1  0.35883134  0.66940136  0.31445717  1  0.498727  0  0.30343  0.311639  0  0.992412  0
H  H36  1  0.47205541  0.57011818  0.25615133  1  0.429332  0  0.312484  0.305502  0  0.938316  0
H  H37  1  0.35607710  0.81462052  0.66287313  1  0.502456  0  0.306464  0.316914  0  0.984701  0
H  H38  1  0.46675777  0.76032528  0.71078463  1  0.437466  0  0.314692  0.307581  0  0.936456  0
C  C39  1  0.99039798  0.70306758  0.49591271  1  1.546145  0  0.239451  0.643816  0  4.083602  0
C  C40  1  0.30833167  0.99595913  0.20194359  1  1.489243  0  0.230787  0.64731  0  4.084891  0
C  C41  1  0.99627078  0.30964538  0.49481319  1  1.515207  0  0.229572  0.647074  0  4.089455  0
C  C42  1  0.69587100  0.99876761  0.80815943  1  1.541244  0  0.239138  0.645291  0  4.079991  0
C  C43  1  0.98435677  0.70468754  0.81130337  1  1.602494  0  0.236388  0.658731  0  4.110747  0
C  C44  1  0.69678537  0.99907262  0.49309348  1  1.536394  0  0.240369  0.646087  0  4.080892  0
C  C45  1  0.99180321  0.30929975  0.20261900  1  1.577725  0  0.235781  0.66233  0  4.105949  0
C  C46  1  0.30597409  0.99331149  0.49907442  1  1.510245  0  0.231171  0.651131  0  4.080904  0
C  C47  1  0.30422038  0.69914568  0.49806357  1  1.509854  0  0.231248  0.649066  0  4.081754  0
C  C48  1  0.98944974  0.99668477  0.81181930  1  1.527339  0  0.229485  0.646178  0  4.086978  0
C  C49  1  0.69756774  0.31093881  0.49718234  1  1.553323  0  0.239322  0.644574  0  4.081558  0
C  C50  1  0.99408318  0.99545252  0.20103770  1  1.549383  0  0.238978  0.641911  0  4.083533  0
C  C51  1  0.99688221  0.41178050  0.48975549  1  -0.027022  0  -0.033646  -0.174061  0  3.920691  0
C  C52  1  0.98983551  0.60373685  0.49302723  1  -0.081716  0  -0.014391  -0.010243  0  4.0039  0
C  C53  1  0.08855120  0.45179961  0.41844331  1  0.523559  0  0.111845  0.309557  0  4.076702  0
C  C54  1  0.89865435  0.56549490  0.56194958  1  0.006048  0  -0.104702  -0.144799  0  4.026824  0
C  C55  1  0.08195840  0.54839937  0.42267538  1  0.001152  0  -0.095324  -0.214693  0  3.921834  0
C  C56  1  0.90372892  0.47077609  0.55914560  1  -0.06264  0  -0.085479  -0.073293  0  4.021925  0
C  C57  1  0.41143263  0.99578286  0.10547331  1  0.023379  0  -0.030676  -0.169728  0  3.913713  0
C  C58  1  0.59936145  0.99448724  0.91326400  1  -0.040501  0  -0.014486  -0.00981  0  4.006085  0
C  C59  1  0.46241108  0.07739878  0.05771514  1  0.44813  0  0.114653  0.314033  0  4.06148  0
C  C60  1  0.55116866  0.91208543  0.96192415  1  0.046004  0  -0.104867  -0.143449  0  4.022759  0
C  C61  1  0.55634996  0.07424058  0.96104438  1  -0.029812  0  -0.096086  -0.215759  0  3.932474  0
C  C62  1  0.45867917  0.91422887  0.05638997  1  -0.083967  0  -0.086554  -0.071886  0  4.028639  0
C  C63  1  0.98411118  0.99530146  0.91508608  1  -0.003294  0  -0.032891  -0.173225  0  3.915566  0
C  C64  1  0.99033450  0.99194949  0.10372099  1  0.034549  0  -0.014328  -0.008707  0  4.001424  0
C  C65  1  0.89527914  0.07098689  0.97180150  1  0.508267  0  0.113842  0.309212  0  4.071465  0
C  C66  1  0.07630060  0.91526160  0.04981604  1  -0.033684  0  -0.106253  -0.145384  0  4.020223  0
C  C67  1  0.90163998  0.06716161  0.06589667  1  -0.083661  0  -0.094896  -0.218932  0  3.93012  0
C  C68  1  0.07185680  0.91829989  0.95697156  1  -0.039147  0  -0.086799  -0.070597  0  4.027573  0
C  C69  1  0.40681916  0.60208587  0.49258555  1  0.024155  0  -0.030235  -0.170589  0  3.910955  0
C  C70  1  0.59868637  0.41394233  0.49508762  1  0.028602  0  -0.014314  -0.010023  0  4.004778  0
C  C71  1  0.45949862  0.55501578  0.40686716  1  0.451838  0  0.114464  0.314176  0  4.05749  0
C  C72  1  0.54825827  0.46157647  0.57830224  1  0.031856  0  -0.106318  -0.142565  0  4.027266  0
C  C73  1  0.55542087  0.46049840  0.41114396  1  -0.108888  0  -0.094867  -0.214238  0  3.920776  0
C  C74  1  0.45382357  0.55394427  0.57577631  1  -0.103565  0  -0.086758  -0.073431  0  4.02755  0
C  C75  1  0.98011782  0.60448124  0.91395323  1  0.074799  0  -0.013015  -0.121946  0  3.916058  0
C  C76  1  0.98884938  0.50598119  0.90921854  1  0.009101  0  -0.002052  0.066176  0  3.958012  0
C  C77  1  0.96894601  0.60748365  0.01139354  1  0.0498  0  0.011215  0.06314  0  4.048396  0
C  C78  1  0.99379499  0.50154948  0.81274401  1  -0.042299  0  -0.095216  -0.131913  0  3.967862  0
C  C79  1  0.00103663  0.40578260  0.81073871  1  -0.031359  0  -0.093749  -0.079197  0  4.030996  0
C  C80  1  0.98608380  0.41224620  0.10278217  1  0.057521  0  -0.014419  -0.124737  0  3.918771  0
C  C81  1  0.97189418  0.51048698  0.10666929  1  0.088901  0  0.010411  0.061277  0  4.049194  0
C  C82  1  0.99211795  0.40815354  0.00516991  1  -0.026939  0  -0.002061  0.067965  0  3.956574  0
C  C83  1  0.00039831  0.31061117  0.99977628  1  0.004743  0  -0.095937  -0.133796  0  3.972436  0
C  C84  1  0.00444934  0.30948245  0.90506050  1  -0.086981  0  -0.094999  -0.081689  0  4.033411  0
C  C85  1  0.40822530  0.98904526  0.49844210  1  0.004196  0  -0.030225  -0.171203  0  3.914626  0
C  C86  1  0.59846141  0.99538461  0.49155162  1  -0.066744  0  -0.014871  -0.008336  0  4.006318  0
C  C87  1  0.45995308  0.90546666  0.57943360  1  0.468088  0  0.115219  0.315757  0  4.073288  0
C  C88  1  0.54883373  0.07656617  0.41042567  1  0.013576  0  -0.107469  -0.147907  0  4.029778  0
C  C89  1  0.55533981  0.91161073  0.57326422  1  -0.003728  0  -0.095857  -0.219312  0  3.923078  0
C  C90  1  0.45521244  0.07198126  0.41527943  1  0.013785  0  -0.086152  -0.068098  0  4.028537  0
N  N91  1  0.18258607  0.39943767  0.34993387  1  -1.295336  0  -0.589913  -0.612964  0  3.362524  0
N  N92  1  0.42566863  0.15706405  0.10144476  1  -1.261808  0  -0.590893  -0.612042  0  3.347716  0
N  N93  1  0.80481198  0.14515320  0.94017504  1  -1.321752  0  -0.588967  -0.61098  0  3.356235  0
N  N94  1  0.42014118  0.59484550  0.32307505  1  -1.262912  0  -0.591993  -0.617851  0  3.345559  0
N  N95  1  0.42063466  0.82229202  0.66282511  1  -1.262994  0  -0.587439  -0.612687  0  3.357198  0
Cl  Cl96  1  0.95345790  0.51762130  0.22798843  1  -0.175399  0  0.006881  -0.0448  0  1.6002  0
Cl  Cl97  1  0.94808645  0.72913800  0.01954990  1  -0.173164  0  0.01135  -0.039339  0  1.603128  0
O  O98  1  0.91421365  0.74085964  0.57433787  1  -1.188186  0  -0.35312  -0.618611  0  2.277868  0
O  O99  1  0.26335651  0.07449113  0.24250803  1  -1.1888  0  -0.362243  -0.628215  0  2.325239  0
O  O100  1  0.07478040  0.26461987  0.42083683  1  -1.195089  0  -0.363552  -0.634436  0  2.338139  0
O  O101  1  0.73149150  0.92542004  0.76534633  1  -1.172027  0  -0.354617  -0.612816  0  2.282911  0
O  O102  1  0.06536929  0.73827834  0.77123107  1  -1.166749  0  -0.348718  -0.61559  0  2.273315  0
O  O103  1  0.73456220  0.07767550  0.41804550  1  -1.171049  0  -0.355959  -0.617802  0  2.270294  0
O  O104  1  0.91516463  0.26936964  0.24287056  1  -1.174033  0  -0.352503  -0.612599  0  2.293496  0
O  O105  1  0.26214906  0.91830818  0.57657546  1  -1.195645  0  -0.35935  -0.628128  0  2.312407  0
O  O106  1  0.26141068  0.74101007  0.42215091  1  -1.187917  0  -0.360731  -0.628448  0  2.321752  0
O  O107  1  0.91542996  0.07565260  0.76754685  1  -1.193454  0  -0.359368  -0.627584  0  2.316749  0
O  O108  1  0.73590355  0.27021841  0.57531529  1  -1.1802  0  -0.358997  -0.622456  0  2.278636  0
O  O109  1  0.07280296  0.92086646  0.23849907  1  -1.181575  0  -0.355421  -0.615345  0  2.279857  0
O  O110  1  0.06785546  0.92169515  0.76995492  1  -1.188335  0  -0.359749  -0.628945  0  2.293969  0
O  O111  1  0.73561937  0.26926561  0.42221678  1  -1.182644  0  -0.354678  -0.618047  0  2.287587  0
O  O112  1  0.91924597  0.07440054  0.23876805  1  -1.192767  0  -0.35638  -0.62485  0  2.293717  0
O  O113  1  0.26164191  0.73623017  0.57774897  1  -1.183101  0  -0.35811  -0.626106  0  2.266429  0
O  O114  1  0.90848602  0.74499069  0.77070436  1  -1.176595  0  -0.348007  -0.608669  0  2.286264  0
O  O115  1  0.26438696  0.07195122  0.42413618  1  -1.194383  0  -0.362821  -0.630409  0  2.287933  0
O  O116  1  0.07249523  0.26887110  0.23646657  1  -1.173561  0  -0.347319  -0.62017  0  2.263173  0
O  O117  1  0.73538949  0.92408838  0.57102692  1  -1.184567  0  -0.359537  -0.623077  0  2.300727  0
O  O118  1  0.73485277  0.07664739  0.76713130  1  -1.184968  0  -0.359455  -0.627414  0  2.287689  0
O  O119  1  0.06858934  0.74170664  0.42122845  1  -1.183891  0  -0.358816  -0.622033  0  2.296227  0
O  O120  1  0.26665977  0.92094917  0.23955046  1  -1.188656  0  -0.357674  -0.628646  0  2.268901  0
O  O121  1  0.91966806  0.26981514  0.57235001  1  -1.187452  0  -0.357578  -0.625348  0  2.276757  0
O  O122  1  0.79376540  0.07041981  0.56688512  1  -1.230516  0  -0.696318  -1.070006  0  2.364804  0
O  O123  1  0.06353206  0.06740947  0.56958995  1  -1.239752  0  -0.697033  -1.066293  0  2.36594  0
O  O124  1  0.06473524  0.06835163  0.29902745  1  -1.223185  0  -0.696328  -1.069119  0  2.368007  0
O  O125  1  0.06112106  0.79917480  0.56976383  1  -1.23804  0  -0.693616  -1.06702  0  2.359951  0
O  O126  1  0.14492613  0.95013904  0.45318294  1  -1.194634  0  -0.795519  -1.144764  0  2.145035  0
O  O127  1  0.94646122  0.95254298  0.45064193  1  -1.203323  0  -0.792287  -1.147539  0  2.131647  0
O  O128  1  0.94743654  0.15013160  0.45098546  1  -1.200861  0  -0.794276  -1.142534  0  2.134957  0
O  O129  1  0.94510778  0.95260188  0.64952728  1  -1.196062  0  -0.790934  -1.143807  0  2.127201  0
