# generated using pymatgen
data_CuH14C18(NO)4
_symmetry_space_group_name_H-M   'P 1'
_cell_length_a   10.93308871
_cell_length_b   16.27810379
_cell_length_c   15.97554943
_cell_angle_alpha   125.35510271
_cell_angle_beta   89.99868636
_cell_angle_gamma   90.00075407
_symmetry_Int_Tables_number   1
_chemical_formula_structural   CuH14C18(NO)4
_chemical_formula_sum   'Cu4 H56 C72 N16 O16'
_cell_volume   2318.83496433
_cell_formula_units_Z   4
loop_
 _symmetry_equiv_pos_site_id
 _symmetry_equiv_pos_as_xyz
  1  'x, y, z'
loop_
 _atom_site_type_symbol
 _atom_site_label
 _atom_site_symmetry_multiplicity
 _atom_site_fract_x
 _atom_site_fract_y
 _atom_site_fract_z
 _atom_site_occupancy
 _atom_site_pbe_bader_charge
 _atom_site_pbe_bader_spin_density
 _atom_site_pbe_cm5_charge
 _atom_site_pbe_ddec_charge
 _atom_site_pbe_ddec_spin_density
 _atom_site_pbe_ddec_sum_bond_order
 _atom_site_pbe_magmom
Cu  Cu0  1  0.99685923  0.01803180  0.25388057  1  1.052057  0.560351  0.754269  0.798927  0.74837  2.182694  0.56
Cu  Cu1  1  0.49687200  0.48196336  0.74611840  1  1.052045  -0.560363  0.754295  0.798968  -0.748383  2.182676  -0.56
Cu  Cu2  1  0.00312851  0.98197589  0.74613101  1  1.052  0.56035  0.754279  0.799046  0.748364  2.182543  0.56
Cu  Cu3  1  0.50313404  0.51802111  0.25386035  1  1.05194  -0.560361  0.754314  0.799116  -0.748373  2.182511  -0.561
H  H4  1  0.21228333  0.01843578  0.97535631  1  0.553573  0.000339  0.307674  0.308575  0.000269  0.993507  0.0
H  H5  1  0.71230590  0.48156749  0.02463650  1  0.553654  -0.000339  0.307715  0.308693  -0.000269  0.99337  0.0
H  H6  1  0.78769527  0.98154950  0.02463923  1  0.553586  0.000339  0.307725  0.308644  0.000269  0.993454  0.0
H  H7  1  0.28769831  0.51844986  0.97536344  1  0.553599  -0.000339  0.307729  0.308638  -0.000269  0.993463  0.0
H  H8  1  0.81683478  0.99630673  0.53363179  1  0.575681  0.000312  0.303129  0.297601  0.000238  1.009285  0.001
H  H9  1  0.31685065  0.50368697  0.46637643  1  0.575683  -0.000312  0.303132  0.297508  -0.000238  1.00929  -0.001
H  H10  1  0.18317491  0.00369299  0.46637777  1  0.575836  0.000312  0.303108  0.297448  0.000238  1.009393  0.001
H  H11  1  0.68315905  0.49631801  0.53361995  1  0.575846  -0.000312  0.303049  0.297334  -0.000238  1.009508  -0.001
H  H12  1  0.31954074  0.22610352  0.09316340  1  0.102221  -0.000155  0.111487  0.132169  -0.000239  0.992106  0.0
H  H13  1  0.81954323  0.27388547  0.90682100  1  0.102455  0.000155  0.111511  0.132189  0.000239  0.99215  0.0
H  H14  1  0.68045158  0.77386102  0.90680745  1  0.102055  -0.000155  0.111526  0.132138  -0.00024  0.99224  0.0
H  H15  1  0.18043994  0.72614165  0.09320013  1  0.10218  0.000155  0.111577  0.132215  0.00024  0.992185  0.0
H  H16  1  0.16789007  0.40362050  0.39880705  1  0.084858  -2e-05  0.102195  0.102039  1.2e-05  1.023356  0.0
H  H17  1  0.66786881  0.09637136  0.60119886  1  0.084775  2e-05  0.102197  0.102037  -1.2e-05  1.023313  0.0
H  H18  1  0.83212237  0.59637779  0.60118101  1  0.08444  -2e-05  0.102189  0.102008  1.2e-05  1.02336  0.0
H  H19  1  0.33211802  0.90362783  0.39881738  1  0.084661  2e-05  0.102171  0.101989  -1.2e-05  1.023335  0.0
H  H20  1  0.06544098  0.25317921  0.37205335  1  0.094556  0.000108  0.108909  0.125221  5.4e-05  0.998557  0.0
H  H21  1  0.56543710  0.24681628  0.62794566  1  0.094558  -0.000108  0.108925  0.125258  -5.4e-05  0.998525  0.0
H  H22  1  0.93457146  0.74681284  0.62794046  1  0.100554  0.000109  0.108873  0.125188  5.4e-05  0.998477  0.0
H  H23  1  0.43456528  0.75318951  0.37205679  1  0.094579  -0.000109  0.108931  0.12527  -5.4e-05  0.998487  0.0
H  H24  1  0.14449984  0.84287761  0.01047066  1  0.085356  -9.6e-05  0.107536  0.166285  7e-06  0.975176  0.0
H  H25  1  0.64453641  0.65711960  0.98952399  1  0.08586  9.5e-05  0.107473  0.166222  -7e-06  0.975126  0.0
H  H26  1  0.85547967  0.15712287  0.98954999  1  0.0858  -9.5e-05  0.107503  0.166307  7e-06  0.975097  0.0
H  H27  1  0.35549249  0.34288792  0.01045978  1  0.086003  9.5e-05  0.107583  0.166433  -7e-06  0.974907  0.0
H  H28  1  0.07783775  0.87133392  0.92816605  1  0.069288  -0.000131  0.102672  0.154773  -5.4e-05  1.003769  0.0
H  H29  1  0.57786473  0.62867313  0.07183501  1  0.069346  0.000131  0.102707  0.154741  5.4e-05  1.003629  0.0
H  H30  1  0.92214084  0.12866030  0.07184964  1  0.068947  -0.000131  0.102707  0.154768  -5.4e-05  1.003672  0.0
H  H31  1  0.42216326  0.37134636  0.92815464  1  0.06885  0.000131  0.102688  0.154786  5.5e-05  1.003751  0.0
H  H32  1  0.99023886  0.88295273  0.02919095  1  0.079437  -0.000283  0.104269  0.150294  -0.000197  1.005091  0.0
H  H33  1  0.49027079  0.61705586  0.97081152  1  0.056707  0.000286  0.104255  0.150225  0.000197  1.00505  0.0
H  H34  1  0.00973791  0.11705598  0.97083374  1  0.056669  -0.000286  0.104276  0.150294  -0.000197  1.004979  0.0
H  H35  1  0.50975079  0.38295765  0.02917519  1  0.056421  0.000286  0.104294  0.150325  0.000197  1.004938  0.0
H  H36  1  0.71352298  0.79661945  0.41729332  1  0.105698  -0.000171  0.112061  0.13282  -0.000264  0.991657  0.0
H  H37  1  0.21353191  0.70336995  0.58270601  1  0.105817  0.000171  0.112093  0.132881  0.000263  0.991716  0.0
H  H38  1  0.28649952  0.20336935  0.58270773  1  0.105412  -0.000171  0.11208  0.132867  -0.000264  0.991673  0.0
H  H39  1  0.78648510  0.29663173  0.41729191  1  0.105903  0.000171  0.112092  0.132862  0.000264  0.991698  0.0
H  H40  1  0.81331988  0.63516490  0.09778475  1  0.061924  -1.8e-05  0.100193  0.100195  1.4e-05  1.023362  0.0
H  H41  1  0.31330899  0.86483757  0.90221956  1  0.061835  1.8e-05  0.100169  0.100166  -1.4e-05  1.0233  0.0
H  H42  1  0.18668158  0.36483560  0.90220943  1  0.061956  -1.8e-05  0.10019  0.100211  1.4e-05  1.023281  0.0
H  H43  1  0.68668333  0.13515841  0.09778816  1  0.061853  1.8e-05  0.100193  0.100204  -1.4e-05  1.023301  0.0
H  H44  1  0.90563299  0.78982937  0.12601450  1  0.075618  0.0  0.107309  0.12061  -2.1e-05  0.9994  0.0
H  H45  1  0.40561892  0.71017837  0.87399661  1  0.075513  -0.0  0.10729  0.120572  2.1e-05  0.999462  0.0
H  H46  1  0.09435476  0.21019256  0.87399903  1  0.076019  0.0  0.107262  0.120533  -2.1e-05  0.999358  0.0
H  H47  1  0.59435693  0.28981549  0.12600566  1  0.076021  -0.0  0.107311  0.120656  2.1e-05  0.999363  0.0
H  H48  1  0.01909179  0.14846126  0.48529551  1  0.102043  -0.000299  0.105297  0.153439  -0.000191  1.00058  0.0
H  H49  1  0.51910616  0.35153383  0.51471444  1  0.101609  0.000299  0.105375  0.153587  0.000191  1.000552  0.0
H  H50  1  0.98089229  0.85154771  0.51473120  1  0.101867  -0.000299  0.105349  0.153526  -0.000191  1.000636  0.0
H  H51  1  0.48090902  0.64846494  0.48527196  1  0.101943  0.000299  0.105328  0.153565  0.000191  1.000547  0.0
H  H52  1  0.92933218  0.15753829  0.58399509  1  0.070397  -0.000122  0.103605  0.155224  -4.9e-05  0.992663  0.0
H  H53  1  0.42935304  0.34246425  0.41601791  1  0.070268  0.000122  0.103576  0.155177  4.9e-05  0.992717  0.0
H  H54  1  0.07064001  0.84246315  0.41602225  1  0.070246  -0.000122  0.103614  0.155217  -4.9e-05  0.99265  0.0
H  H55  1  0.57065757  0.65754658  0.58397505  1  0.070372  0.000122  0.103629  0.15528  4.9e-05  0.992621  0.0
H  H56  1  0.86417043  0.18750267  0.50242265  1  0.104069  -6.6e-05  0.108732  0.167157  2e-06  0.970134  0.0
H  H57  1  0.36418839  0.31249151  0.49758656  1  0.10544  6.6e-05  0.108744  0.167227  -2e-06  0.970142  0.0
H  H58  1  0.13580725  0.81249503  0.49759285  1  0.105089  -6.5e-05  0.108777  0.167236  2e-06  0.970112  0.0
H  H59  1  0.63582770  0.68750801  0.50240021  1  0.104007  6.5e-05  0.10877  0.167219  -2e-06  0.97012  0.0
C  C60  1  0.11897817  0.99970814  0.07924554  1  1.042088  -0.001079  0.239996  0.438987  -0.000238  3.934913  0.0
C  C61  1  0.61899475  0.50029203  0.92075107  1  1.042186  0.001079  0.240104  0.438969  0.000238  3.934999  0.0
C  C62  1  0.88100774  0.00028691  0.92076047  1  1.042675  -0.001078  0.240076  0.439163  -0.000238  3.934787  0.0
C  C63  1  0.38101312  0.49971879  0.07924189  1  1.042475  0.00108  0.239992  0.439073  0.000239  3.934951  0.0
C  C64  1  0.20228137  0.14814739  0.13686839  1  0.332551  0.003499  0.092985  0.147867  0.00253  4.032145  0.003
C  C65  1  0.70228332  0.35184907  0.86312733  1  0.332628  -0.003499  0.092938  0.147964  -0.00253  4.03228  -0.003
C  C66  1  0.79771643  0.85183885  0.86312383  1  0.332692  0.003499  0.09311  0.148108  0.00253  4.032112  0.003
C  C67  1  0.29770900  0.64816111  0.13687665  1  0.332206  -0.0035  0.09312  0.148066  -0.00253  4.031972  -0.003
C  C68  1  0.26359634  0.23089142  0.15226062  1  0.04304  0.000352  -0.086043  -0.175885  0.000158  3.950882  0.0
C  C69  1  0.76359335  0.26910363  0.84773217  1  0.04297  -0.000352  -0.086094  -0.17599  -0.000158  3.951206  0.0
C  C70  1  0.73640878  0.76908906  0.84772499  1  0.043254  0.000352  -0.086097  -0.175883  0.000158  3.951309  0.0
C  C71  1  0.23640354  0.73091055  0.15227567  1  0.043129  -0.000352  -0.086097  -0.175915  -0.000158  3.951265  0.0
C  C72  1  0.25153289  0.32280061  0.24885127  1  -0.015823  -0.009839  -0.029367  -0.048892  -0.007053  4.009125  -0.008
C  C73  1  0.75152364  0.17719667  0.75114319  1  -0.015753  0.009841  -0.029314  -0.048741  0.007054  4.009442  0.008
C  C74  1  0.74847863  0.67718672  0.75113330  1  -0.016027  -0.00984  -0.029374  -0.048766  -0.007054  4.009577  -0.008
C  C75  1  0.24848057  0.82281488  0.24886587  1  -0.0161  0.00984  -0.029464  -0.048823  0.007054  4.009744  0.008
C  C76  1  0.17892742  0.33012223  0.32627808  1  -0.064606  -0.001545  -0.095629  -0.108833  -0.001007  4.017406  -0.001
C  C77  1  0.67891763  0.16987351  0.67371907  1  -0.063389  0.001544  -0.095659  -0.108882  0.001007  4.017494  0.001
C  C78  1  0.82108319  0.66987267  0.67371083  1  -0.062728  -0.001544  -0.095665  -0.108881  -0.001007  4.017437  -0.001
C  C79  1  0.32108475  0.83013205  0.32628706  1  -0.062933  0.001543  -0.095604  -0.108812  0.001007  4.017316  0.001
C  C80  1  0.12132953  0.24702319  0.31225202  1  -0.007507  -0.000119  -0.092678  -0.158387  -0.000156  3.993948  0.0
C  C81  1  0.62133124  0.25297456  0.68774332  1  -0.008625  0.00012  -0.092683  -0.158354  0.000156  3.994016  0.0
C  C82  1  0.87867102  0.75297629  0.68773977  1  -0.015323  -0.00012  -0.092682  -0.158329  -0.000156  3.993912  0.0
C  C83  1  0.37866931  0.74702906  0.31225870  1  -0.00922  0.00012  -0.092703  -0.158387  0.000156  3.99397  0.0
C  C84  1  0.13408532  0.15486963  0.21631477  1  0.380712  0.002039  0.091634  0.155792  0.001949  4.05142  0.002
C  C85  1  0.63409431  0.34512884  0.78368035  1  0.380413  -0.002039  0.091697  0.155627  -0.001949  4.051558  -0.002
C  C86  1  0.86590425  0.84512805  0.78367929  1  0.38092  0.002039  0.091622  0.155552  0.00195  4.051498  0.002
C  C87  1  0.36589709  0.65487554  0.21632204  1  0.381296  -0.00204  0.091636  0.155635  -0.001951  4.051375  -0.002
C  C88  1  0.08087991  0.89310357  0.00714145  1  -0.049297  0.000228  -0.229597  -0.480712  1.1e-05  3.925633  0.0
C  C89  1  0.58090685  0.60690033  0.99285807  1  -0.027062  -0.000231  -0.22954  -0.480433  -1.1e-05  3.925174  0.0
C  C90  1  0.91909960  0.10689422  0.99287472  1  -0.026601  0.000231  -0.229626  -0.480689  1.1e-05  3.925231  0.0
C  C91  1  0.41911382  0.39311410  0.00713035  1  -0.026475  -0.000231  -0.229651  -0.480853  -1.1e-05  3.925226  0.0
C  C92  1  0.31928173  0.41400918  0.27250066  1  1.549658  0.000965  0.199953  0.566524  -0.000445  4.207176  0.003
C  C93  1  0.81926076  0.08598679  0.72749410  1  1.549402  -0.000964  0.199811  0.566142  0.000446  4.207944  -0.003
C  C94  1  0.68072888  0.58597793  0.72747687  1  1.549677  0.000965  0.199728  0.566102  -0.000446  4.207848  0.003
C  C95  1  0.18073339  0.91402340  0.27252060  1  1.549501  -0.000964  0.199681  0.566008  0.000446  4.208041  -0.003
C  C96  1  0.89038642  0.03046877  0.43127112  1  1.008796  -0.000857  0.23935  0.43744  8e-06  3.934532  0.0
C  C97  1  0.39039767  0.46952905  0.56873875  1  1.00798  0.000859  0.239431  0.437484  -7e-06  3.934013  0.0
C  C98  1  0.10961138  0.96952897  0.56873936  1  1.007559  -0.000857  0.239366  0.437572  8e-06  3.934238  0.0
C  C99  1  0.60961569  0.53047390  0.43125286  1  1.006138  0.000856  0.239237  0.43742  -8e-06  3.934215  0.0
C  C100  1  0.81261504  0.87979133  0.37056406  1  0.373281  0.003503  0.091674  0.144795  0.002564  4.046808  0.003
C  C101  1  0.31261624  0.62020317  0.62944328  1  0.373077  -0.003503  0.091637  0.1448  -0.002564  4.0467  -0.003
C  C102  1  0.18738917  0.12020214  0.62944054  1  0.373179  0.003503  0.091671  0.144961  0.002564  4.047033  0.003
C  C103  1  0.68738522  0.37979887  0.37055734  1  0.372869  -0.003503  0.091684  0.144891  -0.002564  4.046771  -0.003
C  C104  1  0.75657844  0.79541198  0.35513448  1  0.015518  0.000653  -0.086421  -0.174552  0.00033  3.955876  0.001
C  C105  1  0.25657472  0.70458004  0.64486948  1  0.015909  -0.000654  -0.086492  -0.174653  -0.000331  3.955965  -0.001
C  C106  1  0.24342943  0.20457629  0.64486252  1  0.016202  0.000654  -0.08644  -0.174601  0.00033  3.956089  0.001
C  C107  1  0.74342308  0.29542394  0.35513524  1  0.015982  -0.000653  -0.086433  -0.174722  -0.00033  3.95597  -0.001
C  C108  1  0.75681581  0.70738564  0.25495694  1  -0.027377  -0.010297  -0.028499  -0.046003  -0.007365  4.006804  -0.008
C  C109  1  0.25680108  0.79260843  0.74504677  1  -0.027395  0.0103  -0.028405  -0.046179  0.007366  4.006978  0.008
C  C110  1  0.24319114  0.29260518  0.74503817  1  -0.027857  -0.010299  -0.028526  -0.046323  -0.007365  4.007024  -0.008
C  C111  1  0.74318849  0.20739507  0.25495960  1  -0.027744  0.0103  -0.028587  -0.046069  0.007366  4.006803  0.008
C  C112  1  0.81256016  0.70579281  0.17405502  1  -0.033258  -0.001472  -0.094575  -0.108599  -0.000957  4.015673  -0.001
C  C113  1  0.31254398  0.79420706  0.82595054  1  -0.0336  0.001473  -0.094579  -0.108486  0.000957  4.015514  0.001
C  C114  1  0.18744222  0.29420522  0.82594174  1  -0.033226  -0.001472  -0.094561  -0.108575  -0.000957  4.015541  -0.001
C  C115  1  0.68744102  0.20579213  0.17405498  1  -0.033137  0.001473  -0.094583  -0.108653  0.000957  4.015547  0.001
C  C116  1  0.86447633  0.79129506  0.18896138  1  0.015797  -0.000373  -0.093753  -0.161147  -0.000329  3.998775  0.0
C  C117  1  0.36446672  0.70870809  0.81104665  1  0.016078  0.000373  -0.093749  -0.161125  0.000329  3.998642  0.0
C  C118  1  0.13552056  0.20870901  0.81104401  1  0.015668  -0.000373  -0.093708  -0.160964  -0.000329  3.998485  0.0
C  C119  1  0.63552103  0.29128898  0.18895341  1  0.015621  0.000373  -0.093755  -0.161171  0.000329  3.99856  0.0
C  C120  1  0.86400483  0.87957628  0.28897542  1  0.35315  0.002173  0.090199  0.154057  0.002  4.05351  0.002
C  C121  1  0.36400435  0.62042341  0.71103281  1  0.353151  -0.002174  0.09032  0.154188  -0.002001  4.053227  -0.002
C  C122  1  0.13599846  0.12042251  0.71103242  1  0.352983  0.002172  0.090266  0.154046  0.002  4.053475  0.002
C  C123  1  0.63599620  0.37957537  0.28896432  1  0.353011  -0.002172  0.0903  0.154199  -0.001999  4.053335  -0.002
C  C124  1  0.92780500  0.13701478  0.50543600  1  -0.084486  0.000258  -0.227597  -0.479116  3e-05  3.928219  0.0
C  C125  1  0.42782162  0.36298336  0.49457483  1  -0.084407  -0.000258  -0.227638  -0.479305  -3e-05  3.928258  0.0
C  C126  1  0.07217726  0.86298658  0.49458067  1  -0.084047  0.000258  -0.227671  -0.479298  3e-05  3.928323  0.0
C  C127  1  0.57219265  0.63702008  0.50541512  1  -0.082144  -0.000258  -0.227648  -0.479393  -3e-05  3.928331  0.0
C  C128  1  0.69111206  0.61612960  0.23309140  1  1.562958  0.00072  0.19965  0.570645  -0.000703  4.208577  0.003
C  C129  1  0.19109731  0.88386290  0.76690682  1  1.562835  -0.000721  0.199768  0.570906  0.000703  4.208416  -0.003
C  C130  1  0.30890495  0.38385422  0.76689837  1  1.563778  0.000722  0.199885  0.571173  -0.0007  4.207983  0.003
C  C131  1  0.80889226  0.11614257  0.23309863  1  1.562575  -0.000722  0.199774  0.570819  0.000702  4.208164  -0.003
N  N132  1  0.08554102  0.06065529  0.17796725  1  -1.203049  0.07365  -0.379457  -0.418596  0.050994  3.532137  0.064
N  N133  1  0.58555991  0.43934513  0.82202924  1  -1.203086  -0.073653  -0.379581  -0.418499  -0.050995  3.532107  -0.064
N  N134  1  0.91443940  0.93934785  0.82203643  1  -1.20327  0.073648  -0.379529  -0.41858  0.050992  3.532082  0.064
N  N135  1  0.41443973  0.56065901  0.17796610  1  -1.202975  -0.073648  -0.37958  -0.418677  -0.050993  3.531963  -0.064
N  N136  1  0.19050884  0.04905272  0.05215316  1  -1.292287  0.002348  -0.3736  -0.328284  0.001462  3.524757  0.002
N  N137  1  0.69051356  0.45094298  0.94784276  1  -1.292261  -0.002348  -0.373616  -0.328448  -0.001461  3.525019  -0.002
N  N138  1  0.80948805  0.95093019  0.94784562  1  -1.292247  0.002347  -0.373622  -0.328526  0.001462  3.525073  0.002
N  N139  1  0.30948790  0.54906997  0.05215565  1  -1.292305  -0.002347  -0.373633  -0.328468  -0.001461  3.524983  -0.002
N  N140  1  0.91024600  0.97495913  0.32966937  1  -1.178218  0.078389  -0.37984  -0.4131  0.054236  3.533266  0.068
N  N141  1  0.41025306  0.52504265  0.67034073  1  -1.17831  -0.078391  -0.379947  -0.413261  -0.054238  3.533185  -0.068
N  N142  1  0.08975546  0.02504151  0.67034190  1  -1.178172  0.078387  -0.379899  -0.413303  0.054235  3.53329  0.068
N  N143  1  0.58975663  0.47495609  0.32965070  1  -1.177842  -0.078397  -0.379778  -0.413285  -0.054242  3.533173  -0.068
N  N144  1  0.83148037  0.97570978  0.45838057  1  -1.311812  0.002453  -0.373674  -0.325784  0.001519  3.538527  0.002
N  N145  1  0.33148955  0.52428445  0.54162671  1  -1.312079  -0.002453  -0.373712  -0.325582  -0.001519  3.538295  -0.002
N  N146  1  0.16852109  0.02428395  0.54162605  1  -1.312119  0.002454  -0.373683  -0.3257  0.001519  3.538475  0.002
N  N147  1  0.66851923  0.47572044  0.45836900  1  -1.311936  -0.002454  -0.37362  -0.325408  -0.001519  3.538377  -0.002
O  O148  1  0.38654695  0.40241273  0.20008246  1  -1.11384  -0.118314  -0.322208  -0.541124  -0.07855  2.337494  -0.107
O  O149  1  0.88653483  0.09758246  0.79990593  1  -1.113476  0.118324  -0.322186  -0.540991  0.078555  2.337702  0.107
O  O150  1  0.61344902  0.59757406  0.79988734  1  -1.113297  -0.11832  -0.322194  -0.54101  -0.078549  2.337933  -0.107
O  O151  1  0.11344285  0.90242131  0.20011318  1  -1.113162  0.11832  -0.322137  -0.540992  0.07855  2.337963  0.107
O  O152  1  0.31176112  0.49637790  0.36070471  1  -1.196708  -0.002468  -0.332973  -0.580337  -0.001359  2.198572  -0.003
O  O153  1  0.81172615  0.00361791  0.63929119  1  -1.19707  0.00247  -0.332846  -0.580117  0.00136  2.19871  0.003
O  O154  1  0.68826321  0.50361119  0.63927189  1  -1.197343  -0.002468  -0.332708  -0.579984  -0.001359  2.198516  -0.003
O  O155  1  0.18827897  0.99639391  0.36071990  1  -1.197351  0.002469  -0.332695  -0.579902  0.00136  2.198513  0.003
O  O156  1  0.62012993  0.63159613  0.30560515  1  -1.113554  -0.124261  -0.324928  -0.542769  -0.082372  2.332312  -0.112
O  O157  1  0.12013145  0.86839941  0.69438856  1  -1.11348  0.124266  -0.324958  -0.542878  0.082377  2.33244  0.112
O  O158  1  0.37988525  0.36838246  0.69438206  1  -1.113648  -0.124256  -0.325009  -0.543007  -0.082367  2.332181  -0.112
O  O159  1  0.87986818  0.13161134  0.30561445  1  -1.113438  0.124268  -0.324992  -0.542848  0.082378  2.332197  0.112
O  O160  1  0.70215562  0.53128444  0.14805246  1  -1.202508  -0.002127  -0.334018  -0.589486  -0.001091  2.199811  -0.003
O  O161  1  0.20213352  0.96870756  0.85194619  1  -1.202304  0.002129  -0.334123  -0.589574  0.001092  2.199756  0.003
O  O162  1  0.29786597  0.46869986  0.85193566  1  -1.203044  -0.002126  -0.334175  -0.58965  -0.001092  2.199646  -0.003
O  O163  1  0.79785056  0.03129620  0.14806220  1  -1.202217  0.002128  -0.334101  -0.589526  0.001092  2.199681  0.003
