# generated using pymatgen
data_Zn4H8C36S6Cl10O31
_symmetry_space_group_name_H-M   'P 1'
_cell_length_a   15.09557068
_cell_length_b   20.04732641
_cell_length_c   22.80429748
_cell_angle_alpha   89.67161274
_cell_angle_beta   90.29804115
_cell_angle_gamma   89.39729031
_symmetry_Int_Tables_number   1
_chemical_formula_structural   Zn4H8C36S6Cl10O31
_chemical_formula_sum   'Zn8 H16 C72 S12 Cl20 O62'
_cell_volume   6900.57879807
_cell_formula_units_Z   2
loop_
 _symmetry_equiv_pos_site_id
 _symmetry_equiv_pos_as_xyz
  1  'x, y, z'
loop_
 _atom_site_type_symbol
 _atom_site_label
 _atom_site_symmetry_multiplicity
 _atom_site_fract_x
 _atom_site_fract_y
 _atom_site_fract_z
 _atom_site_occupancy
 _atom_site_pbe_bader_charge
 _atom_site_pbe_bader_spin_density
 _atom_site_pbe_cm5_charge
 _atom_site_pbe_ddec_charge
 _atom_site_pbe_ddec_spin_density
 _atom_site_pbe_ddec_sum_bond_order
 _atom_site_pbe_magmom
Zn  Zn0  1  0.56678233  0.58431877  0.00687550  1  1.334189  0  0.695451  1.021567  0  2.226021  0
Zn  Zn1  1  0.57412244  0.08311475  0.50374018  1  1.331961  0  0.69336  1.016038  0  2.262216  0
Zn  Zn2  1  0.57079362  0.42236590  0.99610677  1  1.316212  0  0.677653  0.970042  0  2.333518  0
Zn  Zn3  1  0.57558598  0.92111461  0.49698629  1  1.317696  0  0.678262  0.973106  0  2.313584  0
Zn  Zn4  1  0.42110225  0.50361751  0.92869566  1  1.342292  0  0.704247  1.023097  0  2.261853  0
Zn  Zn5  1  0.42305352  0.49955466  0.07020106  1  1.313573  0  0.680865  0.983687  0  2.337543  0
Zn  Zn6  1  0.42752019  0.00390909  0.42823930  1  1.344392  0  0.705243  1.024435  0  2.268144  0
Zn  Zn7  1  0.42854086  0.00143895  0.57028471  1  1.313013  0  0.681735  0.987113  0  2.317844  0
H  H8  1  0.62465367  0.29531666  0.87273446  1  0.100197  0  0.118159  0.142542  0  0.97708  0
H  H9  1  0.08623110  0.07221968  0.62109944  1  0.654966  0  0.362726  0.414224  0  0.820872  0
H  H10  1  0.27237636  0.69489704  0.05646333  1  0.666476  0  0.321853  0.391352  0  0.919904  0
H  H11  1  0.22143398  0.75728124  0.84443718  1  0.637116  0  0.329081  0.378704  0  0.891031  0
H  H12  1  0.27168131  0.20071046  0.55578392  1  0.678266  0  0.321846  0.389875  0  0.921023  0
H  H13  1  0.22728921  0.24867038  0.34089750  1  0.648699  0  0.331856  0.382357  0  0.884202  0
H  H14  1  0.10681968  0.27149582  0.93811784  1  0.670197  0  0.327175  0.391316  0  0.917751  0
H  H15  1  0.11712043  0.77547695  0.43036121  1  0.664078  0  0.328024  0.39246  0  0.91367  0
H  H16  1  0.67919925  0.32866628  0.15567279  1  0.111585  0  0.114568  0.134835  0  0.982449  0
H  H17  1  0.53363117  0.74511040  0.40652661  1  0.117386  0  0.116269  0.138947  0  0.980595  0
H  H18  1  0.67408857  0.82570883  0.65698057  1  0.130418  0  0.115071  0.135683  0  0.980683  0
H  H19  1  0.92009967  0.63812074  0.84689817  1  0.637203  0  0.32406  0.372594  0  0.904351  0
H  H20  1  0.92243545  0.14067137  0.34420024  1  0.626676  0  0.324652  0.374209  0  0.902151  0
H  H21  1  0.26067562  0.39644237  0.07133017  1  0.665721  0  0.313346  0.376104  0  0.944311  0
H  H22  1  0.26575373  0.89867987  0.56878645  1  0.673835  0  0.314356  0.377439  0  0.939853  0
H  H23  1  0.08311193  0.57117569  0.12424562  1  0.664748  0  0.363006  0.415156  0  0.818739  0
C  C24  1  0.52791537  0.38346005  0.11574895  1  1.604156  0  0.231873  0.627231  0  4.148229  0
C  C25  1  0.47934431  0.27790328  0.25265520  1  0.079086  0  -0.002131  -0.014251  0  3.925237  0
C  C26  1  0.45185059  0.77623237  0.24681649  1  0.101334  0  -0.004438  -0.022084  0  3.9107  0
C  C27  1  0.47300466  0.77913539  0.75443501  1  0.080781  0  -0.002017  -0.013795  0  3.922353  0
C  C28  1  0.43251857  0.31546604  0.79621460  1  0.05652  0  0.031044  0.107382  0  3.954604  0
C  C29  1  0.46591812  0.31588126  0.19985095  1  0.098385  0  0.027098  0.098078  0  3.964683  0
C  C30  1  0.46085968  0.83054620  0.28702053  1  0.061375  0  0.028488  0.101943  0  3.967727  0
C  C31  1  0.46035482  0.81533072  0.70058680  1  0.087516  0  0.027027  0.097898  0  3.965168  0
C  C32  1  0.57500439  0.28681188  0.83896000  1  0.081328  0  -0.083287  -0.140116  0  3.96576  0
C  C33  1  0.62291804  0.31197360  0.18128725  1  0.043065  0  -0.082639  -0.141494  0  3.958071  0
C  C34  1  0.51229794  0.75360849  0.36147120  1  0.086341  0  -0.084341  -0.141438  0  3.968724  0
C  C35  1  0.48644190  0.37254046  0.88989349  1  1.597074  0  0.233676  0.630583  0  4.131662  0
C  C36  1  0.61744173  0.80997468  0.68271590  1  0.048418  0  -0.083489  -0.143345  0  3.960385  0
C  C37  1  0.59076137  0.23998015  0.79632342  1  0.043729  0  0.014117  0.108687  0  4.025186  0
C  C38  1  0.63626208  0.26665234  0.22627267  1  0.053579  0  0.017411  0.114533  0  4.000057  0
C  C39  1  0.51778596  0.70213910  0.32188723  1  0.016962  0  0.015393  0.111419  0  4.005667  0
C  C40  1  0.63001630  0.76624916  0.72899529  1  0.025404  0  0.017659  0.115574  0  4.001114  0
C  C41  1  0.82802555  0.50646939  0.97877333  1  0.094903  0  -0.014672  -0.134883  0  3.891824  0
C  C42  1  0.83384270  0.00565765  0.47612850  1  0.11661  0  -0.013817  -0.134755  0  3.891445  0
C  C43  1  0.16156579  0.47216064  0.99806650  1  0.069604  0  0.006196  -0.021306  0  3.904184  0
C  C44  1  0.16760835  0.97543855  0.49510135  1  0.078003  0  0.006536  -0.020185  0  3.900948  0
C  C45  1  0.03525375  0.39793500  0.98415855  1  -0.024901  0  0.003151  -0.095358  0  3.805095  0
C  C46  1  0.52446170  0.88059766  0.61538285  1  1.573813  0  0.231893  0.626906  0  4.150392  0
C  C47  1  0.04331786  0.89992063  0.47903573  1  -0.06155  0  0.003827  -0.094969  0  3.806924  0
C  C48  1  0.12644647  0.40700794  0.98966289  1  -0.162272  0  -0.007831  -0.12178  0  3.880328  0
C  C49  1  0.13415019  0.91002961  0.48535801  1  -0.147474  0  -0.006803  -0.121088  0  3.879174  0
C  C50  1  0.10447547  0.52673724  0.99797038  1  -0.076403  0  0.003877  -0.119054  0  3.84848  0
C  C51  1  0.10954344  0.02944778  0.49483576  1  -0.080032  0  0.003305  -0.120236  0  3.844962  0
C  C52  1  0.49653907  0.62946491  0.89240175  1  1.655324  0  0.227228  0.618502  0  4.216373  0
C  C53  1  0.47822902  0.62433660  0.11350143  1  1.638914  0  0.223222  0.618076  0  4.215746  0
C  C54  1  0.50663181  0.12606695  0.38857694  1  1.647103  0  0.226066  0.617638  0  4.218535  0
C  C55  1  0.49229266  0.12509272  0.61272674  1  1.624709  0  0.224808  0.624027  0  4.208645  0
C  C56  1  0.01360114  0.51989636  0.98122247  1  -0.031522  0  0.015921  0.09737  0  3.953587  0
C  C57  1  0.48905272  0.87116232  0.39119096  1  1.597481  0  0.233709  0.628523  0  4.139622  0
C  C58  1  0.01906260  0.02165112  0.47760004  1  0.026175  0  0.016655  0.09835  0  3.954772  0
C  C59  1  0.97683055  0.45482441  0.98631243  1  0.094799  0  0.008452  0.022065  0  3.911395  0
C  C60  1  0.98387522  0.95604087  0.48190400  1  0.068515  0  0.007564  0.02219  0  3.914559  0
C  C61  1  0.88203451  0.45289536  0.99465446  1  0.134692  0  0.043704  0.123016  0  3.958656  0
C  C62  1  0.88934539  0.95260041  0.49089359  1  0.079718  0  0.043863  0.123624  0  3.959953  0
C  C63  1  0.86855004  0.56396758  0.95380627  1  0.104445  0  0.036786  0.152974  0  3.999741  0
C  C64  1  0.87274390  0.06388631  0.45106312  1  0.10565  0  0.037699  0.156009  0  3.995316  0
C  C65  1  0.95917502  0.57272883  0.95775089  1  -0.072348  0  -0.023201  -0.209673  0  3.899112  0
C  C66  1  0.96310908  0.07391697  0.45468181  1  -0.053328  0  -0.024087  -0.212992  0  3.904174  0
C  C67  1  0.72893993  0.50509421  0.98724176  1  1.628051  0  0.222493  0.617086  0  4.189291  0
C  C68  1  0.48910185  0.71111758  0.26219633  1  0.069627  0  0.001572  -0.002057  0  3.905185  0
C  C69  1  0.73540794  0.00364650  0.48658422  1  1.636164  0  0.222877  0.617081  0  4.191513  0
C  C70  1  0.26096560  0.48375060  0.00239962  1  1.641598  0  0.234653  0.595687  0  4.188955  0
C  C71  1  0.26662324  0.98782419  0.50085234  1  1.630149  0  0.233136  0.592422  0  4.197544  0
C  C72  1  0.49494615  0.32346614  0.84084804  1  0.075491  0  -0.017289  -0.079688  0  3.954299  0
C  C73  1  0.53768280  0.33575440  0.16634544  1  0.082395  0  -0.01519  -0.070358  0  3.961105  0
C  C74  1  0.48591257  0.81851233  0.34494243  1  0.045767  0  -0.015603  -0.070885  0  3.960562  0
C  C75  1  0.53257680  0.83360377  0.66670185  1  0.068316  0  -0.015016  -0.069893  0  3.957732  0
C  C76  1  0.46721127  0.67803370  0.15924381  1  0.047869  0  -0.009711  -0.065996  0  3.946206  0
C  C77  1  0.48924698  0.68602083  0.84798090  1  0.088707  0  -0.001728  -0.054214  0  3.914301  0
C  C78  1  0.48519888  0.18225593  0.65531011  1  0.10061  0  -0.008765  -0.065315  0  3.953235  0
C  C79  1  0.55722696  0.74582984  0.76486695  1  0.059393  0  0.002743  -0.000742  0  3.90985  0
C  C80  1  0.49751873  0.18240709  0.34411947  1  0.058856  0  -0.001864  -0.054344  0  3.917918  0
C  C81  1  0.40756279  0.78403147  0.19131413  1  0.112867  0  0.027482  0.112376  0  4.008425  0
C  C82  1  0.40695375  0.77488708  0.79916342  1  0.110577  0  0.024121  0.103093  0  3.994192  0
C  C83  1  0.40907599  0.28179647  0.68977359  1  0.079866  0  0.026882  0.109985  0  3.995546  0
C  C84  1  0.41357337  0.27178678  0.29731205  1  0.070837  0  0.023985  0.103429  0  3.996307  0
C  C85  1  0.42196830  0.73849013  0.14664450  1  -0.080269  0  -0.020194  -0.167181  0  3.927369  0
C  C86  1  0.41383249  0.72849777  0.84438995  1  -0.101867  0  -0.012777  -0.152554  0  3.907589  0
C  C87  1  0.42862230  0.23784568  0.64454596  1  -0.064759  0  -0.021172  -0.170272  0  3.916903  0
C  C88  1  0.42141904  0.22421407  0.34151793  1  -0.072705  0  -0.012757  -0.15321  0  3.910337  0
C  C89  1  0.49411843  0.66291057  0.21618932  1  0.085054  0  0.019709  0.088539  0  3.952061  0
C  C90  1  0.52831533  0.23007391  0.74987786  1  0.072457  0  0.001513  0.001414  0  3.921725  0
C  C91  1  0.55918521  0.69541124  0.80961682  1  0.108718  0  0.02337  0.092814  0  3.951202  0
C  C92  1  0.53345315  0.17842873  0.70693231  1  0.073615  0  0.018687  0.087672  0  3.973449  0
C  C93  1  0.56690356  0.19311448  0.30558529  1  0.152717  0  0.023045  0.092584  0  3.952952  0
C  C94  1  0.56397902  0.24471724  0.26192580  1  0.024165  0  0.002776  -5.3e-05  0  3.91035  0
C  C95  1  0.45375184  0.27601265  0.74557842  1  0.045253  0  -0.002528  -0.019959  0  3.900875  0
S  S96  1  0.01161072  0.64005840  0.91832725  1  3.086808  0  0.53713  1.157717  0  5.995801  0
S  S97  1  0.33408766  0.21438053  0.39466702  1  3.126144  0  0.546208  1.16625  0  5.970858  0
S  S98  1  0.98589763  0.31985582  0.95688201  1  3.151049  0  0.531322  1.132396  0  6.055334  0
S  S99  1  0.99542918  0.82198461  0.45011215  1  3.158704  0  0.531202  1.129861  0  6.056415  0
S  S100  1  0.01352090  0.14254101  0.41585031  1  3.088124  0  0.536587  1.15883  0  5.995646  0
S  S101  1  0.20893608  0.34098540  0.00041047  1  3.10975  0  0.550017  1.14489  0  5.986469  0
S  S102  1  0.21703757  0.84446815  0.49606944  1  3.108445  0  0.55075  1.147301  0  5.989379  0
S  S103  1  0.13493993  0.59898502  0.04060995  1  3.046309  0  0.558566  1.150641  0  5.920103  0
S  S104  1  0.13767698  0.10194215  0.53793917  1  3.06603  0  0.55832  1.151071  0  5.917873  0
S  S105  1  0.38619028  0.75607939  0.07239666  1  3.125844  0  0.542617  1.179957  0  5.987562  0
S  S106  1  0.32712927  0.72178430  0.89842153  1  3.130431  0  0.545709  1.164215  0  5.973558  0
S  S107  1  0.39243257  0.25303122  0.56993602  1  3.133047  0  0.541341  1.178339  0  5.982708  0
Cl  Cl108  1  0.32638291  0.34448546  0.80677538  1  -0.134849  0  0.016588  -0.03201  0  1.632107  0
Cl  Cl109  1  0.73919047  0.74446027  0.74343547  1  -0.181934  0  -0.011898  -0.081229  0  1.519766  0
Cl  Cl110  1  0.69367779  0.20145099  0.79891534  1  -0.17297  0  -0.00783  -0.074127  0  1.517292  0
Cl  Cl111  1  0.74569851  0.24467565  0.23951053  1  -0.18651  0  -0.01035  -0.079223  0  1.518314  0
Cl  Cl112  1  0.53401616  0.58245273  0.22673978  1  -0.169032  0  0.005364  -0.048594  0  1.605338  0
Cl  Cl113  1  0.64401717  0.63705039  0.81368081  1  -0.168576  0  0.010074  -0.050979  0  1.668294  0
Cl  Cl114  1  0.59190089  0.10530662  0.72039688  1  -0.170085  0  0.004043  -0.051108  0  1.575475  0
Cl  Cl115  1  0.65243568  0.13527770  0.30843095  1  -0.168488  0  0.011719  -0.048886  0  1.669953  0
Cl  Cl116  1  0.83968244  0.38824074  0.03461862  1  -0.113515  0  0.059654  0.014445  0  1.612602  0
Cl  Cl117  1  0.85020651  0.88660967  0.53059439  1  -0.111731  0  0.060352  0.015482  0  1.613129  0
Cl  Cl118  1  0.80173678  0.62050591  0.91704427  1  -0.134938  0  0.061019  -0.008406  0  1.675752  0
Cl  Cl119  1  0.36071809  0.32559665  0.17134461  1  -0.154108  0  0.014161  -0.034602  0  1.677893  0
Cl  Cl120  1  0.80458473  0.11961349  0.41448473  1  -0.135375  0  0.060293  -0.009242  0  1.68539  0
Cl  Cl121  1  0.45752118  0.91125419  0.26101889  1  -0.146892  0  0.014229  -0.03786  0  1.622013  0
Cl  Cl122  1  0.35536910  0.82481882  0.67179193  1  -0.158156  0  0.014445  -0.03378  0  1.679201  0
Cl  Cl123  1  0.33928171  0.34785866  0.67490543  1  -0.118308  0  0.032682  -0.014732  0  1.645771  0
Cl  Cl124  1  0.32957612  0.33082580  0.30126979  1  -0.154805  0  0.039402  -0.043215  0  1.656302  0
Cl  Cl125  1  0.32594663  0.84345407  0.18232779  1  -0.117618  0  0.032831  -0.015125  0  1.633104  0
Cl  Cl126  1  0.32408448  0.83500611  0.80167231  1  -0.166093  0  0.039555  -0.043516  0  1.657446  0
Cl  Cl127  1  0.56191911  0.62897369  0.35087510  1  -0.170918  0  -0.010705  -0.079056  0  1.528702  0
O  O128  1  0.49493504  0.50258196  0.99972516  1  -1.233744  0  -0.572234  -1.042275  0  2.502097  0
O  O129  1  0.56208055  0.12091747  0.58236487  1  -1.162129  0  -0.311353  -0.541716  0  2.35488  0
O  O130  1  0.68981469  0.45245423  0.97130007  1  -1.158411  0  -0.306126  -0.533086  0  2.342673  0
O  O131  1  0.69623180  0.94984835  0.47425060  1  -1.153264  0  -0.304364  -0.531895  0  2.3539  0
O  O132  1  0.29550272  0.50613405  0.95669466  1  -1.126666  0  -0.266434  -0.462895  0  2.328966  0
O  O133  1  0.29935879  0.46943005  0.05151553  1  -1.165474  0  -0.299031  -0.542766  0  2.372836  0
O  O134  1  0.30205344  0.01035515  0.45552215  1  -1.121596  0  -0.266093  -0.460211  0  2.341354  0
O  O135  1  0.30368740  0.97388278  0.55045463  1  -1.166356  0  -0.298814  -0.544221  0  2.36564  0
O  O136  1  0.53286924  0.35982433  0.93576782  1  -1.167623  0  -0.313102  -0.538642  0  2.312561  0
O  O137  1  0.57911350  0.37469667  0.07210697  1  -1.16447  0  -0.306221  -0.53086  0  2.292385  0
O  O138  1  0.54324893  0.86053353  0.43358039  1  -1.161768  0  -0.31026  -0.535463  0  2.311015  0
O  O139  1  0.50057350  0.00222373  0.49971713  1  -1.231716  0  -0.570912  -1.040676  0  2.494977  0
O  O140  1  0.57742634  0.87175434  0.57263049  1  -1.149261  0  -0.306762  -0.534102  0  2.286794  0
O  O141  1  0.41241838  0.58520661  0.10911735  1  -1.150983  0  -0.31178  -0.535217  0  2.335084  0
O  O142  1  0.46069988  0.57537533  0.87700984  1  -1.148855  0  -0.307214  -0.53335  0  2.342676  0
O  O143  1  0.42819929  0.08414480  0.61447537  1  -1.132248  0  -0.309261  -0.529447  0  2.30939  0
O  O144  1  0.47364466  0.07074448  0.37368581  1  -1.153962  0  -0.308822  -0.539986  0  2.349045  0
O  O145  1  0.69431613  0.55715427  0.00926379  1  -1.155252  0  -0.30523  -0.535381  0  2.322362  0
O  O146  1  0.70117584  0.05682861  0.50676878  1  -1.152284  0  -0.306994  -0.535417  0  2.340178  0
O  O147  1  0.97403057  0.70314181  0.93445239  1  -1.266272  0  -0.30172  -0.503732  0  2.129908  0
O  O148  1  0.10512543  0.62687296  0.91865291  1  -1.249316  0  -0.280257  -0.478806  0  2.212923  0
O  O149  1  0.98179878  0.62284108  0.85220357  1  -1.186245  0  -0.357314  -0.507997  0  2.143019  0
O  O150  1  0.47115785  0.43009229  0.12224527  1  -1.174326  0  -0.315811  -0.559707  0  2.404545  0
O  O151  1  0.97431614  0.20487959  0.43253197  1  -1.266655  0  -0.302162  -0.504523  0  2.1281  0
O  O152  1  0.10737966  0.13084977  0.41609324  1  -1.255608  0  -0.281522  -0.481159  0  2.215498  0
O  O153  1  0.98429137  0.12578091  0.34952453  1  -1.176363  0  -0.357844  -0.509863  0  2.141192  0
O  O154  1  0.17175805  0.27512757  0.99764500  1  -1.282563  0  -0.283413  -0.489672  0  2.192234  0
O  O155  1  0.28420246  0.35738749  0.96502628  1  -1.275222  0  -0.292886  -0.510473  0  2.193284  0
O  O156  1  0.22949373  0.35188772  0.06754392  1  -1.234619  0  -0.34681  -0.50241  0  2.223672  0
O  O157  1  0.18052305  0.77855018  0.49160285  1  -1.285006  0  -0.284788  -0.493756  0  2.194676  0
O  O158  1  0.29344364  0.86181868  0.46217703  1  -1.278587  0  -0.292117  -0.504113  0  2.185907  0
O  O159  1  0.23532669  0.85412481  0.56370399  1  -1.233847  0  -0.346878  -0.505012  0  2.227821  0
O  O160  1  0.22479771  0.61777571  0.02928597  1  -1.2705  0  -0.26256  -0.471298  0  2.255661  0
O  O161  1  0.43880723  0.42424479  0.88096241  1  -1.161657  0  -0.307477  -0.542831  0  2.38898  0
O  O162  1  0.06275473  0.64600522  0.04233883  1  -1.260683  0  -0.284071  -0.49859  0  2.175476  0
O  O163  1  0.13944744  0.56265228  0.10432477  1  -1.194997  0  -0.355288  -0.526499  0  2.11425  0
O  O164  1  0.22684501  0.12283003  0.52700354  1  -1.274709  0  -0.263474  -0.472166  0  2.246634  0
O  O165  1  0.06391666  0.14756501  0.53979090  1  -1.276153  0  -0.285319  -0.500852  0  2.173754  0
O  O166  1  0.14318189  0.06529274  0.60148421  1  -1.188038  0  -0.355541  -0.526705  0  2.118029  0
O  O167  1  0.39503902  0.82596074  0.06192267  1  -1.253653  0  -0.301205  -0.495099  0  2.135511  0
O  O168  1  0.43070643  0.70824261  0.03567869  1  -1.299082  0  -0.302713  -0.53206  0  2.25163  0
O  O169  1  0.28339451  0.73967102  0.07357736  1  -1.229869  0  -0.359153  -0.530935  0  2.19714  0
O  O170  1  0.33786252  0.65905646  0.92783009  1  -1.279432  0  -0.281265  -0.476071  0  2.24161  0
O  O171  1  0.32087415  0.78338282  0.92983535  1  -1.271255  0  -0.297825  -0.508662  0  2.158078  0
O  O172  1  0.46736733  0.92714235  0.62064685  1  -1.171417  0  -0.315552  -0.556963  0  2.398563  0
O  O173  1  0.24093502  0.71286803  0.85804049  1  -1.190761  0  -0.351307  -0.502951  0  2.193278  0
O  O174  1  0.41095446  0.32095801  0.55571717  1  -1.270646  0  -0.300931  -0.495195  0  2.128411  0
O  O175  1  0.42838264  0.19971440  0.53493824  1  -1.299023  0  -0.30262  -0.534086  0  2.260111  0
O  O176  1  0.28790985  0.24455090  0.57292090  1  -1.235576  0  -0.359017  -0.529055  0  2.195917  0
O  O177  1  0.34677529  0.15115878  0.42289095  1  -1.278492  0  -0.280795  -0.47885  0  2.256848  0
O  O178  1  0.32436195  0.27487033  0.42733553  1  -1.270604  0  -0.297338  -0.508517  0  2.159832  0
O  O179  1  0.24952807  0.20445239  0.35304625  1  -1.204294  0  -0.35067  -0.502993  0  2.194815  0
O  O180  1  0.97468654  0.27359188  0.00435779  1  -1.26557  0  -0.308627  -0.514585  0  2.143761  0
O  O181  1  0.91424601  0.34099092  0.91946786  1  -1.275038  0  -0.301591  -0.495508  0  2.141573  0
O  O182  1  0.05976789  0.29373424  0.91339014  1  -1.234411  0  -0.3537  -0.508999  0  2.175781  0
O  O183  1  0.43634878  0.92048302  0.38552047  1  -1.165203  0  -0.307602  -0.54168  0  2.418319  0
O  O184  1  0.98503293  0.77416246  0.49645627  1  -1.272114  0  -0.308053  -0.513659  0  2.147888  0
O  O185  1  0.92345997  0.84346559  0.41314988  1  -1.274786  0  -0.299656  -0.491266  0  2.13515  0
O  O186  1  0.06991402  0.79797663  0.40607741  1  -1.231378  0  -0.352624  -0.506633  0  2.171456  0
O  O187  1  0.54098973  0.64166662  0.93843278  1  -1.148088  0  -0.29975  -0.526829  0  2.339815  0
O  O188  1  0.55127081  0.62049475  0.08651761  1  -1.157983  0  -0.308486  -0.535782  0  2.325114  0
O  O189  1  0.54944549  0.13998453  0.43490620  1  -1.145784  0  -0.299466  -0.525697  0  2.335316  0
