# generated using pymatgen
data_ZnH14C18(N2O3)2
_symmetry_space_group_name_H-M   'P 1'
_cell_length_a   8.05271357
_cell_length_b   8.64168685
_cell_length_c   12.96581161
_cell_angle_alpha   91.88557584
_cell_angle_beta   93.28507873
_cell_angle_gamma   96.34616115
_symmetry_Int_Tables_number   1
_chemical_formula_structural   ZnH14C18(N2O3)2
_chemical_formula_sum   'Zn2 H28 C36 N8 O12'
_cell_volume   894.57543993
_cell_formula_units_Z   2
loop_
 _symmetry_equiv_pos_site_id
 _symmetry_equiv_pos_as_xyz
  1  'x, y, z'
loop_
 _atom_site_type_symbol
 _atom_site_label
 _atom_site_symmetry_multiplicity
 _atom_site_fract_x
 _atom_site_fract_y
 _atom_site_fract_z
 _atom_site_occupancy
 _atom_site_hle17_bader_spin_density
 _atom_site_hle17_ddec_charge
 _atom_site_hle17_ddec_spin_density
 _atom_site_hle17_ddec_sum_bond_order
 _atom_site_hle17_magmom
 _atom_site_hse06_10hf_bader_spin_density
 _atom_site_hse06_10hf_ddec_charge
 _atom_site_hse06_10hf_ddec_spin_density
 _atom_site_hse06_10hf_ddec_sum_bond_order
 _atom_site_hse06_10hf_magmom
 _atom_site_hse06_bader_spin_density
 _atom_site_hse06_ddec_charge
 _atom_site_hse06_ddec_spin_density
 _atom_site_hse06_ddec_sum_bond_order
 _atom_site_hse06_magmom
 _atom_site_pbe_bader_spin_density
 _atom_site_pbe_cm5_charge
 _atom_site_pbe_ddec_charge
 _atom_site_pbe_ddec_spin_density
 _atom_site_pbe_ddec_sum_bond_order
 _atom_site_pbe_magmom
Zn  Zn0  1  0.86350610  0.60826837  0.24199647  1  0  1.035044  0  1.83474  0  0  0.843443  0  2.314932  0  0  0.890006  0  2.259621  0  0  0.704233  0.810883  0  2.35302  0
Zn  Zn1  1  0.13649410  0.39172957  0.75800255  1  0  1.035069  0  1.834698  0  0  0.843486  0  2.314902  0  0  0.89005  0  2.25959  0  0  0.704249  0.810934  0  2.352987  0
H  H2  1  0.41638616  0.30335047  0.27623253  1  0  0.105824  0  0.950727  0  0  0.114018  0  1.014782  0  0  0.117547  0  1.012571  0  0  0.10178  0.111439  0  1.016487  0
H  H3  1  0.58361599  0.69665331  0.72376819  1  0  0.105867  0  0.950676  0  0  0.114059  0  1.014735  0  0  0.117586  0  1.012524  0  0  0.101812  0.111481  0  1.016433  0
H  H4  1  0.62913393  0.23185217  0.40756251  1  0  0.123361  0  0.966126  0  0  0.131494  0  1.026901  0  0  0.135742  0  1.023604  0  0  0.107183  0.128376  0  1.029448  0
H  H5  1  0.37086669  0.76814927  0.59243736  1  0  0.123379  0  0.966127  0  0  0.131502  0  1.026899  0  0  0.13575  0  1.023602  0  0  0.107177  0.12838  0  1.029445  0
H  H6  1  0.09794555  0.43402263  0.51490928  1  0  0.128755  0  0.969286  0  0  0.13682  0  1.031898  0  0  0.140762  0  1.028354  0  0  0.109791  0.133856  0  1.034686  0
H  H7  1  0.90205759  0.56597883  0.48509298  1  0  0.128701  0  0.9692  0  0  0.136777  0  1.031823  0  0  0.140712  0  1.028288  0  0  0.109775  0.133804  0  1.034628  0
H  H8  1  0.61977255  0.21359708  0.82666973  1  0  0.078464  0  0.944099  0  0  0.090956  0  1.004813  0  0  0.091134  0  1.006258  0  0  0.110321  0.090825  0  1.003884  0
H  H9  1  0.38022780  0.78640202  0.17333008  1  0  0.07846  0  0.944136  0  0  0.090943  0  1.004846  0  0  0.09112  0  1.006291  0  0  0.11031  0.090813  0  1.003917  0
H  H10  1  0.63095215  0.41908162  0.83372466  1  0  0.089272  0  0.916399  0  0  0.102479  0  0.974012  0  0  0.10408  0  0.972878  0  0  0.112193  0.101261  0  0.974984  0
H  H11  1  0.36904946  0.58091751  0.16627673  1  0  0.089324  0  0.916377  0  0  0.102527  0  0.973988  0  0  0.104127  0  0.972853  0  0  0.11222  0.101308  0  0.974956  0
H  H12  1  0.74666673  0.94862024  0.31095320  1  0  0.068079  0  0.93181  0  0  0.08095  0  0.994199  0  0  0.08216  0  0.993123  0  0  0.104925  0.080069  0  0.995052  0
H  H13  1  0.25332751  0.05137999  0.68904336  1  0  0.068043  0  0.931752  0  0  0.080876  0  0.99417  0  0  0.082083  0  0.993094  0  0  0.104905  0.079996  0  0.995021  0
H  H14  1  0.91967372  0.93381307  0.39917760  1  0  0.084021  0  0.899194  0  0  0.101809  0  0.950978  0  0  0.10274  0  0.950184  0  0  0.113113  0.101124  0  0.951622  0
H  H15  1  0.08032011  0.06618367  0.60081965  1  0  0.083956  0  0.899199  0  0  0.101733  0  0.950983  0  0  0.102661  0  0.950189  0  0  0.113062  0.101044  0  0.951638  0
H  H16  1  0.06346959  0.59919698  0.03984226  1  0  0.127827  0  0.957963  0  0  0.133664  0  1.025919  0  0  0.137699  0  1.022196  0  0  0.110635  0.130729  0  1.028669  0
H  H17  1  0.93653076  0.40080213  0.96015756  1  0  0.127824  0  0.957985  0  0  0.133662  0  1.025937  0  0  0.137696  0  1.022213  0  0  0.110634  0.130726  0  1.028692  0
H  H18  1  0.36208631  0.97112153  0.89790233  1  0  0.097303  0  0.951962  0  0  0.106297  0  1.016581  0  0  0.109365  0  1.015029  0  0  0.101227  0.104051  0  1.017794  0
H  H19  1  0.63791530  0.02887760  0.10209906  1  0  0.097274  0  0.951941  0  0  0.106322  0  1.016508  0  0  0.109391  0  1.014954  0  0  0.101235  0.10408  0  1.017718  0
H  H20  1  0.30045518  0.16435987  0.03191660  1  0  0.129116  0  0.940053  0  0  0.141144  0  0.992485  0  0  0.144938  0  0.990109  0  0  0.111735  0.138393  0  0.994321  0
H  H21  1  0.69954906  0.83564043  0.96808490  1  0  0.12908  0  0.940118  0  0  0.141144  0  0.992512  0  0  0.144933  0  0.990137  0  0  0.111746  0.138394  0  0.99434  0
H  H22  1  0.69042425  0.24757693  0.63285477  1  0  0.328559  0  0.835754  0  0  0.320996  0  0.876677  0  0  0.327546  0  0.872636  0  0  0.344568  0.316322  0  0.879697  0
H  H23  1  0.30957901  0.75242568  0.36714597  1  0  0.328583  0  0.835709  0  0  0.321019  0  0.876639  0  0  0.327566  0  0.872597  0  0  0.344586  0.316343  0  0.879658  0
H  H24  1  0.09709580  0.18428851  0.20782862  1  0  0.325041  0  0.928948  0  0  0.301737  0  0.997056  0  0  0.310946  0  0.989784  0  0  0.308639  0.295217  0  1.002244  0
H  H25  1  0.90290331  0.81571059  0.79217115  1  0  0.324988  0  0.929043  0  0  0.30159  0  0.997301  0  0  0.310797  0  0.990036  0  0  0.308585  0.295129  0  1.002384  0
H  H26  1  0.36785745  0.39174358  0.89844805  1  0  0.363263  0  0.914637  0  0  0.343605  0  0.979836  0  0  0.353367  0  0.968364  0  0  0.297889  0.336689  0  0.987999  0
H  H27  1  0.63214152  0.60825436  0.10155170  1  0  0.363287  0  0.914632  0  0  0.343635  0  0.979811  0  0  0.353396  0  0.968341  0  0  0.297899  0.336719  0  0.987972  0
H  H28  1  0.82879540  0.20688178  0.30279365  1  0  0.370017  0  0.926544  0  0  0.348646  0  0.995805  0  0  0.357981  0  0.985634  0  0  0.29365  0.342078  0  1.00297  0
H  H29  1  0.17120245  0.79311731  0.69720454  1  0  0.370039  0  0.926532  0  0  0.348661  0  0.995808  0  0  0.357996  0  0.985637  0  0  0.293656  0.342091  0  1.002975  0
C  C30  1  0.12957240  0.42986220  0.30614341  1  0  0.643936  0  3.91426  0  0  0.588818  0  4.221011  0  0  0.623533  0  4.212239  0  0  0.202844  0.565241  0  4.22633  0
C  C31  1  0.87042725  0.57014156  0.69385647  1  0  0.643977  0  3.914232  0  0  0.588848  0  4.220967  0  0  0.623563  0  4.212193  0  0  0.202843  0.565276  0  4.226288  0
C  C32  1  0.24594935  0.37391926  0.38753005  1  0  -0.080297  0  3.787129  0  0  -0.063527  0  4.037593  0  0  -0.072378  0  4.061993  0  0  -0.030293  -0.057833  0  4.021213  0
C  C33  1  0.75405283  0.62608454  0.61247376  1  0  -0.080363  0  3.787323  0  0  -0.063527  0  4.037743  0  0  -0.072381  0  4.062143  0  0  -0.030309  -0.05784  0  4.021362  0
C  C34  1  0.39291201  0.31309314  0.35798315  1  0  -0.063682  0  3.730839  0  0  -0.096012  0  3.994063  0  0  -0.095771  0  4.015155  0  0  -0.090178  -0.095968  0  3.979756  0
C  C35  1  0.60709264  0.68691066  0.64201843  1  0  -0.063704  0  3.730791  0  0  -0.096073  0  3.994008  0  0  -0.095826  0  4.015094  0  0  -0.09018  -0.096027  0  3.979691  0
C  C36  1  0.51280162  0.27214213  0.43072066  1  0  -0.155185  0  3.738057  0  0  -0.171238  0  3.990943  0  0  -0.175474  0  4.010098  0  0  -0.097447  -0.168396  0  3.978  0
C  C37  1  0.48720039  0.72786049  0.56928004  1  0  -0.15527  0  3.737935  0  0  -0.171268  0  3.990802  0  0  -0.175505  0  4.009957  0  0  -0.097469  -0.168418  0  3.977845  0
C  C38  1  0.47875241  0.29125740  0.53435447  1  0  0.168489  0  3.794419  0  0  0.157558  0  4.044176  0  0  0.162593  0  4.066876  0  0  0.097913  0.154252  0  4.028797  0
C  C39  1  0.52124946  0.70874404  0.46564543  1  0  0.168551  0  3.794369  0  0  0.157529  0  4.044162  0  0  0.162564  0  4.066862  0  0  0.097891  0.154217  0  4.028786  0
C  C40  1  0.32854083  0.34499741  0.56469119  1  0  0.136548  0  3.835847  0  0  0.135719  0  4.083737  0  0  0.136794  0  4.109346  0  0  0.085206  0.134839  0  4.066469  0
C  C41  1  0.67146092  0.65500288  0.43531024  1  0  0.136463  0  3.835957  0  0  0.135748  0  4.083724  0  0  0.136823  0  4.109334  0  0  0.085224  0.134867  0  4.06646  0
C  C42  1  0.21104998  0.38845215  0.49149240  1  0  -0.126886  0  3.689221  0  0  -0.159674  0  3.940524  0  0  -0.158831  0  3.957598  0  0  -0.084782  -0.160006  0  3.929126  0
C  C43  1  0.78895068  0.61154932  0.50851132  1  0  -0.126741  0  3.68913  0  0  -0.159592  0  3.940401  0  0  -0.158745  0  3.957484  0  0  -0.084771  -0.159925  0  3.929012  0
C  C44  1  0.47839130  0.31028011  0.70678284  1  0  0.37648  0  3.687114  0  0  0.341206  0  3.970243  0  0  0.360187  0  3.980406  0  0  0.236608  0.328685  0  3.96297  0
C  C45  1  0.52161056  0.68972133  0.29321707  1  0  0.376483  0  3.687114  0  0  0.34118  0  3.970273  0  0  0.360163  0  3.98043  0  0  0.236569  0.328657  0  3.963005  0
C  C46  1  0.54431979  0.31134025  0.81751669  1  0  0.027802  0  3.715371  0  0  -0.025576  0  3.97966  0  0  -0.021181  0  3.983323  0  0  -0.064033  -0.02863  0  3.977107  0
C  C47  1  0.45568224  0.68866238  0.18248556  1  0  0.027771  0  3.715373  0  0  -0.025573  0  3.979627  0  0  -0.021175  0  3.983284  0  0  -0.064011  -0.028624  0  3.977059  0
C  C48  1  0.24279771  0.66814976  0.87248212  1  0  0.666063  0  3.875145  0  0  0.61156  0  4.170976  0  0  0.646864  0  4.161248  0  0  0.213823  0.587543  0  4.177009  0
C  C49  1  0.75720042  0.33185166  0.12751690  1  0  0.666027  0  3.875134  0  0  0.611492  0  4.171009  0  0  0.646796  0  4.161282  0  0  0.213803  0.587472  0  4.177052  0
C  C50  1  0.87819700  0.99564941  0.33095397  1  0  0.041219  0  3.726461  0  0  -0.014639  0  3.99925  0  0  -0.009121  0  4.001009  0  0  -0.062886  -0.018477  0  3.997887  0
C  C51  1  0.12179807  0.00434733  0.66904254  1  0  0.041331  0  3.726292  0  0  -0.014418  0  3.99899  0  0  -0.008893  0  4.00074  0  0  -0.062794  -0.018261  0  3.99763  0
C  C52  1  0.97833527  0.95618226  0.24110425  1  0  0.37344  0  3.677764  0  0  0.3384  0  3.956746  0  0  0.35703  0  3.968104  0  0  0.231685  0.326136  0  3.948578  0
C  C53  1  0.02166147  0.04381799  0.75889392  1  0  0.373507  0  3.677605  0  0  0.338428  0  3.95662  0  0  0.357055  0  3.967979  0  0  0.231677  0.326172  0  3.948454  0
C  C54  1  0.14256146  0.98855368  0.11032483  1  0  0.159994  0  3.798697  0  0  0.149168  0  4.046015  0  0  0.154695  0  4.067603  0  0  0.096235  0.145531  0  4.031409  0
C  C55  1  0.85743670  0.01144776  0.88967650  1  0  0.160076  0  3.798708  0  0  0.149255  0  4.046004  0  0  0.154774  0  4.067602  0  0  0.096227  0.145619  0  4.0314  0
C  C56  1  0.07703376  0.82989743  0.11322113  1  0  0.134632  0  3.846322  0  0  0.132365  0  4.097253  0  0  0.134479  0  4.120704  0  0  0.081996  0.130747  0  4.08149  0
C  C57  1  0.92296521  0.17010051  0.88677862  1  0  0.134607  0  3.846479  0  0  0.132367  0  4.097367  0  0  0.134483  0  4.120818  0  0  0.082025  0.130749  0  4.081602  0
C  C58  1  0.11353374  0.72115276  0.03848371  1  0  -0.129242  0  3.679332  0  0  -0.162267  0  3.93414  0  0  -0.161354  0  3.951095  0  0  -0.082865  -0.162699  0  3.922791  0
C  C59  1  0.88646797  0.27884750  0.96151462  1  0  -0.129159  0  3.679306  0  0  -0.16218  0  3.934085  0  0  -0.161265  0  3.951039  0  0  -0.082817  -0.162606  0  3.922738  0
C  C60  1  0.21528462  0.77569176  0.96041261  1  0  -0.076548  0  3.767323  0  0  -0.056848  0  4.01164  0  0  -0.066391  0  4.036378  0  0  -0.025918  -0.050665  0  3.995025  0
C  C61  1  0.78471571  0.22430733  0.03958488  1  0  -0.076606  0  3.767282  0  0  -0.056899  0  4.011628  0  0  -0.066442  0  4.036367  0  0  -0.025958  -0.05072  0  3.995025  0
C  C62  1  0.28215958  0.93414158  0.95947371  1  0  -0.055701  0  3.731455  0  0  -0.089217  0  3.997681  0  0  -0.088901  0  4.019642  0  0  -0.086756  -0.089206  0  3.982745  0
C  C63  1  0.71784174  0.06585520  0.04052609  1  0  -0.055664  0  3.731434  0  0  -0.089235  0  3.997691  0  0  -0.088919  0  4.019651  0  0  -0.086764  -0.089224  0  3.982751  0
C  C64  1  0.24839352  0.04295507  0.03442632  1  0  -0.144048  0  3.723239  0  0  -0.162571  0  3.980683  0  0  -0.166662  0  3.999886  0  0  -0.090304  -0.159874  0  3.967737  0
C  C65  1  0.75160671  0.95704288  0.96557501  1  0  -0.144096  0  3.723325  0  0  -0.162644  0  3.980778  0  0  -0.166727  0  3.999989  0  0  -0.090344  -0.159943  0  3.967818  0
N  N66  1  0.33167147  0.35274483  0.67262633  1  0  -0.483852  0  3.217011  0  0  -0.414664  0  3.516362  0  0  -0.436602  0  3.525333  0  0  -0.351886  -0.399809  0  3.51012  0
N  N67  1  0.66832777  0.64725543  0.32737270  1  0  -0.483797  0  3.217008  0  0  -0.414634  0  3.516357  0  0  -0.436573  0  3.525319  0  0  -0.351862  -0.399779  0  3.510117  0
N  N68  1  0.56890435  0.26964051  0.62622307  1  0  -0.377307  0  3.339523  0  0  -0.324487  0  3.573322  0  0  -0.341589  0  3.583052  0  0  -0.371571  -0.312996  0  3.566555  0
N  N69  1  0.43109738  0.73035976  0.37377604  1  0  -0.377335  0  3.339422  0  0  -0.324497  0  3.573247  0  0  -0.341597  0  3.582974  0  0  -0.371568  -0.313006  0  3.566476  0
N  N70  1  0.97638388  0.81340686  0.19706296  1  0  -0.503395  0  3.211768  0  0  -0.433739  0  3.512645  0  0  -0.456812  0  3.52238  0  0  -0.363111  -0.418056  0  3.505807  0
N  N71  1  0.02361398  0.18659224  0.80293601  1  0  -0.503443  0  3.211717  0  0  -0.433816  0  3.512648  0  0  -0.456889  0  3.522381  0  0  -0.363151  -0.418139  0  3.505815  0
N  N72  1  0.07795457  0.06344966  0.19212516  1  0  -0.370759  0  3.3532  0  0  -0.309287  0  3.578513  0  0  -0.328576  0  3.591292  0  0  -0.366485  -0.296277  0  3.569706  0
N  N73  1  0.92204343  0.93655060  0.80787460  1  0  -0.370797  0  3.353229  0  0  -0.30927  0  3.578693  0  0  -0.328551  0  3.591474  0  0  -0.366432  -0.296298  0  3.569811  0
O  O74  1  0.41803819  0.29323720  0.88855983  1  0  -0.515234  0  2.08349  0  0  -0.470344  0  2.303039  0  0  -0.485702  0  2.293265  0  0  -0.40009  -0.459292  0  2.309582  0
O  O75  1  0.58196230  0.70676307  0.11144001  1  0  -0.515278  0  2.083457  0  0  -0.470406  0  2.303004  0  0  -0.485767  0  2.293227  0  0  -0.400123  -0.459357  0  2.309549  0
O  O76  1  0.12785331  0.37876132  0.21393182  1  0  -0.613518  0  1.95908  0  0  -0.567018  0  2.186074  0  0  -0.589761  0  2.176868  0  0  -0.318903  -0.551205  0  2.191967  0
O  O77  1  0.87215092  0.62123898  0.78606891  1  0  -0.613484  0  1.958986  0  0  -0.566958  0  2.185997  0  0  -0.5897  0  2.176795  0  0  -0.318885  -0.551169  0  2.191878  0
O  O78  1  0.03808856  0.53479129  0.33700571  1  0  -0.655058  0  2.047635  0  0  -0.579631  0  2.325443  0  0  -0.608275  0  2.309064  0  0  -0.33069  -0.559571  0  2.336073  0
O  O79  1  0.96191084  0.46521015  0.66299566  1  0  -0.655121  0  2.047596  0  0  -0.579713  0  2.325436  0  0  -0.608357  0  2.309053  0  0  -0.330728  -0.55966  0  2.33607  0
O  O80  1  0.28973147  0.72062389  0.78832401  1  0  -0.626651  0  1.979029  0  0  -0.575478  0  2.207256  0  0  -0.598533  0  2.196732  0  0  -0.31593  -0.559467  0  2.214102  0
O  O81  1  0.71026500  0.27937403  0.21167489  1  0  -0.626588  0  1.9789  0  0  -0.575418  0  2.207148  0  0  -0.598474  0  2.196624  0  0  -0.315908  -0.559403  0  2.214  0
O  O82  1  0.21040739  0.51911447  0.88690669  1  0  -0.672823  0  2.084605  0  0  -0.588131  0  2.345122  0  0  -0.616682  0  2.328028  0  0  -0.330036  -0.568181  0  2.35631  0
O  O83  1  0.78959321  0.48088695  0.11309086  1  0  -0.672824  0  2.084667  0  0  -0.588113  0  2.345177  0  0  -0.616664  0  2.328086  0  0  -0.330018  -0.568159  0  2.356365  0
O  O84  1  0.89351796  0.15617054  0.35767584  1  0  -0.532373  0  2.060525  0  0  -0.488509  0  2.277104  0  0  -0.503594  0  2.267401  0  0  -0.414015  -0.477679  0  2.283515  0
O  O85  1  0.10648003  0.84382972  0.64232315  1  0  -0.532386  0  2.060562  0  0  -0.488545  0  2.277116  0  0  -0.503631  0  2.26741  0  0  -0.414029  -0.477714  0  2.28353  0
