# generated using pymatgen
data_AgH12C7S2(OF)2
_symmetry_space_group_name_H-M   'P 1'
_cell_length_a   7.51005210
_cell_length_b   8.24778262
_cell_length_c   10.04044993
_cell_angle_alpha   112.13717474
_cell_angle_beta   107.32426456
_cell_angle_gamma   94.08352783
_symmetry_Int_Tables_number   1
_chemical_formula_structural   AgH12C7S2(OF)2
_chemical_formula_sum   'Ag2 H24 C14 S4 O4 F4'
_cell_volume   537.97839523
_cell_formula_units_Z   2
loop_
 _symmetry_equiv_pos_site_id
 _symmetry_equiv_pos_as_xyz
  1  'x, y, z'
loop_
 _atom_site_type_symbol
 _atom_site_label
 _atom_site_symmetry_multiplicity
 _atom_site_fract_x
 _atom_site_fract_y
 _atom_site_fract_z
 _atom_site_occupancy
 _atom_site_hle17_bader_spin_density
 _atom_site_hle17_ddec_charge
 _atom_site_hle17_ddec_spin_density
 _atom_site_hle17_ddec_sum_bond_order
 _atom_site_hle17_magmom
 _atom_site_hse06_10hf_bader_spin_density
 _atom_site_hse06_10hf_ddec_charge
 _atom_site_hse06_10hf_ddec_spin_density
 _atom_site_hse06_10hf_ddec_sum_bond_order
 _atom_site_hse06_10hf_magmom
 _atom_site_hse06_bader_spin_density
 _atom_site_hse06_ddec_charge
 _atom_site_hse06_ddec_spin_density
 _atom_site_hse06_ddec_sum_bond_order
 _atom_site_hse06_magmom
 _atom_site_pbe_bader_spin_density
 _atom_site_pbe_cm5_charge
 _atom_site_pbe_ddec_charge
 _atom_site_pbe_ddec_spin_density
 _atom_site_pbe_ddec_sum_bond_order
 _atom_site_pbe_magmom
Ag  Ag0  1  0.58512168  0.70091851  0.53268617  1  0  0.348294  0  1.666163  0  0  0.236528  0  2.132146  0  0  0.26094  0  2.087847  0  0  0.361533  0.219264  0  2.163396  0
Ag  Ag1  1  0.41487381  0.29907807  0.46731083  1  0  0.348288  0  1.666129  0  0  0.236505  0  2.132133  0  0  0.260923  0  2.087825  0  0  0.361519  0.219229  0  2.1634  0
H  H2  1  0.21550693  0.90061509  0.63423097  1  0  0.141498  0  0.96964  0  0  0.16165  0  1.025419  0  0  0.163515  0  1.025177  0  0  0.096224  0.160286  0  1.025548  0
H  H3  1  0.78449114  0.09938685  0.36576628  1  0  0.141533  0  0.969587  0  0  0.161639  0  1.025424  0  0  0.163515  0  1.025166  0  0  0.09622  0.160274  0  1.025553  0
H  H4  1  0.21085768  0.72386057  0.69787105  1  0  0.139559  0  0.943828  0  0  0.157176  0  1.006103  0  0  0.159073  0  1.005789  0  0  0.097773  0.155757  0  1.006412  0
H  H5  1  0.78913706  0.27614536  0.30213168  1  0  0.139591  0  0.94384  0  0  0.157194  0  1.006116  0  0  0.15909  0  1.005804  0  0  0.09778  0.155773  0  1.006428  0
H  H6  1  0.00005864  0.73210487  0.56045584  1  0  0.113731  0  0.975411  0  0  0.125141  0  1.053507  0  0  0.127261  0  1.052464  0  0  0.083238  0.123669  0  1.054152  0
H  H7  1  0.99993862  0.26789974  0.43954306  1  0  0.113735  0  0.975454  0  0  0.125147  0  1.053533  0  0  0.127269  0  1.052489  0  0  0.083258  0.123675  0  1.054177  0
H  H8  1  0.05993325  0.81262608  0.07821307  1  0  0.096831  0  0.937483  0  0  0.108803  0  1.003876  0  0  0.110064  0  1.003798  0  0  0.09419  0.107854  0  1.003957  0
H  H9  1  0.94006724  0.18736784  0.92178322  1  0  0.096865  0  0.93745  0  0  0.108793  0  1.003857  0  0  0.110062  0  1.003787  0  0  0.094206  0.107848  0  1.003937  0
H  H10  1  0.95659828  0.92968491  0.21366148  1  0  0.101665  0  0.940488  0  0  0.118294  0  1.000203  0  0  0.119214  0  1.000635  0  0  0.098644  0.117541  0  0.999918  0
H  H11  1  0.04340022  0.07030632  0.78633453  1  0  0.101633  0  0.940568  0  0  0.118249  0  1.00027  0  0  0.119178  0  1.000707  0  0  0.098633  0.117497  0  0.999992  0
H  H12  1  0.27159817  0.96683040  0.97968671  1  0  0.124866  0  0.945596  0  0  0.143731  0  1.006242  0  0  0.144816  0  1.007063  0  0  0.092491  0.142928  0  1.005553  0
H  H13  1  0.72840127  0.03317153  0.02031483  1  0  0.124821  0  0.945657  0  0  0.143697  0  1.006295  0  0  0.144783  0  1.007115  0  0  0.092474  0.142891  0  1.005604  0
H  H14  1  0.43935536  0.17231522  0.11083700  1  0  0.140027  0  0.95428  0  0  0.155395  0  1.020081  0  0  0.157424  0  1.018987  0  0  0.095841  0.153707  0  1.021172  0
H  H15  1  0.56063909  0.82768938  0.88916326  1  0  0.140001  0  0.954247  0  0  0.155412  0  1.02  0  0  0.15744  0  1.018906  0  0  0.095836  0.153718  0  1.021095  0
H  H16  1  0.45224702  0.97599609  0.14854560  1  0  0.136825  0  0.958317  0  0  0.154546  0  1.019615  0  0  0.155916  0  1.020161  0  0  0.095592  0.153466  0  1.0193  0
H  H17  1  0.54775692  0.02400720  0.85145538  1  0  0.136819  0  0.958314  0  0  0.154551  0  1.019604  0  0  0.155921  0  1.02015  0  0  0.095547  0.153466  0  1.019286  0
H  H18  1  0.12791896  0.56419655  0.19190637  1  0  0.102876  0  0.920913  0  0  0.116054  0  0.982978  0  0  0.117821  0  0.981695  0  0  0.097476  0.114556  0  0.984179  0
H  H19  1  0.87208180  0.43579868  0.80809637  1  0  0.102892  0  0.920859  0  0  0.1161  0  0.982899  0  0  0.117872  0  0.981614  0  0  0.09749  0.114607  0  0.984101  0
H  H20  1  0.97283066  0.66909655  0.28446878  1  0  0.092181  0  0.95751  0  0  0.110935  0  1.014325  0  0  0.110908  0  1.015787  0  0  0.095544  0.110833  0  1.01335  0
H  H21  1  0.02717011  0.33089869  0.71552999  1  0  0.092187  0  0.957411  0  0  0.110943  0  1.014247  0  0  0.110916  0  1.01571  0  0  0.095528  0.110843  0  1.013276  0
H  H22  1  0.23928042  0.95713812  0.43075756  1  0  0.071484  0  0.957322  0  0  0.089559  0  1.02404  0  0  0.091094  0  1.02265  0  0  0.084775  0.0883  0  1.025201  0
H  H23  1  0.76071867  0.04285580  0.56923742  1  0  0.071476  0  0.95727  0  0  0.089509  0  1.024026  0  0  0.091044  0  1.022633  0  0  0.084748  0.088249  0  1.025189  0
H  H24  1  0.35905341  0.84839739  0.30510479  1  0  0.078668  0  0.965022  0  0  0.094946  0  1.031557  0  0  0.096119  0  1.031601  0  0  0.085955  0.093943  0  1.031744  0
H  H25  1  0.64094596  0.15159786  0.69489366  1  0  0.078668  0  0.964983  0  0  0.094906  0  1.031538  0  0  0.096089  0  1.031569  0  0  0.085938  0.093914  0  1.031706  0
C  C26  1  0.62715641  0.63504478  0.22737367  1  0  0.530234  0  4.021587  0  0  0.474647  0  4.334751  0  0  0.506665  0  4.327982  0  0  0.174717  0.452933  0  4.338832  0
C  C27  1  0.37284430  0.36494379  0.77262002  1  0  0.530137  0  4.022163  0  0  0.474535  0  4.335275  0  0  0.506566  0  4.328525  0  0  0.174672  0.452814  0  4.339359  0
C  C28  1  0.60486943  0.52692445  0.05581260  1  0  0.322432  0  3.607971  0  0  0.274559  0  3.917588  0  0  0.288348  0  3.905913  0  0  0.18795  0.264183  0  3.92701  0
C  C29  1  0.39513846  0.47308418  0.94419193  1  0  0.322624  0  3.607714  0  0  0.274893  0  3.91717  0  0  0.288566  0  3.905659  0  0  0.188012  0.264539  0  3.926577  0
C  C30  1  0.15649683  0.75994932  0.60085170  1  0  -0.332292  0  3.600786  0  0  -0.404197  0  3.844497  0  0  -0.406884  0  3.853925  0  0  -0.233182  -0.402014  0  3.83777  0
C  C31  1  0.84349704  0.24005261  0.39914661  1  0  -0.332362  0  3.600808  0  0  -0.404195  0  3.84448  0  0  -0.406896  0  3.853911  0  0  -0.233231  -0.402002  0  3.837728  0
C  C32  1  0.09310860  0.91189766  0.19675683  1  0  -0.147376  0  3.632011  0  0  -0.182146  0  3.892657  0  0  -0.182475  0  3.906405  0  0  -0.151637  -0.181758  0  3.883188  0
C  C33  1  0.90689049  0.08809625  0.80323915  1  0  -0.147487  0  3.632335  0  0  -0.182136  0  3.892777  0  0  -0.182514  0  3.906589  0  0  -0.151675  -0.181755  0  3.883323  0
C  C34  1  0.35706653  0.05039483  0.10059633  1  0  -0.332219  0  3.599545  0  0  -0.406103  0  3.850123  0  0  -0.407533  0  3.859239  0  0  -0.233879  -0.404848  0  3.843894  0
C  C35  1  0.64293460  0.94960844  0.89940701  1  0  -0.33216  0  3.599544  0  0  -0.406095  0  3.850103  0  0  -0.407522  0  3.859216  0  0  -0.233836  -0.404829  0  3.843859  0
C  C36  1  0.12281244  0.67330739  0.29488625  1  0  -0.131587  0  3.614197  0  0  -0.166849  0  3.87609  0  0  -0.166755  0  3.889355  0  0  -0.149558  -0.166684  0  3.866798  0
C  C37  1  0.87718495  0.32668517  0.70511192  1  0  -0.131594  0  3.614076  0  0  -0.166911  0  3.875979  0  0  -0.166823  0  3.889249  0  0  -0.149589  -0.166756  0  3.866704  0
C  C38  1  0.21764181  0.85521978  0.31513444  1  0  -0.117888  0  3.720481  0  0  -0.160517  0  3.975534  0  0  -0.162179  0  3.990657  0  0  -0.179238  -0.159212  0  3.965113  0
C  C39  1  0.78236175  0.14477546  0.68486595  1  0  -0.117815  0  3.720457  0  0  -0.160368  0  3.975434  0  0  -0.162018  0  3.990556  0  0  -0.179125  -0.15907  0  3.965015  0
S  S40  1  0.19718116  0.12261225  0.20464875  1  0  0.061224  0  2.706302  0  0  0.100436  0  3.132719  0  0  0.092787  0  3.127374  0  0  -0.014418  0.105192  0  3.136774  0
S  S41  1  0.80281851  0.87738433  0.79535118  1  0  0.061293  0  2.706335  0  0  0.100472  0  3.132734  0  0  0.092837  0  3.12741  0  0  -0.01436  0.105231  0  3.136779  0
S  S42  1  0.22917533  0.61116021  0.45114211  1  0  0.058939  0  2.744116  0  0  0.107677  0  3.169564  0  0  0.101039  0  3.161875  0  0  -0.017513  0.112375  0  3.174966  0
S  S43  1  0.77082074  0.38883903  0.54885884  1  0  0.058928  0  2.744128  0  0  0.107678  0  3.16956  0  0  0.101038  0  3.16188  0  0  -0.017498  0.112378  0  3.174961  0
O  O44  1  0.65933892  0.80194136  0.27787506  1  0  -0.581404  0  1.952136  0  0  -0.544903  0  2.186395  0  0  -0.566707  0  2.176936  0  0  -0.323855  -0.529335  0  2.192267  0
O  O45  1  0.34066463  0.19807929  0.72213721  1  0  -0.581279  0  1.952903  0  0  -0.5448  0  2.187178  0  0  -0.566592  0  2.177704  0  0  -0.323785  -0.529236  0  2.193056  0
O  O46  1  0.60370170  0.53628728  0.29452738  1  0  -0.576792  0  2.074714  0  0  -0.523079  0  2.344296  0  0  -0.550282  0  2.334311  0  0  -0.335945  -0.503896  0  2.350856  0
O  O47  1  0.39629686  0.46371064  0.70547371  1  0  -0.576789  0  2.074742  0  0  -0.523081  0  2.344318  0  0  -0.550284  0  2.334327  0  0  -0.335942  -0.503892  0  2.350874  0
F  F48  1  0.71036167  0.62365200  0.00864020  1  0  -0.218959  0  1.220407  0  0  -0.170985  0  1.390547  0  0  -0.180305  0  1.379359  0  0  -0.098436  -0.164112  0  1.398374  0
F  F49  1  0.28964210  0.37636331  0.99136648  1  0  -0.218985  0  1.220391  0  0  -0.171058  0  1.390503  0  0  -0.180358  0  1.379357  0  0  -0.098445  -0.164185  0  1.398325  0
F  F50  1  0.67440309  0.37155269  0.03661893  1  0  -0.222844  0  1.190432  0  0  -0.17136  0  1.352218  0  0  -0.179925  0  1.340605  0  0  -0.104273  -0.164994  0  1.360397  0
F  F51  1  0.32561296  0.62846132  0.96338511  1  0  -0.222991  0  1.190424  0  0  -0.17152  0  1.352164  0  0  -0.180062  0  1.340592  0  0  -0.104387  -0.165159  0  1.360341  0
