# generated using pymatgen
data_AgH17C15S(NO)2
_symmetry_space_group_name_H-M   'P 1'
_cell_length_a   7.89004690
_cell_length_b   8.08647886
_cell_length_c   12.45192456
_cell_angle_alpha   94.85968225
_cell_angle_beta   95.65183307
_cell_angle_gamma   107.47409168
_symmetry_Int_Tables_number   1
_chemical_formula_structural   AgH17C15S(NO)2
_chemical_formula_sum   'Ag2 H34 C30 S2 N4 O4'
_cell_volume   748.63400866
_cell_formula_units_Z   2
loop_
 _symmetry_equiv_pos_site_id
 _symmetry_equiv_pos_as_xyz
  1  'x, y, z'
loop_
 _atom_site_type_symbol
 _atom_site_label
 _atom_site_symmetry_multiplicity
 _atom_site_fract_x
 _atom_site_fract_y
 _atom_site_fract_z
 _atom_site_occupancy
 _atom_site_hle17_bader_spin_density
 _atom_site_hle17_ddec_charge
 _atom_site_hle17_ddec_spin_density
 _atom_site_hle17_ddec_sum_bond_order
 _atom_site_hle17_magmom
 _atom_site_hse06_10hf_bader_spin_density
 _atom_site_hse06_10hf_ddec_charge
 _atom_site_hse06_10hf_ddec_spin_density
 _atom_site_hse06_10hf_ddec_sum_bond_order
 _atom_site_hse06_10hf_magmom
 _atom_site_hse06_bader_spin_density
 _atom_site_hse06_ddec_charge
 _atom_site_hse06_ddec_spin_density
 _atom_site_hse06_ddec_sum_bond_order
 _atom_site_hse06_magmom
 _atom_site_pbe_bader_spin_density
 _atom_site_pbe_cm5_charge
 _atom_site_pbe_ddec_charge
 _atom_site_pbe_ddec_spin_density
 _atom_site_pbe_ddec_sum_bond_order
 _atom_site_pbe_magmom
Ag  Ag0  1  0.49999966  0.50000000  0.00000139  1  0  0.544384  0  1.53555  0  0  0.407173  0  1.965971  0  0  0.435438  0  1.919382  0  0  0.487938  0.38763  0  1.997781  0
Ag  Ag1  1  0.99999826  0.49999931  0.99999899  1  0  0.5014  0  1.396115  0  0  0.338893  0  1.812752  0  0  0.371438  0  1.772347  0  0  0.475698  0.316458  0  1.84048  0
H  H2  1  0.72833010  0.13308908  0.95333155  1  0  0.0778  0  0.924591  0  0  0.094027  0  0.978904  0  0  0.096114  0  0.976787  0  0  0.118493  0.092386  0  0.980603  0
H  H3  1  0.27166993  0.86691403  0.04665997  1  0  0.077776  0  0.924644  0  0  0.094021  0  0.978914  0  0  0.096108  0  0.976797  0  0  0.11851  0.092393  0  0.9806  0
H  H4  1  0.72210210  0.83641840  0.87473857  1  0  0.11574  0  0.967524  0  0  0.127399  0  1.027031  0  0  0.130157  0  1.026174  0  0  0.108619  0.125346  0  1.027918  0
H  H5  1  0.27789874  0.16358737  0.12525157  1  0  0.115677  0  0.967502  0  0  0.127371  0  1.026978  0  0  0.130127  0  1.026119  0  0  0.108586  0.125316  0  1.027868  0
H  H6  1  0.00195070  0.80210681  0.80559568  1  0  0.111511  0  0.951735  0  0  0.124907  0  1.009432  0  0  0.127676  0  1.007398  0  0  0.109402  0.122793  0  1.011023  0
H  H7  1  0.99805319  0.19789230  0.19439817  1  0  0.111488  0  0.951761  0  0  0.12487  0  1.00947  0  0  0.127628  0  1.007449  0  0  0.109398  0.122758  0  1.011059  0
H  H8  1  0.30620978  0.06239185  0.70718453  1  0  0.109514  0  0.959809  0  0  0.131951  0  1.021769  0  0  0.131475  0  1.024379  0  0  0.092776  0.132212  0  1.02002  0
H  H9  1  0.69379421  0.93760713  0.29281414  1  0  0.109475  0  0.959831  0  0  0.131913  0  1.021798  0  0  0.131438  0  1.024408  0  0  0.092761  0.132174  0  1.020047  0
H  H10  1  0.32759097  0.93105955  0.81141839  1  0  0.126216  0  0.961183  0  0  0.146617  0  1.020335  0  0  0.1482  0  1.019815  0  0  0.092991  0.145413  0  1.020706  0
H  H11  1  0.67241350  0.06894461  0.18858307  1  0  0.126217  0  0.961179  0  0  0.14666  0  1.020285  0  0  0.148248  0  1.019768  0  0  0.093002  0.145451  0  1.020664  0
H  H12  1  0.43061080  0.16337706  0.83364993  1  0  0.103822  0  0.96442  0  0  0.124623  0  1.02933  0  0  0.125581  0  1.029017  0  0  0.086635  0.123849  0  1.029586  0
H  H13  1  0.56939448  0.83662582  0.16634987  1  0  0.103841  0  0.964423  0  0  0.124655  0  1.029315  0  0  0.125613  0  1.029003  0  0  0.086661  0.12388  0  1.029572  0
H  H14  1  0.09803783  0.14335655  0.43457450  1  0  0.097152  0  0.952442  0  0  0.110179  0  1.010254  0  0  0.113068  0  1.010049  0  0  0.098026  0.108117  0  1.010549  0
H  H15  1  0.90195985  0.85664636  0.56542573  1  0  0.097162  0  0.952449  0  0  0.110198  0  1.01025  0  0  0.113082  0  1.010049  0  0  0.098026  0.108136  0  1.010547  0
H  H16  1  0.89485142  0.21354995  0.51646913  1  0  0.102158  0  0.951728  0  0  0.124392  0  1.011153  0  0  0.126097  0  1.010232  0  0  0.088789  0.123132  0  1.011846  0
H  H17  1  0.10514670  0.78645424  0.48353200  1  0  0.102202  0  0.951751  0  0  0.12444  0  1.011159  0  0  0.126144  0  1.010241  0  0  0.088814  0.12318  0  1.011854  0
H  H18  1  0.95760111  0.43201606  0.58211338  1  0  0.121604  0  0.950712  0  0  0.145129  0  1.006326  0  0  0.146561  0  1.006126  0  0  0.095438  0.144072  0  1.006515  0
H  H19  1  0.04239270  0.56798693  0.41788425  1  0  0.121564  0  0.95066  0  0  0.1451  0  1.006287  0  0  0.146533  0  1.006087  0  0  0.095415  0.144039  0  1.00648  0
H  H20  1  0.92635426  0.25781028  0.66079056  1  0  0.108729  0  0.960422  0  0  0.127567  0  1.025834  0  0  0.129162  0  1.025621  0  0  0.088882  0.126379  0  1.026075  0
H  H21  1  0.07364382  0.74219396  0.33920897  1  0  0.108717  0  0.960391  0  0  0.127541  0  1.025862  0  0  0.129137  0  1.025648  0  0  0.088862  0.126352  0  1.0261  0
H  H22  1  0.30017163  0.01127073  0.34911915  1  0  0.102714  0  0.965022  0  0  0.122775  0  1.028656  0  0  0.123972  0  1.029396  0  0  0.085724  0.121894  0  1.028154  0
H  H23  1  0.69982902  0.98872560  0.65088158  1  0  0.102707  0  0.964912  0  0  0.122768  0  1.028553  0  0  0.123964  0  1.029293  0  0  0.085713  0.121888  0  1.028052  0
H  H24  1  0.52197138  0.05080869  0.41396801  1  0  0.104481  0  0.97115  0  0  0.126739  0  1.032234  0  0  0.127983  0  1.032558  0  0  0.088657  0.125805  0  1.032065  0
H  H25  1  0.47803025  0.94919011  0.58603856  1  0  0.104559  0  0.971124  0  0  0.126755  0  1.032275  0  0  0.128002  0  1.032595  0  0  0.088661  0.125821  0  1.032107  0
H  H26  1  0.47459061  0.19808168  0.32816443  1  0  0.126268  0  0.977125  0  0  0.14547  0  1.040082  0  0  0.147331  0  1.039724  0  0  0.092421  0.144101  0  1.040363  0
H  H27  1  0.52541435  0.80191585  0.67183981  1  0  0.126248  0  0.977216  0  0  0.145478  0  1.04014  0  0  0.147326  0  1.039792  0  0  0.092453  0.144108  0  1.040421  0
H  H28  1  0.65584248  0.30989552  0.55923912  1  0  0.096625  0  0.978942  0  0  0.111317  0  1.038901  0  0  0.113311  0  1.039517  0  0  0.099955  0.109867  0  1.038647  0
H  H29  1  0.34415234  0.69009419  0.44076568  1  0  0.096597  0  0.979069  0  0  0.111346  0  1.038967  0  0  0.113342  0  1.039579  0  0  0.099969  0.109898  0  1.038707  0
H  H30  1  0.76298515  0.44659741  0.72447922  1  0  0.120419  0  0.963847  0  0  0.141111  0  1.022704  0  0  0.143216  0  1.022068  0  0  0.091346  0.139584  0  1.023168  0
H  H31  1  0.23700919  0.55338712  0.27552279  1  0  0.120404  0  0.96387  0  0  0.141121  0  1.022703  0  0  0.143226  0  1.022067  0  0  0.091366  0.139592  0  1.023169  0
H  H32  1  0.62476464  0.47802214  0.82368703  1  0  0.075377  0  1.025383  0  0  0.088337  0  1.116438  0  0  0.091547  0  1.111171  0  0  0.067848  0.085991  0  1.120152  0
H  H33  1  0.37523101  0.52196627  0.17631692  1  0  0.075262  0  1.025307  0  0  0.088249  0  1.116354  0  0  0.091459  0  1.111083  0  0  0.067805  0.085903  0  1.12007  0
H  H34  1  0.69717288  0.63748991  0.73577224  1  0  0.115936  0  0.965824  0  0  0.140551  0  1.022226  0  0  0.141389  0  1.023481  0  0  0.0947  0.139927  0  1.021404  0
H  H35  1  0.30283124  0.36250106  0.26423232  1  0  0.116124  0  0.965817  0  0  0.140695  0  1.022235  0  0  0.141535  0  1.02349  0  0  0.094808  0.140072  0  1.02141  0
C  C36  1  0.84228417  0.11253953  0.91758905  1  0  0.116136  0  3.735254  0  0  0.084175  0  3.976563  0  0  0.090807  0  3.997752  0  0  0.038248  0.079922  0  3.962081  0
C  C37  1  0.15771755  0.88746489  0.08240265  1  0  0.116153  0  3.735286  0  0  0.084235  0  3.976624  0  0  0.090874  0  3.997816  0  0  0.038223  0.079969  0  3.96214  0
C  C38  1  0.84120950  0.94784670  0.87517663  1  0  -0.119002  0  3.759363  0  0  -0.133965  0  4.014367  0  0  -0.140987  0  4.037739  0  0  -0.08844  -0.129497  0  3.998706  0
C  C39  1  0.15879009  0.05215905  0.12481424  1  0  -0.119079  0  3.759188  0  0  -0.134073  0  4.014193  0  0  -0.141089  0  4.037551  0  0  -0.088445  -0.129606  0  3.998537  0
C  C40  1  0.99523890  0.93058496  0.83588961  1  0  -0.068559  0  3.692409  0  0  -0.092619  0  3.937088  0  0  -0.090144  0  3.956303  0  0  -0.070314  -0.09391  0  3.924069  0
C  C41  1  0.00476290  0.06941543  0.16410583  1  0  -0.068348  0  3.692238  0  0  -0.092393  0  3.93688  0  0  -0.089912  0  3.956105  0  0  -0.070279  -0.093687  0  3.92386  0
C  C42  1  0.14500630  0.07724977  0.83552395  1  0  0.037558  0  3.696208  0  0  0.064878  0  3.934629  0  0  0.058751  0  3.960482  0  0  -0.000592  0.068636  0  3.917322  0
C  C43  1  0.85499898  0.92274919  0.16447558  1  0  0.03742  0  3.696262  0  0  0.064774  0  3.934634  0  0  0.058645  0  3.960487  0  0  -0.000567  0.068532  0  3.917323  0
C  C44  1  0.13351879  0.24139098  0.87640897  1  0  0.347487  0  3.791129  0  0  0.319117  0  4.037279  0  0  0.332916  0  4.059149  0  0  0.2024  0.309718  0  4.022382  0
C  C45  1  0.86648691  0.75860929  0.12359067  1  0  0.347364  0  3.791259  0  0  0.319015  0  4.037412  0  0  0.332822  0  4.059286  0  0  0.202291  0.309615  0  4.022513  0
C  C46  1  0.31162558  0.05725688  0.79541544  1  0  -0.322096  0  3.713018  0  0  -0.40252  0  3.939421  0  0  -0.404159  0  3.951727  0  0  -0.24435  -0.400969  0  3.930935  0
C  C47  1  0.68837928  0.94274470  0.20458425  1  0  -0.322061  0  3.712983  0  0  -0.402549  0  3.939359  0  0  -0.404191  0  3.951664  0  0  -0.244399  -0.400995  0  3.930879  0
C  C48  1  0.31350302  0.40988773  0.66550285  1  0  -0.242873  0  3.608261  0  0  -0.229732  0  3.853625  0  0  -0.239913  0  3.875644  0  0  -0.02697  -0.223239  0  3.839086  0
C  C49  1  0.68649298  0.59011386  0.33449800  1  0  -0.242994  0  3.608295  0  0  -0.229775  0  3.853669  0  0  -0.239958  0  3.87569  0  0  -0.026969  -0.223281  0  3.839132  0
C  C50  1  0.17035867  0.31422765  0.58464741  1  0  0.163685  0  3.742736  0  0  0.178052  0  3.990049  0  0  0.183129  0  4.013204  0  0  -0.005094  0.17478  0  3.974284  0
C  C51  1  0.82964111  0.68577789  0.41535230  1  0  0.163756  0  3.742628  0  0  0.178061  0  3.990001  0  0  0.183141  0  4.013153  0  0  -0.005062  0.174789  0  3.974236  0
C  C52  1  0.20895397  0.21858035  0.49617755  1  0  -0.207343  0  3.706156  0  0  -0.232399  0  3.951453  0  0  -0.239726  0  3.972369  0  0  -0.101812  -0.227616  0  3.937383  0
C  C53  1  0.79104457  0.78142123  0.50382343  1  0  -0.207374  0  3.70598  0  0  -0.232429  0  3.951291  0  0  -0.239751  0  3.972207  0  0  -0.101834  -0.227651  0  3.937234  0
C  C54  1  0.97694455  0.30384042  0.58614243  1  0  -0.343723  0  3.744775  0  0  -0.427965  0  3.987263  0  0  -0.429986  0  3.994447  0  0  -0.245705  -0.426296  0  3.982226  0
C  C55  1  0.02305696  0.69616638  0.41385906  1  0  -0.343707  0  3.744768  0  0  -0.427967  0  3.987296  0  0  -0.429988  0  3.994483  0  0  -0.245701  -0.426297  0  3.982258  0
C  C56  1  0.42091355  0.11319283  0.38931087  1  0  -0.34887  0  3.709147  0  0  -0.426874  0  3.938776  0  0  -0.430054  0  3.946826  0  0  -0.244978  -0.424381  0  3.933112  0
C  C57  1  0.57908335  0.88680346  0.61069208  1  0  -0.348915  0  3.709196  0  0  -0.426901  0  3.938805  0  0  -0.430068  0  3.946867  0  0  -0.245025  -0.424409  0  3.933141  0
C  C58  1  0.38206562  0.21546510  0.48470026  1  0  0.175571  0  3.798294  0  0  0.197243  0  4.042886  0  0  0.202682  0  4.064165  0  0  -0.006579  0.193674  0  4.028336  0
C  C59  1  0.61793000  0.78453120  0.51530262  1  0  0.175592  0  3.798329  0  0  0.197289  0  4.042898  0  0  0.202727  0  4.064178  0  0  -0.006561  0.193722  0  4.028342  0
C  C60  1  0.51973262  0.31128680  0.56594075  1  0  -0.195326  0  3.695798  0  0  -0.224091  0  3.939837  0  0  -0.231223  0  3.961733  0  0  -0.09625  -0.219444  0  3.925143  0
C  C61  1  0.48026215  0.68870689  0.43406191  1  0  -0.195376  0  3.695942  0  0  -0.224159  0  3.939962  0  0  -0.231295  0  3.961868  0  0  -0.096263  -0.219506  0  3.925258  0
C  C62  1  0.49069484  0.40680721  0.65717021  1  0  0.167165  0  3.737723  0  0  0.187941  0  3.974216  0  0  0.192488  0  3.998011  0  0  -0.001072  0.184996  0  3.958054  0
C  C63  1  0.50930331  0.59318909  0.34283200  1  0  0.167282  0  3.737697  0  0  0.187951  0  3.974318  0  0  0.192501  0  3.998109  0  0  -0.001068  0.185006  0  3.958158  0
C  C64  1  0.65186201  0.49630689  0.73971213  1  0  -0.335397  0  3.710649  0  0  -0.418479  0  3.943443  0  0  -0.421374  0  3.951521  0  0  -0.247716  -0.416173  0  3.937774  0
C  C65  1  0.34813404  0.50368285  0.26029113  1  0  -0.335487  0  3.710658  0  0  -0.418552  0  3.943506  0  0  -0.421447  0  3.951577  0  0  -0.247815  -0.416245  0  3.937841  0
S  S66  1  0.27213365  0.52220911  0.78607188  1  0  1.208662  0  5.480942  0  0  1.12307  0  5.966799  0  0  1.167592  0  5.953507  0  0  0.52894  1.0924  0  5.974983  0
S  S67  1  0.72785809  0.47778730  0.21392760  1  0  1.20872  0  5.481042  0  0  1.123127  0  5.966876  0  0  1.167654  0  5.953581  0  0  0.528972  1.092457  0  5.975058  0
N  N68  1  0.98542647  0.25504972  0.91915501  1  0  -0.362214  0  3.372261  0  0  -0.267385  0  3.645237  0  0  -0.289679  0  3.663991  0  0  -0.357487  -0.252289  0  3.632196  0
N  N69  1  0.01457664  0.74495455  0.08084236  1  0  -0.362048  0  3.37234  0  0  -0.267331  0  3.645413  0  0  -0.289649  0  3.664196  0  0  -0.357415  -0.252234  0  3.63237  0
N  N70  1  0.27623836  0.39644126  0.87995274  1  0  -0.748481  0  3.316069  0  0  -0.653156  0  3.626918  0  0  -0.682653  0  3.630417  0  0  -0.468098  -0.632437  0  3.623437  0
N  N71  1  0.72376652  0.60356030  0.12004775  1  0  -0.748436  0  3.316168  0  0  -0.653086  0  3.626965  0  0  -0.682583  0  3.630456  0  0  -0.468048  -0.632366  0  3.623483  0
O  O72  1  0.09810503  0.54888366  0.76449800  1  0  -0.62337  0  1.99634  0  0  -0.569033  0  2.249535  0  0  -0.591054  0  2.237794  0  0  -0.319575  -0.55346  0  2.256971  0
O  O73  1  0.90189950  0.45112044  0.23550586  1  0  -0.62341  0  1.99615  0  0  -0.569072  0  2.249357  0  0  -0.591096  0  2.237619  0  0  -0.319597  -0.553497  0  2.256791  0
O  O74  1  0.42401530  0.67943226  0.82030432  1  0  -0.637976  0  2.028854  0  0  -0.582383  0  2.28208  0  0  -0.603691  0  2.269047  0  0  -0.327071  -0.567327  0  2.29041  0
O  O75  1  0.57598869  0.32057065  0.17969461  1  0  -0.637956  0  2.029108  0  0  -0.582379  0  2.282351  0  0  -0.603689  0  2.26932  0  0  -0.327071  -0.567323  0  2.290681  0
