# generated using pymatgen
data_V2CuH8C10(NO3)2
_symmetry_space_group_name_H-M   'P 1'
_cell_length_a   7.92610395
_cell_length_b   8.17960618
_cell_length_c   10.21022567
_cell_angle_alpha   72.52010076
_cell_angle_beta   84.93680895
_cell_angle_gamma   76.52084652
_symmetry_Int_Tables_number   1
_chemical_formula_structural   V2CuH8C10(NO3)2
_chemical_formula_sum   'V4 Cu2 H16 C20 N4 O12'
_cell_volume   613.87569842
_cell_formula_units_Z   2
loop_
 _symmetry_equiv_pos_site_id
 _symmetry_equiv_pos_as_xyz
  1  'x, y, z'
loop_
 _atom_site_type_symbol
 _atom_site_label
 _atom_site_symmetry_multiplicity
 _atom_site_fract_x
 _atom_site_fract_y
 _atom_site_fract_z
 _atom_site_occupancy
 _atom_site_hle17_ddec_charge
 _atom_site_hle17_ddec_spin_density
 _atom_site_hle17_ddec_sum_bond_order
 _atom_site_hle17_magmom
 _atom_site_hse06_10hf_ddec_charge
 _atom_site_hse06_10hf_ddec_spin_density
 _atom_site_hse06_10hf_ddec_sum_bond_order
 _atom_site_hse06_10hf_magmom
 _atom_site_hse06_ddec_charge
 _atom_site_hse06_ddec_spin_density
 _atom_site_hse06_ddec_sum_bond_order
 _atom_site_hse06_magmom
 _atom_site_pbe_cm5_charge
 _atom_site_pbe_ddec_charge
 _atom_site_pbe_ddec_spin_density
 _atom_site_pbe_ddec_sum_bond_order
 _atom_site_pbe_magmom
V  V0  1  0.87391050  0.38424070  0.34804503  1  1.982848  -0.007823  3.030828  -0.007  2.055204  0.011923  3.416995  0.019  2.15101  0.009497  3.394124  0.016  1.446511  1.973115  0.014168  3.463598  0.022
V  V1  1  0.12609503  0.61575872  0.65194904  1  1.982881  0.007791  3.030894  0.007  2.055261  -0.011926  3.417049  -0.019  2.151057  -0.009496  3.394198  -0.016  1.446506  1.973155  -0.014167  3.463695  -0.022
V  V2  1  0.26290444  0.26800823  0.53133636  1  1.995323  0.018464  3.019919  0.027  2.070822  0.017164  3.402226  0.027  2.16719  0.014196  3.379864  0.024  1.450276  1.992542  0.018671  3.440776  0.029
V  V3  1  0.73709556  0.73198736  0.46866589  1  1.99527  -0.018508  3.020161  -0.027  2.070893  -0.017174  3.402304  -0.027  2.167157  -0.014202  3.380093  -0.024  1.450262  1.992575  -0.018674  3.44092  -0.029
Cu  Cu4  1  0.57823297  0.16477969  0.27859240  1  0.990726  0.73332  1.883617  0.511  1.002276  0.805391  2.278283  0.626  1.084953  0.886706  2.207241  0.719  0.771285  0.951331  0.738438  2.327974  0.557
Cu  Cu5  1  0.42177084  0.83521584  0.72140861  1  0.990742  -0.733329  1.883668  -0.511  1.002282  -0.805386  2.2783  -0.626  1.085063  -0.886703  2.207127  -0.719  0.771304  0.95134  -0.73844  2.327993  -0.557
H  H6  1  0.81071719  0.37243073  0.06238144  1  0.096858  0.00151  0.961779  0.003  0.103149  0.00106  1.02739  0.002  0.105147  0.000656  1.025191  0.001  0.120397  0.10153  0.001414  1.029032  0.003
H  H7  1  0.18928088  0.62758058  0.93760930  1  0.096859  -0.00151  0.961856  -0.003  0.103159  -0.001061  1.027423  -0.002  0.105156  -0.000656  1.025225  -0.001  0.120401  0.101542  -0.001414  1.029059  -0.003
H  H8  1  0.81758859  0.47634623  0.80704141  1  0.119765  0.00054  0.984902  0.001  0.125995  0.000441  1.050684  0.001  0.129488  0.000309  1.049174  0.0  0.11077  0.123538  0.000543  1.051569  0.001
H  H9  1  0.18239624  0.52366789  0.19294959  1  0.119719  -0.000539  0.984958  -0.001  0.125997  -0.000441  1.05068  -0.001  0.129492  -0.000309  1.049164  0.0  0.11075  0.12354  -0.000543  1.051564  -0.001
H  H10  1  0.59032361  0.41804471  0.67664804  1  0.116043  0.000434  0.939262  0.001  0.125428  8.9e-05  0.998292  0.0  0.128326  3.9e-05  0.995839  0.0  0.116564  0.123257  0.000148  1.000147  0.0
H  H11  1  0.40966668  0.58195494  0.32334804  1  0.116092  -0.000436  0.9393  -0.001  0.125484  -8.9e-05  0.998321  0.0  0.128378  -3.8e-05  0.995881  0.0  0.116575  0.123325  -0.000148  1.000149  0.0
H  H12  1  0.36898340  0.25772188  0.81085171  1  0.117085  0.000876  0.986544  0.001  0.121685  0.000618  1.056611  0.001  0.124813  0.00039  1.054849  0.001  0.110555  0.11964  0.000804  1.057373  0.001
H  H13  1  0.63101565  0.74226587  0.18915250  1  0.117125  -0.000875  0.986471  -0.001  0.121701  -0.000617  1.056553  -0.001  0.124828  -0.00039  1.054789  -0.001  0.110547  0.119653  -0.000804  1.057313  -0.001
H  H14  1  0.15640376  0.18237069  0.94124475  1  0.129968  0.001017  0.945842  0.001  0.141942  0.000768  1.000362  0.001  0.14491  0.000494  0.998898  0.001  0.115365  0.139844  0.000978  1.001476  0.001
H  H15  1  0.84359439  0.81764065  0.05876361  1  0.13006  -0.001017  0.945637  -0.001  0.141994  -0.000768  1.000178  -0.001  0.144961  -0.000495  0.998716  -0.001  0.115368  0.139895  -0.000978  1.001298  -0.001
H  H16  1  0.95977575  0.02055150  0.11449570  1  0.096594  0.000322  0.955048  0.001  0.107608  -5.3e-05  1.016216  0.0  0.109364  -9.1e-05  1.015399  0.0  0.11002  0.106224  3.7e-05  1.017075  0.0
H  H17  1  0.04022138  0.97945855  0.88550913  1  0.09663  -0.000326  0.954879  -0.001  0.107667  5.4e-05  1.01602  0.0  0.109422  9.1e-05  1.015207  0.0  0.110053  0.10628  -3.7e-05  1.016882  0.0
H  H18  1  0.04701077  0.89609893  0.35867080  1  0.118683  0.000755  0.97039  0.001  0.124872  0.00061  1.033937  0.001  0.127994  0.000415  1.032748  0.001  0.114393  0.12261  0.000745  1.03463  0.001
H  H19  1  0.95299359  0.10389398  0.64133375  1  0.118694  -0.000753  0.970438  -0.001  0.124876  -0.00061  1.033988  -0.001  0.128  -0.000415  1.032796  -0.001  0.114422  0.122616  -0.000745  1.034681  -0.001
H  H20  1  0.32423414  0.94498397  0.42682947  1  0.099015  0.00227  0.971115  0.004  0.101809  0.001625  1.042686  0.003  0.103509  0.001109  1.039776  0.002  0.124989  0.100575  0.002058  1.044343  0.003
H  H21  1  0.67577407  0.05500234  0.57317444  1  0.098994  -0.002272  0.97108  -0.004  0.101805  -0.001625  1.042687  -0.003  0.103501  -0.001109  1.039772  -0.002  0.125005  0.100575  -0.002058  1.044351  -0.003
C  C22  1  0.71594351  0.34887582  0.00257964  1  0.141024  -0.006442  3.664053  -0.007  0.117102  -0.000238  3.9187  -0.001  0.126917  -0.001348  3.937614  -0.003  0.052833  0.110677  0.000812  3.906301  0.0
C  C23  1  0.28405309  0.65113028  0.99741541  1  0.14089  0.006443  3.664258  0.007  0.117021  0.000238  3.918837  0.001  0.12684  0.001348  3.937752  0.003  0.05279  0.110594  -0.000812  3.906432  0.0
C  C24  1  0.71688007  0.40819543  0.85941080  1  -0.11136  0.011005  3.681277  0.012  -0.12799  0.004615  3.935936  0.005  -0.13617  0.003696  3.956457  0.004  -0.079237  -0.12283  0.005387  3.922836  0.006
C  C25  1  0.28310917  0.59180947  0.14058408  1  -0.111168  -0.01101  3.681218  -0.012  -0.127815  -0.004616  3.935786  -0.005  -0.135997  -0.003696  3.956316  -0.004  -0.079131  -0.122661  -0.005386  3.922691  -0.006
C  C26  1  0.59191830  0.37515286  0.78861165  1  -0.005137  -0.008061  3.701311  -0.008  -0.029981  -0.002159  3.966419  -0.002  -0.026079  -0.002182  3.983914  -0.002  -0.058314  -0.032754  -0.002162  3.955054  -0.002
C  C27  1  0.40807482  0.62484544  0.21138945  1  -0.005251  0.00808  3.701318  0.008  -0.030141  0.002161  3.966446  0.002  -0.026244  0.002183  3.98394  0.002  -0.05835  -0.032921  0.002162  3.955064  0.002
C  C28  1  0.46733951  0.28708848  0.86284925  1  -0.122045  0.007029  3.679226  0.007  -0.142362  0.002685  3.928793  0.003  -0.149111  0.002243  3.949807  0.002  -0.072477  -0.137951  0.003093  3.914633  0.003
C  C29  1  0.53265895  0.71290844  0.13715083  1  -0.12211  -0.007043  3.679175  -0.007  -0.14243  -0.002685  3.92885  -0.003  -0.149172  -0.002245  3.949857  -0.002  -0.072521  -0.138022  -0.003094  3.914695  -0.003
C  C30  1  0.47072806  0.23484513  0.00594059  1  0.166225  -0.002166  3.772831  -0.002  0.166819  0.001187  4.016178  0.001  0.174592  5.3e-05  4.037208  0.0  0.115761  0.161695  0.002151  4.002193  0.002
C  C31  1  0.52927116  0.76515440  0.99406174  1  0.1662  0.002169  3.77286  0.002  0.166835  -0.001188  4.016215  -0.001  0.174607  -5.1e-05  4.03725  0.0  0.115768  0.161702  -0.00215  4.002234  -0.002
C  C32  1  0.34306872  0.14616275  0.09448185  1  0.175974  -0.00472  3.75688  -0.005  0.174492  0.000503  3.998748  0.0  0.182802  -0.000887  4.020022  -0.002  0.12071  0.168928  0.001718  3.984861  0.001
C  C33  1  0.65693688  0.85383670  0.90552592  1  0.176111  0.004728  3.756807  0.005  0.174536  -0.000503  3.998786  0.0  0.182844  0.000889  4.020068  0.002  0.120693  0.168981  -0.001718  3.984888  -0.001
C  C34  1  0.19063718  0.12452310  0.04894387  1  -0.122767  0.009581  3.647754  0.01  -0.139725  0.003251  3.888822  0.003  -0.146248  0.00282  3.908437  0.003  -0.069372  -0.135582  0.00379  3.875911  0.004
C  C35  1  0.80935945  0.87548302  0.95105802  1  -0.122968  -0.0096  3.64786  -0.01  -0.139827  -0.003249  3.88899  -0.003  -0.146351  -0.00282  3.908607  -0.003  -0.069431  -0.135694  -0.003789  3.876076  -0.004
C  C36  1  0.08220199  0.03559921  0.14476543  1  0.004214  -0.010632  3.700686  -0.01  -0.015937  -0.002813  3.951936  -0.003  -0.011876  -0.002959  3.970879  -0.003  -0.059633  -0.018716  -0.002603  3.93954  -0.002
C  C37  1  0.91779518  0.96440429  0.85524196  1  0.004263  0.010677  3.700432  0.01  -0.015924  0.00281  3.951729  0.003  -0.011862  0.00296  3.970672  0.003  -0.059629  -0.018697  0.002603  3.939329  0.002
C  C38  1  0.12916836  0.96664686  0.28203590  1  -0.08793  0.013972  3.670365  0.015  -0.099164  0.005409  3.914535  0.007  -0.106738  0.004453  3.934962  0.005  -0.065287  -0.094297  0.00626  3.900911  0.007
C  C39  1  0.87083367  0.03335132  0.71796753  1  -0.088031  -0.014021  3.670308  -0.015  -0.099222  -0.005405  3.914547  -0.007  -0.106804  -0.004454  3.934983  -0.005  -0.065349  -0.094358  -0.00626  3.90093  -0.007
C  C40  1  0.28088357  0.99543757  0.32111818  1  0.145577  -0.008467  3.664631  -0.01  0.115767  1.4e-05  3.922038  -0.001  0.125913  -0.001305  3.940405  -0.003  0.061252  0.109449  0.001125  3.909148  0.0
C  C41  1  0.71912205  0.00455532  0.67888530  1  0.145701  0.008499  3.664536  0.01  0.115778  -1.6e-05  3.922069  0.001  0.125939  0.001304  3.940429  0.003  0.061299  0.109454  -0.001126  3.9092  0.0
N  N42  1  0.59617532  0.26331993  0.07374204  1  -0.35506  0.090959  3.33095  0.112  -0.323622  0.057527  3.633382  0.077  -0.355043  0.044505  3.65379  0.063  -0.342824  -0.304073  0.06544  3.620424  0.084
N  N43  1  0.40382384  0.73668614  0.92625675  1  -0.354962  -0.090954  3.331038  -0.112  -0.323579  -0.057527  3.633464  -0.077  -0.355027  -0.044506  3.653884  -0.063  -0.342802  -0.304024  -0.065442  3.620498  -0.084
N  N44  1  0.38186334  0.08623903  0.22946399  1  -0.328329  0.111586  3.346518  0.135  -0.291558  0.070395  3.636984  0.092  -0.326324  0.055476  3.660972  0.076  -0.343134  -0.270461  0.079058  3.622093  0.099
N  N45  1  0.61814201  0.91375517  0.77053724  1  -0.328413  -0.111598  3.346321  -0.135  -0.291573  -0.070399  3.636839  -0.092  -0.326364  -0.055478  3.660836  -0.076  -0.343144  -0.270481  -0.079059  3.62196  -0.099
O  O46  1  0.76875172  0.23268986  0.33521070  1  -0.861446  0.071378  1.568462  0.089  -0.883275  0.038758  1.891758  0.052  -0.931804  0.02901  1.877158  0.04  -0.63361  -0.84669  0.045704  1.904797  0.059
O  O47  1  0.23125227  0.76731090  0.66478218  1  -0.861443  -0.071366  1.568501  -0.089  -0.883292  -0.038757  1.891777  -0.052  -0.931845  -0.02901  1.877168  -0.04  -0.633616  -0.84669  -0.045704  1.904812  -0.059
O  O48  1  0.91667742  0.50305714  0.19413911  1  -0.776159  0.024185  1.306515  0.03  -0.788951  0.008392  1.553637  0.012  -0.818105  0.004848  1.546971  0.007  -0.59534  -0.764288  0.012496  1.561366  0.017
O  O49  1  0.08332633  0.49694493  0.80585641  1  -0.776145  -0.024169  1.306485  -0.03  -0.788945  -0.00839  1.553605  -0.012  -0.818085  -0.004849  1.546916  -0.007  -0.595328  -0.764283  -0.012497  1.561344  -0.017
O  O50  1  0.73954641  0.52449807  0.44098470  1  -0.987712  0.002333  1.561591  0.004  -1.008643  0.00101  1.853719  0.002  -1.05307  0.000732  1.846465  0.001  -0.687268  -0.970713  0.001047  1.862028  0.002
O  O51  1  0.26045658  0.47550139  0.55900857  1  -0.987777  -0.002325  1.561613  -0.004  -1.008681  -0.001006  1.853743  -0.002  -1.053137  -0.00073  1.846481  -0.001  -0.687287  -0.970759  -0.001047  1.862049  -0.002
O  O52  1  0.44201297  0.21324397  0.44022132  1  -0.873596  0.033895  1.589898  0.044  -0.894955  0.022661  1.918984  0.032  -0.937798  0.018116  1.902599  0.027  -0.625639  -0.863238  0.024733  1.93202  0.033
O  O53  1  0.55799038  0.78674765  0.55978556  1  -0.873608  -0.033883  1.590074  -0.044  -0.894969  -0.022661  1.919069  -0.032  -0.937807  -0.018117  1.902698  -0.027  -0.62562  -0.863244  -0.024733  1.932126  -0.033
O  O54  1  0.07204009  0.28469221  0.44193207  1  -1.023881  0.003587  1.619685  0.004  -1.048185  0.001642  1.925886  0.002  -1.094707  0.000772  1.920057  0.001  -0.696866  -1.008647  0.002451  1.933281  0.002
O  O55  1  0.92796522  0.71530197  0.55806231  1  -1.023925  -0.003582  1.6198  -0.004  -1.048255  -0.001642  1.925956  -0.002  -1.094744  -0.000773  1.92014  -0.001  -0.69691  -1.008713  -0.002451  1.933381  -0.002
O  O56  1  0.73430782  0.88569779  0.31919169  1  -0.840459  0.013796  1.408412  0.019  -0.86065  0.007642  1.699738  0.012  -0.893826  0.005411  1.685243  0.009  -0.612646  -0.834707  0.009603  1.711522  0.014
O  O57  1  0.26568960  0.11430438  0.68081111  1  -0.840471  -0.013774  1.408329  -0.019  -0.860606  -0.007636  1.699646  -0.012  -0.893832  -0.005407  1.685126  -0.009  -0.612661  -0.834687  -0.009598  1.711425  -0.014
