# generated using pymatgen
data_LaH8C7SeNO9
_symmetry_space_group_name_H-M   'P 1'
_cell_length_a   7.15962087
_cell_length_b   7.15155147
_cell_length_c   12.72291295
_cell_angle_alpha   76.28203215
_cell_angle_beta   73.66139281
_cell_angle_gamma   70.84273799
_symmetry_Int_Tables_number   1
_chemical_formula_structural   LaH8C7SeNO9
_chemical_formula_sum   'La2 H16 C14 Se2 N2 O18'
_cell_volume   582.93105795
_cell_formula_units_Z   2
loop_
 _symmetry_equiv_pos_site_id
 _symmetry_equiv_pos_as_xyz
  1  'x, y, z'
loop_
 _atom_site_type_symbol
 _atom_site_label
 _atom_site_symmetry_multiplicity
 _atom_site_fract_x
 _atom_site_fract_y
 _atom_site_fract_z
 _atom_site_occupancy
 _atom_site_hle17_bader_spin_density
 _atom_site_hle17_ddec_charge
 _atom_site_hle17_ddec_spin_density
 _atom_site_hle17_ddec_sum_bond_order
 _atom_site_hle17_magmom
 _atom_site_hse06_10hf_bader_spin_density
 _atom_site_hse06_10hf_ddec_charge
 _atom_site_hse06_10hf_ddec_spin_density
 _atom_site_hse06_10hf_ddec_sum_bond_order
 _atom_site_hse06_10hf_magmom
 _atom_site_hse06_bader_spin_density
 _atom_site_hse06_ddec_charge
 _atom_site_hse06_ddec_spin_density
 _atom_site_hse06_ddec_sum_bond_order
 _atom_site_hse06_magmom
 _atom_site_pbe_bader_spin_density
 _atom_site_pbe_cm5_charge
 _atom_site_pbe_ddec_charge
 _atom_site_pbe_ddec_spin_density
 _atom_site_pbe_ddec_sum_bond_order
 _atom_site_pbe_magmom
La  La0  1  0.18068512  0.05552718  0.09056754  1  0  2.117564  0  1.810856  0  0  1.98071  0  2.337909  0  0  2.076927  0  2.244344  0  0  1.361755  1.908386  0  2.40322  0
La  La1  1  0.81931056  0.94447197  0.90943089  1  0  2.117539  0  1.810922  0  0  1.980708  0  2.337951  0  0  2.076922  0  2.244387  0  0  1.361761  1.908396  0  2.403248  0
H  H2  1  0.55226430  0.34715676  0.27143938  1  0  0.39843  0  0.922292  0  0  0.36137  0  0.998705  0  0  0.375428  0  0.979098  0  0  0.281607  0.351539  0  1.012395  0
H  H3  1  0.44773992  0.65283790  0.72856224  1  0  0.398439  0  0.922308  0  0  0.361382  0  0.998692  0  0  0.37544  0  0.979083  0  0  0.2816  0.351549  0  1.012384  0
H  H4  1  0.93469992  0.74585072  0.25901699  1  0  0.44291  0  0.859034  0  0  0.41163  0  0.921509  0  0  0.424327  0  0.903285  0  0  0.294273  0.402551  0  0.934508  0
H  H5  1  0.06529996  0.25414395  0.74097902  1  0  0.442953  0  0.858972  0  0  0.411651  0  0.921488  0  0  0.424348  0  0.903265  0  0  0.294258  0.402574  0  0.934486  0
H  H6  1  0.79041161  0.97612294  0.23624122  1  0  0.423689  0  0.877279  0  0  0.394916  0  0.93807  0  0  0.405381  0  0.922633  0  0  0.299418  0.387417  0  0.949116  0
H  H7  1  0.20959159  0.02387024  0.76375603  1  0  0.423706  0  0.877274  0  0  0.394968  0  0.93799  0  0  0.405432  0  0.92256  0  0  0.299442  0.387469  0  0.949033  0
H  H8  1  0.11774017  0.43719401  0.88916642  1  0  0.445596  0  0.847518  0  0  0.414614  0  0.910592  0  0  0.427185  0  0.892253  0  0  0.302086  0.405508  0  0.923858  0
H  H9  1  0.88226106  0.56281115  0.11083113  1  0  0.445656  0  0.847431  0  0  0.414671  0  0.910508  0  0  0.427241  0  0.892173  0  0  0.30213  0.405567  0  0.923772  0
H  H10  1  0.35455106  0.32523968  0.88676526  1  0  0.405697  0  0.912638  0  0  0.373976  0  0.980716  0  0  0.384432  0  0.965502  0  0  0.294696  0.366481  0  0.991609  0
H  H11  1  0.64544727  0.67476549  0.11323039  1  0  0.4057  0  0.912647  0  0  0.37398  0  0.980717  0  0  0.384438  0  0.965505  0  0  0.294699  0.366485  0  0.99161  0
H  H12  1  0.41699776  0.68020884  0.50000064  1  0  0.129254  0  0.953455  0  0  0.134561  0  1.01849  0  0  0.13924  0  1.014868  0  0  0.115006  0.131194  0  1.02117  0
H  H13  1  0.58299875  0.31978730  0.50000277  1  0  0.129247  0  0.953446  0  0  0.134549  0  1.018483  0  0  0.139229  0  1.014859  0  0  0.114998  0.131182  0  1.021164  0
H  H14  1  0.27910538  0.98102014  0.59612098  1  0  0.097815  0  0.95966  0  0  0.109852  0  1.01642  0  0  0.112767  0  1.014969  0  0  0.109917  0.107707  0  1.01762  0
H  H15  1  0.72089609  0.01897902  0.40387969  1  0  0.097821  0  0.959673  0  0  0.10988  0  1.016408  0  0  0.112794  0  1.014959  0  0  0.109932  0.107736  0  1.01761  0
H  H16  1  0.10147852  0.31125665  0.49575060  1  0  0.127983  0  0.939477  0  0  0.132674  0  1.005768  0  0  0.137176  0  1.002269  0  0  0.115898  0.129422  0  1.008384  0
H  H17  1  0.89851961  0.68874400  0.50425196  1  0  0.128022  0  0.939446  0  0  0.132725  0  1.005735  0  0  0.137234  0  1.002216  0  0  0.115919  0.12947  0  1.008351  0
C  C18  1  0.39918098  0.67666525  0.28633074  1  0  0.648883  0  3.857746  0  0  0.598472  0  4.150994  0  0  0.63363  0  4.141707  0  0  0.23345  0.574473  0  4.156713  0
C  C19  1  0.60083067  0.32333393  0.71366911  1  0  0.649044  0  3.857733  0  0  0.598551  0  4.151091  0  0  0.633707  0  4.141803  0  0  0.233467  0.574562  0  4.156805  0
C  C20  1  0.31544840  0.84759773  0.35132616  1  0  0.103873  0  3.74246  0  0  0.109718  0  3.986831  0  0  0.10924  0  4.006535  0  0  0.11901  0.109676  0  3.973693  0
C  C21  1  0.68455615  0.15240594  0.64867264  1  0  0.103791  0  3.742685  0  0  0.109691  0  3.987029  0  0  0.109213  0  4.006731  0  0  0.119025  0.109645  0  3.973898  0
C  C22  1  0.33943533  0.82546647  0.45915163  1  0  -0.08742  0  3.645745  0  0  -0.113155  0  3.895547  0  0  -0.115244  0  3.913334  0  0  -0.064045  -0.111655  0  3.883738  0
C  C23  1  0.66056222  0.17453118  0.54084828  1  0  -0.087392  0  3.645732  0  0  -0.113128  0  3.895524  0  0  -0.115213  0  3.913309  0  0  -0.064044  -0.111625  0  3.883717  0
C  C24  1  0.26244976  0.99372924  0.51214011  1  0  0.000827  0  3.684508  0  0  -0.015064  0  3.936278  0  0  -0.015059  0  3.955716  0  0  -0.061649  -0.015062  0  3.923294  0
C  C25  1  0.73754239  0.00626690  0.48786321  1  0  0.000811  0  3.684582  0  0  -0.015094  0  3.936361  0  0  -0.015094  0  3.955802  0  0  -0.061671  -0.015094  0  3.923377  0
C  C26  1  0.16342785  0.17660621  0.45715943  1  0  -0.082786  0  3.645996  0  0  -0.108861  0  3.898359  0  0  -0.110987  0  3.916636  0  0  -0.063475  -0.107388  0  3.886285  0
C  C27  1  0.83656551  0.82339594  0.54283896  1  0  -0.082843  0  3.645953  0  0  -0.108944  0  3.898338  0  0  -0.111066  0  3.916617  0  0  -0.06351  -0.107465  0  3.886262  0
C  C28  1  0.14476186  0.18452003  0.34947799  1  0  0.097366  0  3.76172  0  0  0.100985  0  4.013606  0  0  0.100819  0  4.033691  0  0  0.118514  0.100798  0  4.000106  0
C  C29  1  0.85522899  0.81548060  0.65052572  1  0  0.097442  0  3.761517  0  0  0.101059  0  4.013421  0  0  0.100892  0  4.033505  0  0  0.11854  0.100869  0  3.999925  0
C  C30  1  0.03959929  0.37621810  0.28366046  1  0  0.64085  0  3.887954  0  0  0.585592  0  4.19412  0  0  0.620237  0  4.185311  0  0  0.225259  0.562019  0  4.199344  0
C  C31  1  0.96039740  0.62378255  0.71633918  1  0  0.640799  0  3.887986  0  0  0.585563  0  4.194123  0  0  0.620205  0  4.185321  0  0  0.225239  0.561989  0  4.199351  0
Se  Se32  1  0.39456888  0.70705111  0.91355805  1  0  1.280918  0  3.470607  0  0  1.209757  0  3.947022  0  0  1.253901  0  3.92515  0  0  0.68136  1.177221  0  3.962251  0
Se  Se33  1  0.60543114  0.29294805  0.08644206  1  0  1.280842  0  3.470589  0  0  1.20971  0  3.947004  0  0  1.253857  0  3.925126  0  0  0.681357  1.177177  0  3.962229  0
N  N34  1  0.22041143  0.02382339  0.29784922  1  0  -0.389859  0  3.280137  0  0  -0.351013  0  3.538422  0  0  -0.367911  0  3.561621  0  0  -0.362887  -0.338615  0  3.522198  0
N  N35  1  0.77958397  0.97618176  0.70215082  1  0  -0.389889  0  3.280214  0  0  -0.35107  0  3.538522  0  0  -0.367966  0  3.56172  0  0  -0.36291  -0.338674  0  3.522308  0
O  O36  1  0.38770295  0.71658514  0.18409786  1  0  -0.722168  0  2.063918  0  0  -0.671035  0  2.31613  0  0  -0.702848  0  2.307486  0  0  -0.359883  -0.648172  0  2.321301  0
O  O37  1  0.61230520  0.28341103  0.81590216  1  0  -0.722175  0  2.063932  0  0  -0.671041  0  2.316207  0  0  -0.702852  0  2.307563  0  0  -0.359865  -0.64818  0  2.321381  0
O  O38  1  0.48144657  0.50528808  0.33483059  1  0  -0.560833  0  2.006093  0  0  -0.506973  0  2.222969  0  0  -0.532455  0  2.212544  0  0  -0.291003  -0.489312  0  2.229804  0
O  O39  1  0.51856654  0.49471110  0.66516982  1  0  -0.560927  0  2.006056  0  0  -0.507023  0  2.222937  0  0  -0.532506  0  2.21251  0  0  -0.29104  -0.489363  0  2.229774  0
O  O40  1  0.03417480  0.36515472  0.18486221  1  0  -0.69829  0  2.019452  0  0  -0.643673  0  2.270958  0  0  -0.676271  0  2.259816  0  0  -0.364017  -0.62011  0  2.277674  0
O  O41  1  0.96582145  0.63484742  0.81514046  1  0  -0.698322  0  2.019382  0  0  -0.643734  0  2.27091  0  0  -0.676326  0  2.259747  0  0  -0.364058  -0.620171  0  2.277627  0
O  O42  1  0.96698177  0.53036322  0.32901833  1  0  -0.574993  0  1.955296  0  0  -0.522193  0  2.168959  0  0  -0.545927  0  2.158388  0  0  -0.295063  -0.505731  0  2.175913  0
O  O43  1  0.03301945  0.46964194  0.67098237  1  0  -0.574903  0  1.955364  0  0  -0.522094  0  2.169009  0  0  -0.545826  0  2.15844  0  0  -0.294987  -0.505633  0  2.175964  0
O  O44  1  0.48336775  0.88798803  0.93351780  1  0  -0.867752  0  1.822846  0  0  -0.81456  0  2.118975  0  0  -0.851062  0  2.106773  0  0  -0.506152  -0.787287  0  2.126093  0
O  O45  1  0.51663562  0.11200964  0.06648041  1  0  -0.867629  0  1.822693  0  0  -0.8145  0  2.118865  0  0  -0.851003  0  2.10666  0  0  -0.506133  -0.787248  0  2.126026  0
O  O46  1  0.14647372  0.80600797  0.97517074  1  0  -0.862401  0  1.781781  0  0  -0.80799  0  2.071914  0  0  -0.844166  0  2.058352  0  0  -0.495852  -0.781002  0  2.08016  0
O  O47  1  0.85353067  0.19399120  0.02482868  1  0  -0.862385  0  1.781805  0  0  -0.80797  0  2.071904  0  0  -0.844142  0  2.058339  0  0  -0.495864  -0.780981  0  2.080149  0
O  O48  1  0.39484101  0.78241704  0.76973591  1  0  -0.708897  0  1.864221  0  0  -0.651348  0  2.099541  0  0  -0.672962  0  2.076554  0  0  -0.409659  -0.635945  0  2.115436  0
O  O49  1  0.60515842  0.21757912  0.23026390  1  0  -0.708878  0  1.864199  0  0  -0.651331  0  2.09955  0  0  -0.672944  0  2.076565  0  0  -0.409676  -0.635927  0  2.115442  0
O  O50  1  0.92865160  0.88724075  0.21843889  1  0  -0.911235  0  1.873445  0  0  -0.864423  0  2.074955  0  0  -0.89181  0  2.042831  0  0  -0.649865  -0.844222  0  2.097146  0
O  O51  1  0.07135117  0.11275392  0.78155902  1  0  -0.911285  0  1.873405  0  0  -0.864486  0  2.074931  0  0  -0.891872  0  2.0428  0  0  -0.649881  -0.844281  0  2.097124  0
O  O52  1  0.21641385  0.34769069  0.93448273  1  0  -0.895078  0  1.885004  0  0  -0.848576  0  2.087532  0  0  -0.874031  0  2.052939  0  0  -0.628688  -0.829925  0  2.111822  0
O  O53  1  0.78358679  0.65231148  0.06551296  1  0  -0.895127  0  1.884953  0  0  -0.848639  0  2.087526  0  0  -0.874097  0  2.052925  0  0  -0.628738  -0.829991  0  2.111816  0
