# generated using pymatgen
data_NaH6C4(NO2)3
_symmetry_space_group_name_H-M   'P 1'
_cell_length_a   6.87787132
_cell_length_b   10.57044143
_cell_length_c   11.41227635
_cell_angle_alpha   90.00009419
_cell_angle_beta   95.09567000
_cell_angle_gamma   89.99984555
_symmetry_Int_Tables_number   1
_chemical_formula_structural   NaH6C4(NO2)3
_chemical_formula_sum   'Na4 H24 C16 N12 O24'
_cell_volume   826.41772201
_cell_formula_units_Z   4
loop_
 _symmetry_equiv_pos_site_id
 _symmetry_equiv_pos_as_xyz
  1  'x, y, z'
loop_
 _atom_site_type_symbol
 _atom_site_label
 _atom_site_symmetry_multiplicity
 _atom_site_fract_x
 _atom_site_fract_y
 _atom_site_fract_z
 _atom_site_occupancy
 _atom_site_hle17_bader_spin_density
 _atom_site_hle17_ddec_charge
 _atom_site_hle17_ddec_spin_density
 _atom_site_hle17_ddec_sum_bond_order
 _atom_site_hle17_magmom
 _atom_site_hse06_10hf_bader_spin_density
 _atom_site_hse06_10hf_ddec_charge
 _atom_site_hse06_10hf_ddec_spin_density
 _atom_site_hse06_10hf_ddec_sum_bond_order
 _atom_site_hse06_10hf_magmom
 _atom_site_hse06_bader_spin_density
 _atom_site_hse06_ddec_charge
 _atom_site_hse06_ddec_spin_density
 _atom_site_hse06_ddec_sum_bond_order
 _atom_site_hse06_magmom
 _atom_site_pbe_bader_spin_density
 _atom_site_pbe_cm5_charge
 _atom_site_pbe_ddec_charge
 _atom_site_pbe_ddec_spin_density
 _atom_site_pbe_ddec_sum_bond_order
 _atom_site_pbe_magmom
Na  Na0  1  0.25269081  0.93055024  0.99687205  1  0  0.88698  0  0.384644  0  0  0.833171  0  0.548834  0  0  0.844357  0  0.525052  0  0  0.649194  0.824731  0  0.566506  0
Na  Na1  1  0.24731366  0.43055177  0.50312874  1  0  0.887004  0  0.3846  0  0  0.833164  0  0.548839  0  0  0.844354  0  0.525058  0  0  0.649185  0.824732  0  0.566515  0
Na  Na2  1  0.74731090  0.06944864  0.00312694  1  0  0.886984  0  0.384634  0  0  0.833162  0  0.548846  0  0  0.844349  0  0.525062  0  0  0.64918  0.824721  0  0.566519  0
Na  Na3  1  0.75268659  0.56944806  0.49687016  1  0  0.887002  0  0.384604  0  0  0.83316  0  0.548852  0  0  0.844349  0  0.525071  0  0  0.649183  0.824726  0  0.566524  0
H  H4  1  0.10418681  0.18038674  0.91154744  1  0  0.429968  0  0.859294  0  0  0.401261  0  0.917353  0  0  0.411596  0  0.902033  0  0  0.298282  0.393811  0  0.928386  0
H  H5  1  0.39581130  0.68038896  0.58845086  1  0  0.430119  0  0.859095  0  0  0.401345  0  0.917257  0  0  0.411681  0  0.901935  0  0  0.298325  0.393891  0  0.9283  0
H  H6  1  0.89581343  0.81961309  0.08845234  1  0  0.429966  0  0.859308  0  0  0.401274  0  0.917348  0  0  0.411609  0  0.902027  0  0  0.298284  0.393825  0  0.928384  0
H  H7  1  0.60418748  0.31961087  0.41154884  1  0  0.429962  0  0.859296  0  0  0.401256  0  0.91736  0  0  0.41159  0  0.902039  0  0  0.298283  0.393806  0  0.928396  0
H  H8  1  0.01918404  0.07325403  0.82281497  1  0  0.40172  0  0.908003  0  0  0.361211  0  0.988656  0  0  0.372146  0  0.972249  0  0  0.289029  0.353421  0  1.000317  0
H  H9  1  0.48082031  0.57325720  0.67718439  1  0  0.401706  0  0.908024  0  0  0.361184  0  0.988699  0  0  0.372121  0  0.97229  0  0  0.289002  0.3534  0  1.000351  0
H  H10  1  0.98081620  0.92674579  0.17718393  1  0  0.401682  0  0.908059  0  0  0.361164  0  0.988728  0  0  0.3721  0  0.97232  0  0  0.289008  0.353377  0  1.000387  0
H  H11  1  0.51918139  0.42674263  0.32281547  1  0  0.401711  0  0.908017  0  0  0.36119  0  0.988691  0  0  0.372126  0  0.972283  0  0  0.289005  0.353401  0  1.000352  0
H  H12  1  0.51564144  0.01105034  0.20625762  1  0  0.429329  0  0.865366  0  0  0.399547  0  0.926208  0  0  0.410084  0  0.91057  0  0  0.292031  0.3919  0  0.937616  0
H  H13  1  0.98436208  0.51104991  0.29374411  1  0  0.429335  0  0.865358  0  0  0.39956  0  0.926184  0  0  0.410097  0  0.910546  0  0  0.292065  0.391918  0  0.937587  0
H  H14  1  0.48435879  0.98895044  0.79374304  1  0  0.429337  0  0.865356  0  0  0.399556  0  0.926193  0  0  0.410094  0  0.910555  0  0  0.29205  0.391913  0  0.937595  0
H  H15  1  0.01563816  0.48895086  0.70625567  1  0  0.429327  0  0.865369  0  0  0.399535  0  0.926221  0  0  0.410073  0  0.910586  0  0  0.292042  0.391884  0  0.93763  0
H  H16  1  0.42493226  0.13062531  0.13794402  1  0  0.427314  0  0.872245  0  0  0.397732  0  0.933574  0  0  0.408292  0  0.917954  0  0  0.291773  0.389968  0  0.945009  0
H  H17  1  0.07506664  0.63062954  0.36205600  1  0  0.427256  0  0.872321  0  0  0.397679  0  0.93365  0  0  0.408239  0  0.918032  0  0  0.291763  0.389914  0  0.945087  0
H  H18  1  0.57506944  0.86937358  0.86205584  1  0  0.427281  0  0.872294  0  0  0.397692  0  0.933635  0  0  0.408252  0  0.918014  0  0  0.29175  0.389923  0  0.94508  0
H  H19  1  0.92493360  0.36937218  0.63794290  1  0  0.427285  0  0.872289  0  0  0.397721  0  0.933596  0  0  0.408282  0  0.917975  0  0  0.291777  0.389955  0  0.945035  0
H  H20  1  0.16180517  0.42567541  0.91473131  1  0  0.386962  0  0.921276  0  0  0.352423  0  1.004099  0  0  0.365534  0  0.990922  0  0  0.294458  0.343245  0  1.012555  0
H  H21  1  0.33819347  0.92567773  0.58527003  1  0  0.387054  0  0.921235  0  0  0.3525  0  1.004075  0  0  0.365609  0  0.990845  0  0  0.294459  0.34332  0  1.012535  0
H  H22  1  0.83819506  0.57432348  0.08527022  1  0  0.387003  0  0.921217  0  0  0.352458  0  1.004049  0  0  0.36557  0  0.990874  0  0  0.294477  0.343279  0  1.012514  0
H  H23  1  0.66180384  0.07432210  0.41473134  1  0  0.38705  0  0.921205  0  0  0.352498  0  1.004037  0  0  0.365609  0  0.990833  0  0  0.294475  0.34332  0  1.01249  0
H  H24  1  0.51432887  0.71740877  0.25808460  1  0  0.301699  0  0.930547  0  0  0.271309  0  1.003618  0  0  0.282254  0  0.994261  0  0  0.332232  0.263387  0  1.010446  0
H  H25  1  0.98566514  0.21740934  0.24191253  1  0  0.301716  0  0.930631  0  0  0.271335  0  1.003692  0  0  0.282277  0  0.994336  0  0  0.332234  0.263412  0  1.010518  0
H  H26  1  0.48567138  0.28259295  0.74191430  1  0  0.301675  0  0.930605  0  0  0.271296  0  1.003639  0  0  0.282241  0  0.994282  0  0  0.332203  0.263374  0  1.01046  0
H  H27  1  0.01433363  0.78259143  0.75808717  1  0  0.301731  0  0.930619  0  0  0.271345  0  1.003686  0  0  0.282288  0  0.994329  0  0  0.332232  0.263419  0  1.010514  0
C  C28  1  0.32758006  0.50533346  0.09351429  1  0  -0.046193  0  3.771048  0  0  -0.055437  0  4.048443  0  0  -0.059632  0  4.067425  0  0  0.092334  -0.052794  0  4.035865  0
C  C29  1  0.17241785  0.00533583  0.40648549  1  0  -0.045984  0  3.770797  0  0  -0.055315  0  4.048332  0  0  -0.05951  0  4.067322  0  0  0.092356  -0.052666  0  4.035726  0
C  C30  1  0.67242163  0.49466827  0.90648557  1  0  -0.046146  0  3.771026  0  0  -0.055444  0  4.048479  0  0  -0.059654  0  4.067481  0  0  0.092353  -0.052804  0  4.035897  0
C  C31  1  0.82757946  0.99466400  0.59351588  1  0  -0.046019  0  3.770779  0  0  -0.055365  0  4.0483  0  0  -0.059568  0  4.067306  0  0  0.092364  -0.052715  0  4.035697  0
C  C32  1  0.29247444  0.36893141  0.06949684  1  0  0.654282  0  3.859308  0  0  0.595296  0  4.174935  0  0  0.628099  0  4.167004  0  0  0.235875  0.573  0  4.179707  0
C  C33  1  0.20751485  0.86892322  0.43049600  1  0  0.654219  0  3.859708  0  0  0.59522  0  4.17542  0  0  0.628016  0  4.167494  0  0  0.235875  0.572938  0  4.180166  0
C  C34  1  0.70752435  0.63107126  0.93050111  1  0  0.654263  0  3.859218  0  0  0.595272  0  4.174878  0  0  0.62808  0  4.166946  0  0  0.235914  0.572987  0  4.179636  0
C  C35  1  0.79247812  0.13107283  0.56949899  1  0  0.654258  0  3.859358  0  0  0.595268  0  4.175065  0  0  0.62807  0  4.167137  0  0  0.235876  0.572978  0  4.17982  0
C  C36  1  0.27922774  0.61638368  0.02788845  1  0  -0.034167  0  3.758305  0  0  -0.041196  0  4.035659  0  0  -0.045308  0  4.053545  0  0  0.092676  -0.038481  0  4.023745  0
C  C37  1  0.22077122  0.11638324  0.47211068  1  0  -0.034308  0  3.75844  0  0  -0.041356  0  4.035808  0  0  -0.045463  0  4.053693  0  0  0.092632  -0.03864  0  4.023876  0
C  C38  1  0.72077396  0.38361710  0.97211053  1  0  -0.034173  0  3.758333  0  0  -0.041175  0  4.035661  0  0  -0.045277  0  4.053544  0  0  0.092666  -0.03846  0  4.023737  0
C  C39  1  0.77922756  0.88361564  0.52788902  1  0  -0.034247  0  3.758457  0  0  -0.041233  0  4.035791  0  0  -0.04535  0  4.053694  0  0  0.092692  -0.038521  0  4.023873  0
C  C40  1  0.17321709  0.63501953  0.90989763  1  0  0.658882  0  3.908272  0  0  0.600971  0  4.222098  0  0  0.635062  0  4.212917  0  0  0.22455  0.577967  0  4.227457  0
C  C41  1  0.32678558  0.13502675  0.59010085  1  0  0.658992  0  3.908224  0  0  0.601209  0  4.221881  0  0  0.635299  0  4.212692  0  0  0.224569  0.578205  0  4.227232  0
C  C42  1  0.82678754  0.36498029  0.09010064  1  0  0.658844  0  3.908211  0  0  0.600965  0  4.221986  0  0  0.635054  0  4.212807  0  0  0.224557  0.577958  0  4.227345  0
C  C43  1  0.67321465  0.86497403  0.40990156  1  0  0.658941  0  3.908244  0  0  0.601074  0  4.222005  0  0  0.63517  0  4.212816  0  0  0.224484  0.578065  0  4.227374  0
N  N44  1  0.35074561  0.71614866  0.09179160  1  0  -0.206214  0  2.926582  0  0  -0.208494  0  3.204246  0  0  -0.208104  0  3.214037  0  0  -0.227426  -0.208841  0  3.198722  0
N  N45  1  0.14925298  0.21614824  0.40820591  1  0  -0.206311  0  2.926716  0  0  -0.208569  0  3.204392  0  0  -0.208189  0  3.214186  0  0  -0.227488  -0.208924  0  3.198874  0
N  N46  1  0.64925463  0.28385212  0.90820731  1  0  -0.206207  0  2.926686  0  0  -0.20851  0  3.204318  0  0  -0.208121  0  3.214107  0  0  -0.227423  -0.208852  0  3.198779  0
N  N47  1  0.85074579  0.78385253  0.59179554  1  0  -0.206298  0  2.926779  0  0  -0.208566  0  3.20444  0  0  -0.208179  0  3.214235  0  0  -0.227477  -0.208922  0  3.198926  0
N  N48  1  0.42773016  0.54052214  0.19504851  1  0  -0.166733  0  2.948902  0  0  -0.155871  0  3.213152  0  0  -0.157315  0  3.224199  0  0  -0.170914  -0.154721  0  3.20583  0
N  N49  1  0.07226470  0.04052264  0.30495115  1  0  -0.166868  0  2.948896  0  0  -0.155957  0  3.213158  0  0  -0.157411  0  3.224208  0  0  -0.170937  -0.154814  0  3.205836  0
N  N50  1  0.57227007  0.45947958  0.80495214  1  0  -0.166709  0  2.948968  0  0  -0.155864  0  3.213229  0  0  -0.157308  0  3.224281  0  0  -0.170925  -0.154718  0  3.205908  0
N  N51  1  0.92773261  0.95947909  0.69505022  1  0  -0.166848  0  2.9489  0  0  -0.155937  0  3.213162  0  0  -0.157385  0  3.224212  0  0  -0.170942  -0.15479  0  3.20583  0
N  N52  1  0.43603770  0.66534000  0.18887856  1  0  0.020201  0  3.471472  0  0  0.082891  0  3.716947  0  0  0.07518  0  3.730799  0  0  -0.113263  0.088448  0  3.707838  0
N  N53  1  0.06395816  0.16533957  0.31112047  1  0  0.02025  0  3.471612  0  0  0.082922  0  3.717096  0  0  0.075224  0  3.730943  0  0  -0.113257  0.08847  0  3.707993  0
N  N54  1  0.56396253  0.33466266  0.81112210  1  0  0.020162  0  3.471644  0  0  0.082915  0  3.717021  0  0  0.075206  0  3.730875  0  0  -0.113246  0.088468  0  3.707895  0
N  N55  1  0.93603915  0.83466120  0.68888090  1  0  0.020232  0  3.471671  0  0  0.082901  0  3.717159  0  0  0.075204  0  3.731004  0  0  -0.113247  0.088457  0  3.708054  0
O  O56  1  0.11099314  0.53468125  0.85462167  1  0  -0.61022  0  2.049991  0  0  -0.549677  0  2.273765  0  0  -0.575852  0  2.263458  0  0  -0.300533  -0.53135  0  2.280171  0
O  O57  1  0.38900406  0.03467899  0.64537723  1  0  -0.610342  0  2.049829  0  0  -0.549841  0  2.273547  0  0  -0.576016  0  2.26322  0  0  -0.300564  -0.531517  0  2.279956  0
O  O58  1  0.88901002  0.46531574  0.14537828  1  0  -0.610204  0  2.050059  0  0  -0.549675  0  2.273809  0  0  -0.57585  0  2.263504  0  0  -0.300517  -0.53135  0  2.280228  0
O  O59  1  0.61099910  0.96531989  0.35462271  1  0  -0.610309  0  2.049827  0  0  -0.549792  0  2.273576  0  0  -0.575968  0  2.263259  0  0  -0.300541  -0.531462  0  2.27999  0
O  O60  1  0.14946412  0.74616058  0.87215361  1  0  -0.599984  0  1.994652  0  0  -0.555152  0  2.227913  0  0  -0.577853  0  2.216747  0  0  -0.326917  -0.539307  0  2.235238  0
O  O61  1  0.35053814  0.24615173  0.62784415  1  0  -0.599916  0  1.994831  0  0  -0.555136  0  2.228051  0  0  -0.577833  0  2.21688  0  0  -0.326898  -0.539304  0  2.235382  0
O  O62  1  0.85054051  0.25383925  0.12784467  1  0  -0.599957  0  1.994529  0  0  -0.555146  0  2.227783  0  0  -0.577848  0  2.216619  0  0  -0.326935  -0.539296  0  2.235106  0
O  O63  1  0.64946063  0.75384242  0.37215730  1  0  -0.599949  0  1.994748  0  0  -0.555133  0  2.227998  0  0  -0.577831  0  2.216826  0  0  -0.326881  -0.539292  0  2.235333  0
O  O64  1  0.47481604  0.04402811  0.12721524  1  0  -0.923068  0  1.748016  0  0  -0.876175  0  1.916936  0  0  -0.892869  0  1.882529  0  0  -0.692922  -0.864392  0  1.942321  0
O  O65  1  0.02518610  0.54402962  0.37278571  1  0  -0.923048  0  1.748092  0  0  -0.876141  0  1.917  0  0  -0.892835  0  1.882595  0  0  -0.69292  -0.864355  0  1.942383  0
O  O66  1  0.52518274  0.95597172  0.87278446  1  0  -0.923039  0  1.748055  0  0  -0.876145  0  1.916984  0  0  -0.89284  0  1.882575  0  0  -0.692914  -0.864364  0  1.942371  0
O  O67  1  0.97481561  0.45597021  0.62721327  1  0  -0.923075  0  1.748065  0  0  -0.876152  0  1.916967  0  0  -0.892852  0  1.882558  0  0  -0.692916  -0.864358  0  1.942377  0
O  O68  1  0.20213936  0.34059098  0.96548169  1  0  -0.56436  0  2.117699  0  0  -0.501419  0  2.335512  0  0  -0.526166  0  2.322812  0  0  -0.309161  -0.483947  0  2.343261  0
O  O69  1  0.29786251  0.84059234  0.53452057  1  0  -0.564531  0  2.117434  0  0  -0.501465  0  2.335163  0  0  -0.526222  0  2.322466  0  0  -0.309141  -0.483993  0  2.342903  0
O  O70  1  0.79786525  0.65940885  0.03451921  1  0  -0.564419  0  2.117434  0  0  -0.501455  0  2.335228  0  0  -0.526213  0  2.322543  0  0  -0.309203  -0.483981  0  2.342975  0
O  O71  1  0.70213333  0.15940749  0.46548160  1  0  -0.564496  0  2.117567  0  0  -0.501427  0  2.335286  0  0  -0.526178  0  2.322588  0  0  -0.309141  -0.48396  0  2.34303  0
O  O72  1  0.05362382  0.09369409  0.90635688  1  0  -0.904061  0  1.796838  0  0  -0.854785  0  1.973993  0  0  -0.870967  0  1.939229  0  0  -0.681907  -0.843218  0  1.998732  0
O  O73  1  0.44637755  0.59369812  0.59363971  1  0  -0.904191  0  1.796656  0  0  -0.854859  0  1.973915  0  0  -0.871045  0  1.939152  0  0  -0.681919  -0.843286  0  1.998657  0
O  O74  1  0.94637934  0.90630479  0.09364131  1  0  -0.904028  0  1.796884  0  0  -0.85477  0  1.974013  0  0  -0.870951  0  1.939251  0  0  -0.681884  -0.843198  0  1.998751  0
O  O75  1  0.55362124  0.40630266  0.40635911  1  0  -0.904037  0  1.796809  0  0  -0.854777  0  1.973989  0  0  -0.87096  0  1.939231  0  0  -0.681883  -0.843206  0  1.998728  0
O  O76  1  0.34775511  0.28853270  0.14351609  1  0  -0.54234  0  1.958787  0  0  -0.497586  0  2.177453  0  0  -0.518515  0  2.168581  0  0  -0.269372  -0.482801  0  2.183351  0
O  O77  1  0.15224314  0.78854246  0.35649290  1  0  -0.542147  0  1.959554  0  0  -0.497477  0  2.178326  0  0  -0.518397  0  2.169456  0  0  -0.269355  -0.482709  0  2.184227  0
O  O78  1  0.65224950  0.71146619  0.85648481  1  0  -0.54232  0  1.958957  0  0  -0.497561  0  2.177635  0  0  -0.518486  0  2.168758  0  0  -0.269382  -0.482781  0  2.183537  0
O  O79  1  0.84775562  0.21146210  0.64351030  1  0  -0.542215  0  1.95907  0  0  -0.497595  0  2.17789  0  0  -0.518519  0  2.169014  0  0  -0.269405  -0.482819  0  2.183787  0
