# generated using pymatgen
data_Zn5H31C36N9O13
_symmetry_space_group_name_H-M   'P 1'
_cell_length_a   15.46068321
_cell_length_b   19.38044009
_cell_length_c   25.27230067
_cell_angle_alpha   89.99988341
_cell_angle_beta   90.00000808
_cell_angle_gamma   89.99994584
_symmetry_Int_Tables_number   1
_chemical_formula_structural   Zn5H31C36N9O13
_chemical_formula_sum   'Zn20 H124 C144 N36 O52'
_cell_volume   7572.46188579
_cell_formula_units_Z   4
loop_
 _symmetry_equiv_pos_site_id
 _symmetry_equiv_pos_as_xyz
  1  'x, y, z'
loop_
 _atom_site_type_symbol
 _atom_site_label
 _atom_site_symmetry_multiplicity
 _atom_site_fract_x
 _atom_site_fract_y
 _atom_site_fract_z
 _atom_site_occupancy
 _atom_site_pbe_bader_charge
 _atom_site_pbe_bader_spin_density
 _atom_site_pbe_cm5_charge
 _atom_site_pbe_ddec_charge
 _atom_site_pbe_ddec_spin_density
 _atom_site_pbe_ddec_sum_bond_order
 _atom_site_pbe_magmom
Zn  Zn0  1  0.95256915  0.15940883  0.76979766  1  1.251999  0  0.691992  0.769949  0  2.39501  0
Zn  Zn1  1  0.54742942  0.84059180  0.26979673  1  1.25202  0  0.692026  0.769976  0  2.39497  0
Zn  Zn2  1  0.45256785  0.34059123  0.73020237  1  1.25199  0  0.691999  0.769973  0  2.395016  0
Zn  Zn3  1  0.04743027  0.65940782  0.23020370  1  1.252018  0  0.692054  0.770023  0  2.394914  0
Zn  Zn4  1  0.04742952  0.84059204  0.23020356  1  1.252036  0  0.691992  0.769902  0  2.395051  0
Zn  Zn5  1  0.45256860  0.15940804  0.73020211  1  1.251986  0  0.692014  0.769984  0  2.395036  0
Zn  Zn6  1  0.54742953  0.65940758  0.26979687  1  1.252034  0  0.692001  0.769959  0  2.395014  0
Zn  Zn7  1  0.95256840  0.34059150  0.76979791  1  1.251979  0  0.692023  0.769974  0  2.39505  0
Zn  Zn8  1  0.97512254  0.03473393  0.54743692  1  1.293765  0  0.669511  0.84585  0  2.374936  0
Zn  Zn9  1  0.52487857  0.96526574  0.04743460  1  1.293914  0  0.669529  0.845878  0  2.374917  0
Zn  Zn10  1  0.47512114  0.46526560  0.95256351  1  1.293736  0  0.669482  0.845793  0  2.375099  0
Zn  Zn11  1  0.02488091  0.53473596  0.45256463  1  1.293918  0  0.669589  0.845834  0  2.374887  0
Zn  Zn12  1  0.02487872  0.96526591  0.45256509  1  1.293931  0  0.669503  0.84581  0  2.375003  0
Zn  Zn13  1  0.47512139  0.03473409  0.95256345  1  1.293754  0  0.669472  0.845775  0  2.375085  0
Zn  Zn14  1  0.52487818  0.53473527  0.04743494  1  1.293947  0  0.669543  0.845885  0  2.374841  0
Zn  Zn15  1  0.97512164  0.46526646  0.54743619  1  1.293721  0  0.669478  0.845855  0  2.375181  0
Zn  Zn16  1  0.82297068  0.24999980  0.69395882  1  1.204218  0  0.733362  0.7328  0  2.484448  0
Zn  Zn17  1  0.67702788  0.74999948  0.19395804  1  1.204315  0  0.733394  0.732802  0  2.484518  0
Zn  Zn18  1  0.32297079  0.24999984  0.80604159  1  1.204271  0  0.73338  0.732788  0  2.484389  0
Zn  Zn19  1  0.17702735  0.75000056  0.30604200  1  1.204313  0  0.733355  0.732755  0  2.484571  0
H  H20  1  0.83811426  0.24999966  0.79381123  1  0.619095  0  0.315996  0.410051  0  0.869442  0
H  H21  1  0.66188302  0.75000039  0.29381045  1  0.618954  0  0.315952  0.409939  0  0.869395  0
H  H22  1  0.33811306  0.24999945  0.70618919  1  0.618904  0  0.31602  0.410107  0  0.869348  0
H  H23  1  0.16188311  0.75000069  0.20618920  1  0.619137  0  0.315968  0.409926  0  0.869439  0
H  H24  1  0.10272966  0.05198498  0.67503506  1  0.05841  0  0.108428  0.163173  0  0.97856  0
H  H25  1  0.39726974  0.94801421  0.17503400  1  0.058368  0  0.108408  0.163126  0  0.978586  0
H  H26  1  0.60272869  0.44801430  0.82496572  1  0.058416  0  0.108422  0.163176  0  0.978478  0
H  H27  1  0.89727054  0.55198566  0.32496686  1  0.058382  0  0.108403  0.163114  0  0.978604  0
H  H28  1  0.89726966  0.94801434  0.32496655  1  0.058373  0  0.1084  0.16315  0  0.978576  0
H  H29  1  0.60273022  0.05198511  0.82496524  1  0.058409  0  0.108414  0.163138  0  0.978586  0
H  H30  1  0.39727127  0.55198502  0.17503430  1  0.058439  0  0.108405  0.163147  0  0.978518  0
H  H31  1  0.10272943  0.44801469  0.67503515  1  0.058401  0  0.108418  0.163153  0  0.97858  0
H  H32  1  0.03198385  0.98393549  0.65759785  1  0.132803  0  0.110545  0.173718  0  0.998193  0
H  H33  1  0.46801555  0.01606426  0.15759627  1  0.132763  0  0.110534  0.173669  0  0.998219  0
H  H34  1  0.53198275  0.51606384  0.84240294  1  0.132792  0  0.110542  0.17371  0  0.998208  0
H  H35  1  0.96801648  0.48393607  0.34240419  1  0.132559  0  0.110554  0.173705  0  0.998236  0
H  H36  1  0.96801482  0.01606486  0.34240376  1  0.132776  0  0.11056  0.173739  0  0.99815  0
H  H37  1  0.53198442  0.98393609  0.84240297  1  0.132803  0  0.110534  0.173673  0  0.998223  0
H  H38  1  0.46801592  0.48393444  0.15759669  1  0.132769  0  0.110544  0.173697  0  0.998152  0
H  H39  1  0.03198283  0.51606376  0.65759743  1  0.132818  0  0.110556  0.173729  0  0.998182  0
H  H40  1  0.02876788  0.01923440  0.72328673  1  0.083108  0  0.102739  0.148341  0  0.994066  0
H  H41  1  0.47123218  0.98076363  0.22328482  1  0.083199  0  0.102718  0.148308  0  0.994022  0
H  H42  1  0.52876751  0.48076546  0.77671405  1  0.083131  0  0.102723  0.148336  0  0.994107  0
H  H43  1  0.97123300  0.51923618  0.27671564  1  0.083218  0  0.102688  0.148229  0  0.994067  0
H  H44  1  0.97123144  0.98076492  0.27671528  1  0.083193  0  0.102714  0.148325  0  0.994048  0
H  H45  1  0.52876843  0.01923569  0.77671402  1  0.083153  0  0.102729  0.148347  0  0.994109  0
H  H46  1  0.47123310  0.51923490  0.22328558  1  0.083155  0  0.102743  0.148363  0  0.994089  0
H  H47  1  0.02876632  0.48076365  0.72328597  1  0.083134  0  0.102733  0.148324  0  0.994111  0
H  H48  1  0.76966516  0.19233202  0.58548833  1  0.029038  0  0.094632  0.130027  0  1.020696  0
H  H49  1  0.73033466  0.80766858  0.08548588  1  0.020503  0  0.094595  0.129967  0  1.020586  0
H  H50  1  0.26966588  0.30766662  0.91451287  1  0.020445  0  0.094585  0.129929  0  1.020649  0
H  H51  1  0.23033422  0.69233142  0.41451456  1  0.029119  0  0.09458  0.129973  0  1.020635  0
H  H52  1  0.23033415  0.80766833  0.41451408  1  0.020512  0  0.09458  0.129951  0  1.020649  0
H  H53  1  0.26966530  0.19233178  0.91451336  1  0.029075  0  0.094599  0.129987  0  1.020588  0
H  H54  1  0.73033343  0.69233064  0.08548518  1  0.028815  0  0.0946  0.129987  0  1.02065  0
H  H55  1  0.76966768  0.30766738  0.58548507  1  0.020175  0  0.094559  0.129886  0  1.02067  0
H  H56  1  0.79534389  0.11307535  0.55214161  1  0.132418  0  0.106481  0.166186  0  1.023509  0
H  H57  1  0.70465592  0.88692586  0.05214022  1  0.132332  0  0.106473  0.166178  0  1.023538  0
H  H58  1  0.29534452  0.38692328  0.94785960  1  0.132414  0  0.106414  0.166088  0  1.023495  0
H  H59  1  0.20465494  0.61307416  0.44786062  1  0.13237  0  0.106467  0.166171  0  1.023516  0
H  H60  1  0.20465607  0.88692552  0.44786001  1  0.132357  0  0.106469  0.166175  0  1.023545  0
H  H61  1  0.29534469  0.11307449  0.94785941  1  0.132404  0  0.106489  0.166224  0  1.023493  0
H  H62  1  0.70465479  0.61307398  0.05213964  1  0.132333  0  0.10648  0.166188  0  1.023526  0
H  H63  1  0.79534761  0.38692413  0.55213981  1  0.132421  0  0.10644  0.166143  0  1.02362  0
H  H64  1  0.86013400  0.18602363  0.54120270  1  0.074086  0  0.110399  0.17139  0  0.982872  0
H  H65  1  0.63986581  0.81397709  0.04120023  1  0.070627  0  0.110379  0.171383  0  0.982844  0
H  H66  1  0.36013537  0.31397443  0.95879811  1  0.070575  0  0.110389  0.171371  0  0.982853  0
H  H67  1  0.13986539  0.68602349  0.45880020  1  0.070609  0  0.110398  0.171433  0  0.982814  0
H  H68  1  0.13986532  0.81397724  0.45879931  1  0.074122  0  0.110396  0.171422  0  0.982821  0
H  H69  1  0.36013544  0.18602378  0.95879861  1  0.07412  0  0.110383  0.171405  0  0.982807  0
H  H70  1  0.63986395  0.68602231  0.04120033  1  0.075423  0  0.110392  0.171393  0  0.982816  0
H  H71  1  0.86013780  0.31397531  0.54119983  1  0.070583  0  0.110443  0.171468  0  0.982777  0
H  H72  1  0.03570084  0.13850722  0.34582951  1  0.090763  0  0.102816  0.104206  0  1.009379  0
H  H73  1  0.46429602  0.86149410  0.84582460  1  0.090647  0  0.102778  0.104148  0  1.009367  0
H  H74  1  0.53569799  0.36149293  0.15417091  1  0.090719  0  0.102796  0.104159  0  1.009472  0
H  H75  1  0.96429732  0.63850387  0.65417623  1  0.090601  0  0.102796  0.104136  0  1.00932  0
H  H76  1  0.96429783  0.86149365  0.65417487  1  0.090666  0  0.102804  0.104184  0  1.009404  0
H  H77  1  0.53570007  0.13850522  0.15417187  1  0.090688  0  0.102786  0.104141  0  1.009385  0
H  H78  1  0.46429938  0.63850484  0.84582477  1  0.090643  0  0.102814  0.104175  0  1.00935  0
H  H79  1  0.03569747  0.36149545  0.34582656  1  0.090591  0  0.102762  0.104098  0  1.009441  0
H  H80  1  0.04809996  0.25000010  0.29657985  1  0.068232  0  0.100981  0.097657  0  0.994046  0
H  H81  1  0.45189688  0.74999980  0.79657709  1  0.068129  0  0.100937  0.097576  0  0.99398  0
H  H82  1  0.54809985  0.24999952  0.20341898  1  0.068274  0  0.101001  0.097671  0  0.994016  0
H  H83  1  0.95189806  0.74999922  0.70342335  1  0.068113  0  0.100982  0.097645  0  0.994037  0
H  H84  1  0.99434989  0.25000413  0.49057568  1  0.079328  0  0.103853  0.110136  0  1.017942  0
H  H85  1  0.50564873  0.75000055  0.99057170  1  0.07943  0  0.103872  0.110198  0  1.018003  0
H  H86  1  0.49434929  0.24999928  0.00942398  1  0.079261  0  0.103891  0.110215  0  1.017921  0
H  H87  1  0.00564684  0.74999777  0.50942830  1  0.079437  0  0.103883  0.110203  0  1.017948  0
H  H88  1  0.99287407  0.00519955  0.90141777  1  0.082355  0  0.104932  0.10825  0  0.998196  0
H  H89  1  0.50713035  0.99479867  0.40141739  1  0.082042  0  0.104944  0.108288  0  0.998131  0
H  H90  1  0.49287321  0.49479944  0.59858305  1  0.082359  0  0.104948  0.108296  0  0.998158  0
H  H91  1  0.00712812  0.50520305  0.09858185  1  0.081972  0  0.104941  0.108261  0  0.998179  0
H  H92  1  0.00712977  0.99479668  0.09858067  1  0.082419  0  0.104954  0.108278  0  0.998161  0
H  H93  1  0.49287350  0.00519808  0.59858264  1  0.082314  0  0.104923  0.108264  0  0.998179  0
H  H94  1  0.50712805  0.50519730  0.40141777  1  0.082339  0  0.104921  0.108234  0  0.998161  0
H  H95  1  0.99287314  0.49480246  0.90141858  1  0.082319  0  0.104934  0.108262  0  0.998179  0
H  H96  1  0.95252344  0.94265185  0.98444826  1  0.065379  0  0.101267  0.099368  0  1.003038  0
H  H97  1  0.54747971  0.05734614  0.48444855  1  0.065451  0  0.101256  0.099427  0  1.002909  0
H  H98  1  0.45252695  0.55734717  0.51555178  1  0.065348  0  0.101249  0.099345  0  1.002981  0
H  H99  1  0.04747694  0.44265400  0.01555147  1  0.065406  0  0.101285  0.099424  0  1.00299  0
H  H100  1  0.04747976  0.05734592  0.01555058  1  0.065405  0  0.101272  0.099437  0  1.003031  0
H  H101  1  0.45252284  0.94265060  0.51555187  1  0.065383  0  0.101278  0.099385  0  1.002996  0
H  H102  1  0.54748142  0.44265164  0.48444825  1  0.065432  0  0.101287  0.099473  0  1.003  0
H  H103  1  0.95252237  0.55734739  0.98444935  1  0.065381  0  0.101276  0.099371  0  1.003032  0
H  H104  1  0.80064517  0.94843686  0.01753589  1  0.091913  0  0.102116  0.099641  0  1.02312  0
H  H105  1  0.69935787  0.05156083  0.51753617  1  0.092224  0  0.102097  0.099615  0  1.023078  0
H  H106  1  0.30064880  0.55156360  0.48246258  1  0.091962  0  0.102103  0.099614  0  1.023142  0
H  H107  1  0.19935585  0.44843735  0.98246383  1  0.091941  0  0.102067  0.099566  0  1.023008  0
H  H108  1  0.19935932  0.05156246  0.98246375  1  0.092417  0  0.10211  0.099615  0  1.023074  0
H  H109  1  0.30064533  0.94843643  0.48246346  1  0.091885  0  0.102124  0.099659  0  1.023083  0
H  H110  1  0.69935828  0.44843778  0.51753626  1  0.092429  0  0.102116  0.099634  0  1.023055  0
H  H111  1  0.80064476  0.55156197  0.01753699  1  0.092178  0  0.102123  0.099645  0  1.023145  0
H  H112  1  0.72979187  0.07397159  0.88450037  1  0.107272  0  0.105654  0.112126  0  1.020034  0
H  H113  1  0.77021126  0.92602667  0.38450012  1  0.107181  0  0.105642  0.112142  0  1.020102  0
H  H114  1  0.22978979  0.42602967  0.61549845  1  0.107292  0  0.105661  0.112142  0  1.020029  0
H  H115  1  0.27020960  0.57397329  0.11549914  1  0.10723  0  0.105682  0.112184  0  1.020041  0
H  H116  1  0.27021004  0.92602619  0.11550084  1  0.107179  0  0.105653  0.112155  0  1.020041  0
H  H117  1  0.22979129  0.07397162  0.61549872  1  0.107284  0  0.105654  0.112153  0  1.019994  0
H  H118  1  0.77020888  0.57397275  0.38450039  1  0.107219  0  0.10567  0.112151  0  1.020091  0
H  H119  1  0.72979166  0.42602861  0.88450049  1  0.107277  0  0.105648  0.112133  0  1.019977  0
H  H120  1  0.72095458  0.10995755  0.73843964  1  0.107264  0  0.106708  0.168727  0  0.989763  0
H  H121  1  0.77904269  0.89004110  0.23844063  1  0.107205  0  0.106732  0.168786  0  0.989708  0
H  H122  1  0.22095387  0.39004165  0.76156155  1  0.107323  0  0.106655  0.168656  0  0.989796  0
H  H123  1  0.27904297  0.60995886  0.26156100  1  0.107269  0  0.106693  0.168742  0  0.989761  0
H  H124  1  0.27904280  0.89004229  0.26156078  1  0.107256  0  0.10667  0.168695  0  0.989796  0
H  H125  1  0.22095533  0.10995874  0.76156177  1  0.107303  0  0.106667  0.168702  0  0.989803  0
H  H126  1  0.77904286  0.60995819  0.23844006  1  0.107236  0  0.106671  0.168699  0  0.989771  0
H  H127  1  0.72095441  0.39004097  0.73843942  1  0.107293  0  0.106684  0.168709  0  0.989802  0
H  H128  1  0.61774052  0.08634774  0.71147693  1  0.085054  0  0.107052  0.163556  0  1.004856  0
H  H129  1  0.88225675  0.91365150  0.21147790  1  0.085115  0  0.107069  0.163553  0  1.004842  0
H  H130  1  0.11773914  0.41365154  0.78852465  1  0.085058  0  0.107079  0.163616  0  1.004712  0
H  H131  1  0.38225834  0.58634890  0.28852375  1  0.085111  0  0.10707  0.163554  0  1.004808  0
H  H132  1  0.38225815  0.91365210  0.28852349  1  0.085093  0  0.107062  0.163521  0  1.004817  0
H  H133  1  0.11774063  0.08634886  0.78852411  1  0.08509  0  0.107044  0.163543  0  1.004845  0
H  H134  1  0.88225823  0.58634830  0.21147736  1  0.08509  0  0.10707  0.163554  0  1.004829  0
H  H135  1  0.61773968  0.41365093  0.71147628  1  0.085064  0  0.107068  0.163601  0  1.004797  0
H  H136  1  0.70376322  0.11013360  0.66887217  1  0.091876  0  0.105678  0.157986  0  0.980989  0
H  H137  1  0.79623533  0.88986575  0.16887356  1  0.091888  0  0.105659  0.157955  0  0.981127  0
H  H138  1  0.20376318  0.38986561  0.83112823  1  0.091868  0  0.105671  0.157983  0  0.981048  0
H  H139  1  0.29623626  0.61013523  0.33112768  1  0.091845  0  0.105674  0.157968  0  0.981051  0
H  H140  1  0.29623610  0.88986521  0.33112786  1  0.091845  0  0.105679  0.157964  0  0.981046  0
H  H141  1  0.20376269  0.11013461  0.83112845  1  0.091879  0  0.105688  0.157988  0  0.981056  0
H  H142  1  0.79623549  0.61013474  0.16887259  1  0.091867  0  0.105687  0.157994  0  0.981043  0
H  H143  1  0.70376305  0.38986564  0.66887195  1  0.09187  0  0.105672  0.157962  0  0.981  0
C  C144  1  0.03731665  0.03124915  0.68117342  1  -0.07648  0  -0.225406  -0.473813  0  3.908485  0
C  C145  1  0.46268275  0.96875003  0.18117193  1  -0.076815  0  -0.225393  -0.473724  0  3.90852  0
C  C146  1  0.53731566  0.46875071  0.81882697  1  -0.076838  0  -0.2254  -0.473805  0  3.908452  0
C  C147  1  0.96268357  0.53124979  0.31882853  1  -0.07656  0  -0.225375  -0.473661  0  3.908576  0
C  C148  1  0.96268267  0.96875069  0.31882819  1  -0.076798  0  -0.225372  -0.47383  0  3.908439  0
C  C149  1  0.53731721  0.03124981  0.81882731  1  -0.076874  0  -0.22542  -0.47378  0  3.908591  0
C  C150  1  0.46268366  0.53124913  0.18117266  1  -0.07687  0  -0.2254  -0.473806  0  3.908412  0
C  C151  1  0.03731639  0.46875005  0.68117308  1  -0.077083  0  -0.225464  -0.473847  0  3.908583  0
C  C152  1  0.97091766  0.08162744  0.66360240  1  0.987312  0  0.237619  0.422771  0  3.961565  0
C  C153  1  0.52908153  0.91837192  0.16360056  1  0.987769  0  0.237618  0.422792  0  3.961648  0
C  C154  1  0.47091694  0.41837208  0.83639802  1  0.987695  0  0.237656  0.422776  0  3.961636  0
C  C155  1  0.02908250  0.58162823  0.33639987  1  0.987642  0  0.237561  0.422651  0  3.961641  0
C  C156  1  0.02908230  0.91837342  0.33639921  1  0.987703  0  0.237619  0.42286  0  3.961454  0
C  C157  1  0.47091843  0.08162792  0.83639828  1  0.987756  0  0.237666  0.422836  0  3.961555  0
C  C158  1  0.52908302  0.58162621  0.16360122  1  0.987757  0  0.237647  0.4228  0  3.961613  0
C  C159  1  0.97091811  0.41837109  0.66360175  1  0.987935  0  0.237651  0.422818  0  3.96155  0
C  C160  1  0.87823091  0.13726663  0.61603130  1  1.005295  0  0.232878  0.411979  0  3.985303  0
C  C161  1  0.62176892  0.86273286  0.11602955  1  1.005275  0  0.232805  0.411916  0  3.985516  0
C  C162  1  0.37823091  0.36273193  0.88396912  1  1.005267  0  0.232812  0.411858  0  3.985506  0
C  C163  1  0.12176919  0.63726722  0.38397088  1  1.005405  0  0.232845  0.411859  0  3.985524  0
C  C164  1  0.12176906  0.86273372  0.38397031  1  1.005417  0  0.232821  0.411914  0  3.985516  0
C  C165  1  0.37823104  0.13726750  0.88396929  1  1.005319  0  0.232837  0.411919  0  3.98543  0
C  C166  1  0.62176970  0.63726584  0.11603012  1  1.005315  0  0.232829  0.41193  0  3.985404  0
C  C167  1  0.87823271  0.36273107  0.61602994  1  1.005266  0  0.232833  0.411836  0  3.985621  0
C  C168  1  0.82212599  0.15898861  0.57150190  1  -0.040376  0  -0.231435  -0.478588  0  3.925813  0
C  C169  1  0.67787382  0.84101151  0.07149979  1  -0.040409  0  -0.231393  -0.478521  0  3.925741  0
C  C170  1  0.32212732  0.34100999  0.92849891  1  -0.040332  0  -0.231315  -0.478355  0  3.925614  0
C  C171  1  0.17787343  0.65898904  0.42850025  1  -0.040445  0  -0.231386  -0.478564  0  3.925798  0
C  C172  1  0.17787332  0.84101226  0.42849971  1  -0.040482  0  -0.231385  -0.478548  0  3.925835  0
C  C173  1  0.32212743  0.15898884  0.92849905  1  -0.040448  0  -0.231396  -0.47861  0  3.925682  0
C  C174  1  0.67787264  0.65898726  0.07149993  1  -0.041437  0  -0.231397  -0.478554  0  3.925839  0
C  C175  1  0.82212977  0.34101028  0.57149938  1  -0.040083  0  -0.231362  -0.478433  0  3.925772  0
C  C176  1  0.00653915  0.11969276  0.45013661  1  1.561109  0  0.214269  0.590286  0  4.174579  0
C  C177  1  0.49346290  0.88031035  0.95013286  1  1.561357  0  0.214365  0.59042  0  4.174565  0
C  C178  1  0.50653755  0.38031051  0.04986499  1  1.561253  0  0.214279  0.590324  0  4.174418  0
C  C179  1  0.99345968  0.61969225  0.54986323  1  1.561261  0  0.214364  0.590458  0  4.174674  0
C  C180  1  0.99346146  0.88030862  0.54986659  1  1.561518  0  0.214292  0.590196  0  4.174746  0
C  C181  1  0.50653835  0.11968949  0.04986480  1  1.561288  0  0.214308  0.590341  0  4.174282  0
C  C182  1  0.49346241  0.61969088  0.95013504  1  1.561369  0  0.214268  0.590082  0  4.174808  0
C  C183  1  0.00654223  0.38031584  0.45013126  1  1.561305  0  0.214367  0.590317  0  4.174639  0
C  C184  1  0.01334928  0.18720210  0.42104779  1  0.051774  0  -0.020367  -0.038232  0  3.966719  0
C  C185  1  0.48664953  0.81280108  0.92104335  1  0.050904  0  -0.020344  -0.038242  0  3.96673  0
C  C186  1  0.51334648  0.31280065  0.07895302  1  0.05134  0  -0.020409  -0.038247  0  3.966764  0
C  C187  1  0.98664881  0.68719739  0.57895748  1  0.050831  0  -0.020405  -0.038326  0  3.966933  0
C  C188  1  0.98664939  0.81279980  0.57895738  1  0.050878  0  -0.020342  -0.038187  0  3.966694  0
C  C189  1  0.51334785  0.18719927  0.07895312  1  0.051341  0  -0.020417  -0.038231  0  3.966804  0
C  C190  1  0.48665025  0.68719867  0.92104345  1  0.050803  0  -0.020359  -0.038171  0  3.966797  0
C  C191  1  0.01334792  0.31280399  0.42104492  1  0.05131  0  -0.020445  -0.038319  0  3.966765  0
C  C192  1  0.02889387  0.18764127  0.36634679  1  -0.051308  0  -0.081399  -0.084558  0  3.972932  0
C  C193  1  0.47110493  0.81236103  0.86634354  1  -0.050537  0  -0.08141  -0.08454  0  3.972841  0
C  C194  1  0.52889237  0.31236095  0.13365362  1  -0.051387  0  -0.081314  -0.084438  0  3.97308  0
C  C195  1  0.97110488  0.68763797  0.63365610  1  -0.050558  0  -0.081368  -0.084443  0  3.972895  0
C  C196  1  0.97110480  0.81236063  0.63365640  1  -0.05055  0  -0.081446  -0.084599  0  3.972969  0
C  C197  1  0.52889309  0.18763881  0.13365332  1  -0.051361  0  -0.081319  -0.084435  0  3.972996  0
C  C198  1  0.47110630  0.68763889  0.86634404  1  -0.050534  0  -0.081439  -0.084613  0  3.972925  0
C  C199  1  0.02889250  0.31236444  0.36634432  1  -0.051143  0  -0.081327  -0.084397  0  3.97298  0
C  C200  1  0.03611149  0.25000211  0.33913316  1  -0.107663  0  -0.096761  -0.099171  0  4.053323  0
C  C201  1  0.46388666  0.74999974  0.83913079  1  -0.107962  0  -0.096613  -0.098898  0  4.052838  0
C  C202  1  0.53611137  0.25000010  0.16086607  1  -0.107393  0  -0.096823  -0.099227  0  4.053358  0
C  C203  1  0.96388653  0.74999824  0.66086964  1  -0.10794  0  -0.09673  -0.099105  0  4.053001  0
C  C204  1  0.00533537  0.25000405  0.44802748  1  -0.086308  0  -0.076131  -0.100716  0  3.923253  0
C  C205  1  0.49466409  0.75000010  0.94802472  1  -0.086341  0  -0.076217  -0.10088  0  3.923454  0
C  C206  1  0.50533393  0.25000025  0.05197135  1  -0.086238  0  -0.07623  -0.100958  0  3.923475  0
C  C207  1  0.99466265  0.74999837  0.55197532  1  -0.086342  0  -0.07619  -0.100832  0  3.923296  0
C  C208  1  0.88763417  0.08473966  0.84053841  1  1.531111  0  0.192578  0.563833  0  4.201318  0
C  C209  1  0.61236830  0.91526027  0.34053855  1  1.531372  0  0.192601  0.563951  0  4.201296  0
C  C210  1  0.38763276  0.41526251  0.65946201  1  1.53112  0  0.19263  0.563992  0  4.201217  0
C  C211  1  0.11236664  0.58474085  0.15946149  1  1.531119  0  0.192592  0.563975  0  4.201287  0
C  C212  1  0.11236644  0.91525915  0.15946083  1  1.531393  0  0.192621  0.564011  0  4.201115  0
C  C213  1  0.38763361  0.08473906  0.65946108  1  1.531338  0  0.192619  0.563959  0  4.201214  0
C  C214  1  0.61236785  0.58473939  0.34053802  1  1.53188  0  0.192621  0.563987  0  4.201256  0
C  C215  1  0.88763397  0.41526208  0.84053815  1  1.531354  0  0.192622  0.564019  0  4.201117  0
C  C216  1  0.86388493  0.04363631  0.88812651  1  -0.035602  0  -0.022252  -0.040178  0  3.997426  0
C  C217  1  0.63611885  0.95636401  0.38812698  1  -0.035646  0  -0.022196  -0.040035  0  3.9974  0
C  C218  1  0.36388475  0.45636536  0.61187272  1  -0.035604  0  -0.022221  -0.040107  0  3.997252  0
C  C219  1  0.13611463  0.54363813  0.11187226  1  -0.035318  0  -0.022241  -0.040066  0  3.997396  0
C  C220  1  0.13611633  0.95636147  0.11187194  1  -0.035333  0  -0.022229  -0.04003  0  3.997266  0
C  C221  1  0.36388435  0.04363583  0.61187304  1  -0.035265  0  -0.022227  -0.04008  0  3.997173  0
C  C222  1  0.63611521  0.54363447  0.38812691  1  -0.035634  0  -0.022214  -0.040082  0  3.997335  0
C  C223  1  0.86388468  0.45636532  0.88812698  1  -0.035598  0  -0.022247  -0.040186  0  3.997248  0
C  C224  1  0.92664220  0.00610149  0.91611647  1  -0.047951  0  -0.079842  -0.08546  0  3.965565  0
C  C225  1  0.57336093  0.99389720  0.41611570  1  -0.047368  0  -0.079919  -0.085556  0  3.965626  0
C  C226  1  0.42664328  0.49389858  0.58388355  1  -0.047952  0  -0.079897  -0.085604  0  3.965524  0
C  C227  1  0.07335805  0.50610447  0.08388394  1  -0.047322  0  -0.079859  -0.085466  0  3.965438  0
C  C228  1  0.07336035  0.99389576  0.08388316  1  -0.04765  0  -0.079912  -0.085536  0  3.96558  0
C  C229  1  0.42664227  0.00610058  0.58388314  1  -0.047898  0  -0.079852  -0.085518  0  3.965503  0
C  C230  1  0.57335992  0.50610074  0.41611608  1  -0.047433  0  -0.079862  -0.085457  0  3.965625  0
C  C231  1  0.92664192  0.49390001  0.91611688  1  -0.047916  0  -0.079858  -0.085509  0  3.96554  0
C  C232  1  0.90375132  0.97140924  0.96240276  1  -0.035389  0  -0.094095  -0.097109  0  4.040375  0
C  C233  1  0.59625053  0.02858881  0.46240191  1  -0.035559  0  -0.094064  -0.097229  0  4.040362  0
C  C234  1  0.40375293  0.52859033  0.53759688  1  -0.035462  0  -0.094084  -0.097084  0  4.040191  0
C  C235  1  0.09624838  0.47141129  0.03759732  1  -0.035615  0  -0.094093  -0.097225  0  4.040219  0
C  C236  1  0.09625059  0.02858905  0.03759648  1  -0.035595  0  -0.094077  -0.097262  0  4.040363  0
C  C237  1  0.40375073  0.97140896  0.53759693  1  -0.035398  0  -0.094115  -0.097128  0  4.04037  0
C  C238  1  0.59625156  0.47140899  0.46240315  1  -0.035948  0  -0.094098  -0.097305  0  4.040497  0
C  C239  1  0.90375029  0.52859061  0.96240310  1  -0.035384  0  -0.094109  -0.0971  0  4.040408  0
C  C240  1  0.81872597  0.97416615  0.98085774  1  -0.030995  0  -0.07834  -0.079939  0  3.96149  0
C  C241  1  0.68127653  0.02583288  0.48085730  1  -0.031554  0  -0.078321  -0.079882  0  3.961453  0
C  C242  1  0.31872823  0.52583503  0.51914071  1  -0.031131  0  -0.07831  -0.079876  0  3.961198  0
C  C243  1  0.18127438  0.47416664  0.01914352  1  -0.030956  0  -0.07833  -0.079876  0  3.961431  0
C  C244  1  0.18127658  0.02583317  0.01914308  1  -0.03176  0  -0.0783  -0.079807  0  3.961439  0
C  C245  1  0.31872537  0.97416644  0.51914154  1  -0.03129  0  -0.07835  -0.080015  0  3.961475  0
C  C246  1  0.68127691  0.47416739  0.48085695  1  -0.031655  0  -0.078337  -0.079847  0  3.961455  0
C  C247  1  0.81872494  0.52583320  0.98085888  1  -0.031569  0  -0.07836  -0.07998  0  3.961523  0
C  C248  1  0.75514849  0.01027273  0.95258089  1  -0.068453  0  -0.016158  -0.031398  0  3.964141  0
C  C249  1  0.74485530  0.98972793  0.45258172  1  -0.068036  0  -0.016105  -0.031259  0  3.964089  0
C  C250  1  0.25515021  0.48973006  0.54741833  1  -0.068463  0  -0.016194  -0.031403  0  3.963995  0
C  C251  1  0.24485176  0.51027154  0.04741872  1  -0.068432  0  -0.01611  -0.03124  0  3.964103  0
C  C252  1  0.24485406  0.98972711  0.04741874  1  -0.068032  0  -0.016218  -0.03142  0  3.964174  0
C  C253  1  0.25514855  0.01027191  0.54741791  1  -0.068201  0  -0.016137  -0.031256  0  3.964072  0
C  C254  1  0.74485364  0.51027133  0.45258091  1  -0.0681  0  -0.016137  -0.031358  0  3.964045  0
C  C255  1  0.75514821  0.48972778  0.95258091  1  -0.068186  0  -0.016086  -0.031294  0  3.964152  0
C  C256  1  0.77839970  0.04495259  0.90627364  1  -0.004312  0  -0.0722  -0.09514  0  3.920206  0
C  C257  1  0.72160408  0.95504664  0.40627294  1  -0.0045  0  -0.07226  -0.095344  0  3.920493  0
C  C258  1  0.27840017  0.45504966  0.59372479  1  -0.004269  0  -0.072215  -0.095211  0  3.920248  0
C  C259  1  0.22160050  0.54495388  0.09372710  1  -0.004675  0  -0.072248  -0.095347  0  3.920203  0
C  C260  1  0.22160350  0.95504570  0.09372678  1  -0.004802  0  -0.072211  -0.095304  0  3.920238  0
C  C261  1  0.27839977  0.04495216  0.59372550  1  -0.004608  0  -0.072226  -0.095268  0  3.920198  0
C  C262  1  0.72160108  0.54495327  0.40627208  1  -0.00436  0  -0.072273  -0.095289  0  3.92021  0
C  C263  1  0.77840011  0.45504802  0.90627372  1  -0.0043  0  -0.072231  -0.095197  0  3.920158  0
C  C264  1  0.66269721  0.01104413  0.97099630  1  1.59461  0  0.214954  0.588097  0  4.181197  0
C  C265  1  0.83730658  0.98895286  0.47099556  1  1.59469  0  0.214885  0.587968  0  4.181213  0
C  C266  1  0.16270086  0.48896078  0.52899776  1  1.594719  0  0.21504  0.5881  0  4.180855  0
C  C267  1  0.33730498  0.51104705  0.02900766  1  1.594628  0  0.214922  0.587944  0  4.181165  0
C  C268  1  0.33730664  0.98895312  0.02900570  1  1.594661  0  0.214999  0.588075  0  4.181061  0
C  C269  1  0.16269791  0.01104336  0.52900209  1  1.594402  0  0.214941  0.587944  0  4.18109  0
C  C270  1  0.83730945  0.51105092  0.47098960  1  1.594392  0  0.214868  0.587996  0  4.181252  0
C  C271  1  0.66269757  0.48895588  0.97099712  1  1.594686  0  0.214985  0.588122  0  4.181118  0
C  C272  1  0.67324451  0.12095168  0.70722878  1  -0.086699  0  -0.227317  -0.477947  0  3.908524  0
C  C273  1  0.82675275  0.87904756  0.20722979  1  -0.086402  0  -0.227296  -0.47791  0  3.908661  0
C  C274  1  0.17324447  0.37904807  0.79277281  1  -0.08674  0  -0.227265  -0.477907  0  3.908479  0
C  C275  1  0.32675366  0.62095288  0.29277224  1  -0.086404  0  -0.227324  -0.477955  0  3.908612  0
C  C276  1  0.32675351  0.87904815  0.29277164  1  -0.086409  0  -0.227286  -0.477845  0  3.90857  0
C  C277  1  0.17324527  0.12095228  0.79277261  1  -0.086749  0  -0.227269  -0.477905  0  3.908602  0
C  C278  1  0.82675355  0.62095229  0.20722920  1  -0.086391  0  -0.227307  -0.477921  0  3.908557  0
C  C279  1  0.67324436  0.37904696  0.70722858  1  -0.086884  0  -0.227281  -0.477913  0  3.908551  0
C  C280  1  0.64456851  0.19395210  0.71000172  1  0.981685  0  0.229368  0.41006  0  3.988399  0
C  C281  1  0.85542876  0.80604714  0.21000364  1  0.981261  0  0.22927  0.4099  0  3.988551  0
C  C282  1  0.14456855  0.30604767  0.78999907  1  0.981666  0  0.229327  0.410009  0  3.988364  0
C  C283  1  0.35542894  0.69395276  0.28999761  1  0.981234  0  0.229357  0.410038  0  3.988489  0
C  C284  1  0.35542887  0.80604774  0.28999712  1  0.981234  0  0.229343  0.410006  0  3.988382  0
C  C285  1  0.14456927  0.19395270  0.78999877  1  0.981537  0  0.229321  0.409985  0  3.988392  0
C  C286  1  0.85542882  0.69395268  0.21000293  1  0.981253  0  0.229327  0.409988  0  3.988425  0
C  C287  1  0.64456909  0.30604656  0.71000163  1  0.981752  0  0.229339  0.410032  0  3.988362  0
N  N288  1  0.93590884  0.12997100  0.69465573  1  -0.817444  0  -0.269186  -0.279698  0  3.511533  0
N  N289  1  0.56408972  0.87002879  0.19465357  1  -0.817004  0  -0.269164  -0.279612  0  3.511545  0
N  N290  1  0.43590881  0.37002906  0.80534469  1  -0.817415  0  -0.269205  -0.279687  0  3.511616  0
N  N291  1  0.06408997  0.62997185  0.30534607  1  -0.817338  0  -0.269183  -0.279652  0  3.511639  0
N  N292  1  0.06408983  0.87002986  0.30534628  1  -0.81741  0  -0.26914  -0.279629  0  3.511572  0
N  N293  1  0.43590895  0.12997105  0.80534488  1  -0.817468  0  -0.269188  -0.279719  0  3.511628  0
N  N294  1  0.56409115  0.62997026  0.19465455  1  -0.817422  0  -0.269175  -0.279636  0  3.511542  0
N  N295  1  0.93590999  0.37002799  0.69465475  1  -0.817  0  -0.269136  -0.279615  0  3.511434  0
N  N296  1  0.87690495  0.16544291  0.66426314  1  -0.818182  0  -0.277157  -0.285346  0  3.547229  0
N  N297  1  0.62309424  0.83455541  0.16426103  1  -0.818629  0  -0.277135  -0.285359  0  3.547346  0
N  N298  1  0.37690497  0.33455565  0.83573807  1  -0.818278  0  -0.277139  -0.285315  0  3.547312  0
N  N299  1  0.12309446  0.66544518  0.33573900  1  -0.818223  0  -0.277135  -0.285356  0  3.547415  0
N  N300  1  0.12309501  0.83455692  0.33573887  1  -0.818311  0  -0.277111  -0.285292  0  3.547354  0
N  N301  1  0.37690507  0.16544391  0.83573781  1  -0.818257  0  -0.277145  -0.285325  0  3.547259  0
N  N302  1  0.62309564  0.66544315  0.16426156  1  -0.818215  0  -0.277164  -0.285366  0  3.5473  0
N  N303  1  0.87690615  0.33455466  0.66426142  1  -0.818665  0  -0.277169  -0.28537  0  3.547405  0
N  N304  1  0.93641142  0.08504179  0.61429980  1  -1.211342  0  -0.339903  -0.393379  0  3.345359  0
N  N305  1  0.56358776  0.91495770  0.11429757  1  -1.211585  0  -0.339819  -0.39339  0  3.345334  0
N  N306  1  0.43641136  0.41495724  0.88570062  1  -1.211333  0  -0.339853  -0.393327  0  3.345398  0
N  N307  1  0.06358809  0.58504345  0.38570206  1  -1.211643  0  -0.339774  -0.393086  0  3.345201  0
N  N308  1  0.06358790  0.91495856  0.38570220  1  -1.211604  0  -0.339891  -0.393448  0  3.345316  0
N  N309  1  0.43641220  0.08504265  0.88570087  1  -1.211351  0  -0.339864  -0.393316  0  3.345307  0
N  N310  1  0.56358796  0.58504104  0.11429862  1  -1.211593  0  -0.339885  -0.39341  0  3.345339  0
N  N311  1  0.93641381  0.41495638  0.61429876  1  -1.211393  0  -0.339871  -0.393351  0  3.345394  0
N  N312  1  0.56410633  0.21449344  0.72000910  1  -0.697367  0  -0.255231  -0.255156  0  3.466934  0
N  N313  1  0.93589093  0.78550525  0.22001145  1  -0.868963  0  -0.25523  -0.255186  0  3.466947  0
N  N314  1  0.06410640  0.28550587  0.77999129  1  -0.697312  0  -0.255228  -0.255215  0  3.467002  0
N  N315  1  0.43589173  0.71449459  0.27998980  1  -0.868938  0  -0.255245  -0.255206  0  3.466913  0
N  N316  1  0.43589169  0.78550588  0.27998974  1  -0.697272  0  -0.25516  -0.255077  0  3.466852  0
N  N317  1  0.06410709  0.21449459  0.77999095  1  -0.868966  0  -0.255244  -0.255159  0  3.466917  0
N  N318  1  0.93589097  0.71449448  0.22001111  1  -0.697291  0  -0.25516  -0.25508  0  3.466821  0
N  N319  1  0.56410694  0.28550473  0.72000865  1  -0.868938  0  -0.255258  -0.255261  0  3.466969  0
N  N320  1  0.69687535  0.24999932  0.70336754  1  -1.246179  0  -0.370123  -0.450197  0  3.479888  0
N  N321  1  0.80312321  0.74999994  0.20336835  1  -1.246169  0  -0.370122  -0.450135  0  3.480053  0
N  N322  1  0.19687481  0.25000041  0.79663366  1  -1.246227  0  -0.370098  -0.450135  0  3.479876  0
N  N323  1  0.30312332  0.75000000  0.29663210  1  -1.246157  0  -0.370149  -0.450202  0  3.480013  0
O  O324  1  0.98527598  0.12158237  0.49880970  1  -1.169184  0  -0.315567  -0.549454  0  2.318858  0
O  O325  1  0.51472911  0.87842280  0.99880195  1  -1.168908  0  -0.315538  -0.549433  0  2.319288  0
O  O326  1  0.48527781  0.37842053  0.00118996  1  -1.169132  0  -0.315536  -0.549386  0  2.3187  0
O  O327  1  0.01472155  0.62157758  0.50119884  1  -1.169014  0  -0.31556  -0.549421  0  2.319451  0
O  O328  1  0.01472787  0.87842004  0.50119706  1  -1.168941  0  -0.315563  -0.549369  0  2.319142  0
O  O329  1  0.48527603  0.12157910  0.00119095  1  -1.169108  0  -0.315536  -0.549378  0  2.318749  0
O  O330  1  0.51472862  0.62157828  0.99880255  1  -1.168987  0  -0.315531  -0.549311  0  2.31936  0
O  O331  1  0.98527453  0.37842432  0.49880792  1  -1.16887  0  -0.31557  -0.549405  0  2.318805  0
O  O332  1  0.02266266  0.06515275  0.42366221  1  -1.170594  0  -0.317923  -0.558536  0  2.344816  0
O  O333  1  0.47733163  0.93485146  0.92365560  1  -1.170696  0  -0.318051  -0.55869  0  2.344534  0
O  O334  1  0.52265583  0.43484947  0.07633939  1  -1.170458  0  -0.317953  -0.558598  0  2.344845  0
O  O335  1  0.97733106  0.56514651  0.57634404  1  -1.17051  0  -0.318006  -0.558683  0  2.344339  0
O  O336  1  0.97733278  0.93484967  0.57634296  1  -1.170794  0  -0.317973  -0.558555  0  2.344631  0
O  O337  1  0.52266187  0.06514992  0.07633928  1  -1.170512  0  -0.317958  -0.558601  0  2.344688  0
O  O338  1  0.47733185  0.56514830  0.92365747  1  -1.170592  0  -0.317997  -0.558516  0  2.344466  0
O  O339  1  0.02266632  0.43485127  0.42365876  1  -1.170761  0  -0.317991  -0.558594  0  2.344987  0
O  O340  1  0.60743831  0.03887122  0.94044504  1  -1.165545  0  -0.312574  -0.539823  0  2.324783  0
O  O341  1  0.89256159  0.96112379  0.44045068  1  -1.165632  0  -0.312509  -0.539743  0  2.32516  0
O  O342  1  0.10743877  0.46113116  0.55955021  1  -1.165219  0  -0.312563  -0.539743  0  2.324513  0
O  O343  1  0.39255802  0.53887660  0.05955057  1  -1.165606  0  -0.312485  -0.539695  0  2.325247  0
O  O344  1  0.39256101  0.96112397  0.05955063  1  -1.165633  0  -0.312516  -0.539718  0  2.32522  0
O  O345  1  0.10743902  0.03886882  0.55955212  1  -1.165441  0  -0.312543  -0.539713  0  2.324842  0
O  O346  1  0.89255861  0.53887435  0.44044745  1  -1.165819  0  -0.312474  -0.539703  0  2.325596  0
O  O347  1  0.60743806  0.46112892  0.94044471  1  -1.165513  0  -0.312617  -0.539882  0  2.3247  0
O  O348  1  0.64665325  0.98287370  0.01547193  1  -1.173096  0  -0.314217  -0.552165  0  2.34814  0
O  O349  1  0.85334720  0.01713018  0.51547268  1  -1.173097  0  -0.314201  -0.552112  0  2.347839  0
O  O350  1  0.14665821  0.51713049  0.48452731  1  -1.173417  0  -0.314288  -0.552229  0  2.348271  0
O  O351  1  0.35334838  0.48286788  0.98452932  1  -1.172977  0  -0.314262  -0.552159  0  2.347576  0
O  O352  1  0.35334736  0.01713078  0.98452770  1  -1.173038  0  -0.314297  -0.552226  0  2.347695  0
O  O353  1  0.14665535  0.98287275  0.48452537  1  -1.172973  0  -0.314225  -0.55213  0  2.34808  0
O  O354  1  0.85335145  0.48287141  0.51547271  1  -1.172652  0  -0.314241  -0.552201  0  2.34739  0
O  O355  1  0.64665288  0.51712525  0.01547190  1  -1.173223  0  -0.314206  -0.552149  0  2.348166  0
O  O356  1  0.83141735  0.12021569  0.81601073  1  -1.185445  0  -0.336973  -0.566785  0  2.129886  0
O  O357  1  0.66858446  0.87978637  0.31601015  1  -1.185739  0  -0.337013  -0.566935  0  2.129942  0
O  O358  1  0.33141535  0.37978704  0.68399087  1  -1.185441  0  -0.337027  -0.5669  0  2.129762  0
O  O359  1  0.16858341  0.62021471  0.18398990  1  -1.185485  0  -0.337016  -0.566943  0  2.129918  0
O  O360  1  0.16858261  0.87978725  0.18399128  1  -1.185704  0  -0.336974  -0.566921  0  2.129898  0
O  O361  1  0.33141680  0.12021450  0.68398949  1  -1.185642  0  -0.336984  -0.566891  0  2.129854  0
O  O362  1  0.66858203  0.62021435  0.31600956  1  -1.186236  0  -0.337004  -0.566904  0  2.129933  0
O  O363  1  0.83141591  0.37978719  0.81600974  1  -1.185645  0  -0.336988  -0.566878  0  2.12979  0
O  O364  1  0.96797926  0.08557090  0.82567193  1  -1.164473  0  -0.342177  -0.566811  0  2.232971  0
O  O365  1  0.53202321  0.91442803  0.32567207  1  -1.164368  0  -0.342161  -0.566809  0  2.232977  0
O  O366  1  0.46797786  0.41443018  0.67432809  1  -1.164418  0  -0.342166  -0.566846  0  2.233006  0
O  O367  1  0.03202155  0.58557160  0.17432756  1  -1.164433  0  -0.342179  -0.566873  0  2.232971  0
O  O368  1  0.03202006  0.91442533  0.17432493  1  -1.164451  0  -0.342188  -0.56685  0  2.232876  0
O  O369  1  0.46797935  0.08556974  0.67432716  1  -1.164464  0  -0.34219  -0.56684  0  2.232968  0
O  O370  1  0.53202081  0.58557018  0.32567233  1  -1.164443  0  -0.342183  -0.566872  0  2.232974  0
O  O371  1  0.96797906  0.41443030  0.82567168  1  -1.164458  0  -0.342177  -0.566859  0  2.232925  0
O  O372  1  0.88099594  0.25000071  0.76554313  1  -1.227325  0  -0.556968  -0.78049  0  2.293983  0
O  O373  1  0.61900134  0.74999993  0.26554234  1  -1.227186  0  -0.556918  -0.78034  0  2.293997  0
O  O374  1  0.38099539  0.24999991  0.73445729  1  -1.227126  0  -0.556995  -0.780536  0  2.293918  0
O  O375  1  0.11900209  0.75000016  0.23445769  1  -1.227372  0  -0.556927  -0.780267  0  2.294  0
