# generated using pymatgen
data_Zr3H14C28S5O21
_symmetry_space_group_name_H-M   'P 1'
_cell_length_a   16.44923887
_cell_length_b   16.44784655
_cell_length_c   16.51415633
_cell_angle_alpha   62.08883852
_cell_angle_beta   59.87218238
_cell_angle_gamma   60.26006447
_symmetry_Int_Tables_number   1
_chemical_formula_structural   Zr3H14C28S5O21
_chemical_formula_sum   'Zr6 H28 C56 S10 O42'
_cell_volume   3209.40283145
_cell_formula_units_Z   2
loop_
 _symmetry_equiv_pos_site_id
 _symmetry_equiv_pos_as_xyz
  1  'x, y, z'
loop_
 _atom_site_type_symbol
 _atom_site_label
 _atom_site_symmetry_multiplicity
 _atom_site_fract_x
 _atom_site_fract_y
 _atom_site_fract_z
 _atom_site_occupancy
 _atom_site_pbe_bader_charge
 _atom_site_pbe_bader_spin_density
 _atom_site_pbe_cm5_charge
 _atom_site_pbe_ddec_charge
 _atom_site_pbe_ddec_spin_density
 _atom_site_pbe_ddec_sum_bond_order
 _atom_site_pbe_magmom
Zr  Zr0  1  0.88747588  0.90351752  0.60002716  1  2.636881  0  1.626068  2.373884  0  2.76949  0
Zr  Zr1  1  0.10860567  0.10614300  0.39795337  1  2.638802  0  1.626273  2.373266  0  2.772483  0
Zr  Zr2  1  0.10180716  0.89779285  0.60605445  1  2.637247  0  1.626536  2.371267  0  2.752559  0
Zr  Zr3  1  0.89396495  0.11218528  0.39230883  1  2.636883  0  1.626797  2.370692  0  2.753912  0
Zr  Zr4  1  0.10741772  0.89572391  0.38937649  1  2.635665  0  1.61904  2.376577  0  2.725811  0
Zr  Zr5  1  0.88858615  0.11405710  0.60880518  1  2.63715  0  1.618509  2.376569  0  2.723644  0
H  H6  1  0.07840715  0.75563568  0.57519282  1  0.592115  0  0.330885  0.422332  0  0.860219  0
H  H7  1  0.09017588  0.08191726  0.24989579  1  0.605393  0  0.330404  0.421327  0  0.862059  0
H  H8  1  0.08056682  0.08655733  0.58998844  1  0.616505  0  0.330881  0.423999  0  0.858516  0
H  H9  1  0.74278391  0.09543883  0.58131193  1  0.617594  0  0.331038  0.424547  0  0.858451  0
H  H10  1  0.83336921  0.67806411  0.86673874  1  0.085327  0  0.100496  0.110087  0  1.020567  0
H  H11  1  0.11922937  0.37470876  0.17387158  1  0.083016  0  0.100588  0.109874  0  1.020223  0
H  H12  1  0.80390795  0.46163238  0.67159605  1  0.604019  0  0.337033  0.360916  0  0.876447  0
H  H13  1  0.17185060  0.56831320  0.30499552  1  0.591707  0  0.337579  0.360821  0  0.877275  0
H  H14  1  0.45426483  0.81096127  0.06334115  1  0.626415  0  0.337261  0.360339  0  0.877042  0
H  H15  1  0.56346566  0.17711206  0.95558031  1  0.612566  0  0.33705  0.360489  0  0.877403  0
H  H16  1  0.16414970  0.81117903  0.94220382  1  0.590493  0  0.337416  0.360134  0  0.877862  0
H  H17  1  0.81019458  0.17877385  0.07632630  1  0.631397  0  0.337894  0.359562  0  0.875382  0
H  H18  1  0.43434216  0.58318987  0.67243510  1  0.586453  0  0.338289  0.360573  0  0.875419  0
H  H19  1  0.58366201  0.44763794  0.30537919  1  0.586454  0  0.337301  0.360338  0  0.878555  0
H  H20  1  0.44378221  0.16690690  0.31315212  1  0.61223  0  0.335639  0.358459  0  0.8812  0
H  H21  1  0.57388208  0.82151309  0.66288584  1  0.604388  0  0.336034  0.35916  0  0.877241  0
H  H22  1  0.24556458  0.49649309  0.97166746  1  0.017109  0  0.085897  0.115163  0  1.014904  0
H  H23  1  0.14141552  0.60162806  0.99766735  1  0.022922  0  0.090416  0.126466  0  1.006915  0
H  H24  1  0.17727882  0.50005454  0.09447860  1  0.028954  0  0.085219  0.114777  0  1.012302  0
H  H25  1  0.22048094  0.53151110  0.84694521  1  0.014614  0  0.084375  0.115006  0  1.025294  0
H  H26  1  0.17911708  0.62065494  0.74884240  1  0.078264  0  0.094244  0.139732  0  1.009295  0
H  H27  1  0.17174414  0.65920857  0.83515019  1  0.057938  0  0.096727  0.140123  0  0.994363  0
H  H28  1  0.78848836  0.47499185  0.98865655  1  0.016261  0  0.086288  0.115766  0  1.013844  0
H  H29  1  0.75893128  0.50302416  0.09348262  1  0.042468  0  0.090449  0.126356  0  1.007137  0
H  H30  1  0.72945955  0.59837901  0.99048910  1  0.031589  0  0.085167  0.114827  0  1.011979  0
H  H31  1  0.90193270  0.35127685  0.02606586  1  -0.003597  0  0.084378  0.114367  0  1.026094  0
H  H32  1  0.95113487  0.25414149  0.11634121  1  0.073866  0  0.094029  0.138694  0  1.011939  0
H  H33  1  0.83352397  0.34096044  0.15333967  1  0.067503  0  0.096607  0.139078  0  0.994884  0
C  C34  1  0.99381233  0.74258437  0.48199878  1  1.587311  0  0.220549  0.65344  0  4.163809  0
C  C35  1  0.28117532  0.98884462  0.23657053  1  1.579933  0  0.221033  0.654921  0  4.162716  0
C  C36  1  0.99160407  0.27792253  0.50446680  1  1.560742  0  0.221694  0.655855  0  4.16128  0
C  C37  1  0.72645032  0.00926372  0.77259304  1  1.579214  0  0.222204  0.657375  0  4.156792  0
C  C38  1  0.98598375  0.73986064  0.76280340  1  1.536109  0  0.233627  0.643476  0  4.086399  0
C  C39  1  0.73072794  0.00377244  0.49037819  1  1.584083  0  0.22098  0.655284  0  4.164524  0
C  C40  1  0.01030766  0.26942881  0.23494243  1  1.530505  0  0.233825  0.643403  0  4.082583  0
C  C41  1  0.27518039  0.99640208  0.49756920  1  1.601906  0  0.221053  0.654544  0  4.165524  0
C  C42  1  0.27403562  0.73565869  0.49465240  1  1.580614  0  0.221175  0.653791  0  4.160634  0
C  C43  1  0.99032241  0.99866964  0.77827526  1  1.603267  0  0.221288  0.655203  0  4.157736  0
C  C44  1  0.73258040  0.28400970  0.49381159  1  1.577285  0  0.221544  0.655205  0  4.156375  0
C  C45  1  0.99539826  0.00145106  0.22947208  1  1.592279  0  0.221818  0.654948  0  4.159583  0
C  C46  1  0.91840589  0.43121366  0.56010028  1  0.532325  0  0.083977  0.277063  0  4.08791  0
C  C47  1  0.05665406  0.59895522  0.41602595  1  0.537675  0  0.083707  0.276217  0  4.092237  0
C  C48  1  0.98639807  0.37164357  0.49866525  1  -0.059236  0  -0.035473  -0.227917  0  3.902086  0
C  C49  1  0.99083257  0.65647788  0.47962192  1  -0.054395  0  -0.03611  -0.227742  0  3.905139  0
C  C50  1  0.02931039  0.51734415  0.44489643  1  -0.157248  0  -0.041412  -0.140884  0  4.160186  0
C  C51  1  0.94354892  0.51483749  0.52903693  1  -0.112989  0  -0.041887  -0.142592  0  4.159338  0
C  C52  1  0.42812914  0.92211066  0.09355335  1  0.572802  0  0.083827  0.276487  0  4.091656  0
C  C53  1  0.59092090  0.06526209  0.92570371  1  0.55072  0  0.084961  0.278859  0  4.085263  0
C  C54  1  0.37284852  0.98608322  0.15070498  1  -0.121092  0  -0.036251  -0.228822  0  3.904176  0
C  C55  1  0.64378167  0.00358739  0.86636953  1  -0.09175  0  -0.036232  -0.229395  0  3.902294  0
C  C56  1  0.51291558  0.03463703  0.00921539  1  -0.179553  0  -0.042242  -0.143961  0  4.160714  0
C  C57  1  0.50849411  0.95052360  0.01199005  1  -0.131692  0  -0.041191  -0.140692  0  4.16015  0
C  C58  1  0.05237879  0.92595524  0.92219751  1  0.531578  0  0.083943  0.275812  0  4.083128  0
C  C59  1  0.92229240  0.06420409  0.09588160  1  0.528263  0  0.084204  0.274833  0  4.0831  0
C  C60  1  0.98777337  0.99379532  0.87035821  1  -0.066141  0  -0.035834  -0.22793  0  3.895013  0
C  C61  1  0.98946729  0.99861426  0.14532053  1  -0.09336  0  -0.03681  -0.231548  0  3.901706  0
C  C62  1  0.94490567  0.03703325  0.01498571  1  -0.116461  0  -0.0428  -0.14426  0  4.159189  0
C  C63  1  0.02784090  0.95140384  0.00491959  1  -0.153343  0  -0.041396  -0.14117  0  4.155927  0
C  C64  1  0.41769648  0.60237629  0.55776853  1  0.552092  0  0.084384  0.274359  0  4.083284  0
C  C65  1  0.60002187  0.42802714  0.42036064  1  0.548087  0  0.084842  0.277862  0  4.080248  0
C  C66  1  0.36701338  0.65158531  0.49189535  1  -0.125953  0  -0.036909  -0.231798  0  3.901336  0
C  C67  1  0.64819648  0.37633222  0.48855727  1  -0.097075  0  -0.035995  -0.228376  0  3.893266  0
C  C68  1  0.51635781  0.51094646  0.44537153  1  -0.140779  0  -0.041726  -0.142397  0  4.157079  0
C  C69  1  0.50319442  0.52132074  0.53099403  1  -0.106949  0  -0.041941  -0.142115  0  4.158908  0
C  C70  1  0.06063043  0.59269992  0.88568152  1  0.029903  0  0.009875  0.134044  0  3.866631  0
C  C71  1  0.89443563  0.62740390  0.89453956  1  -0.066206  0  -0.097451  -0.168703  0  4.001046  0
C  C72  1  0.88450329  0.54340389  0.97002031  1  0.031384  0  -0.014111  0.116837  0  3.957763  0
C  C73  1  0.96268443  0.48248464  0.01094515  1  -0.036593  0  -0.002339  -0.030102  0  3.89937  0
C  C74  1  0.96048840  0.39151488  0.08729910  1  0.005138  0  0.008838  0.132009  0  3.865235  0
C  C75  1  0.08179993  0.40175090  0.12274725  1  0.005567  0  -0.097661  -0.168581  0  3.999949  0
C  C76  1  0.10035343  0.47705690  0.03860571  1  -0.04985  0  -0.014499  0.117535  0  3.955715  0
C  C77  1  0.04319688  0.51689182  0.97699023  1  -0.039923  0  -0.002403  -0.030735  0  3.899766  0
C  C78  1  0.98275054  0.65050779  0.84873435  1  -0.035602  0  -0.025497  -0.108249  0  3.971465  0
C  C79  1  0.01684829  0.35532680  0.14554758  1  -0.029272  0  -0.024752  -0.107578  0  3.969324  0
C  C80  1  0.42156265  0.05758726  0.42420197  1  0.561966  0  0.084562  0.278362  0  4.087399  0
C  C81  1  0.59597264  0.93100737  0.55203923  1  0.556958  0  0.084459  0.278191  0  4.084881  0
C  C82  1  0.36832563  0.99367537  0.49104914  1  -0.118167  0  -0.036293  -0.229272  0  3.906914  0
C  C83  1  0.64680923  0.99734291  0.48763892  1  -0.073989  0  -0.036425  -0.228998  0  3.905445  0
C  C84  1  0.51447020  0.95248618  0.52798961  1  -0.137785  0  -0.042391  -0.143549  0  4.162946  0
C  C85  1  0.50535750  0.03384360  0.44598355  1  -0.132132  0  -0.041597  -0.14064  0  4.159588  0
C  C86  1  0.16996388  0.52135938  0.02407188  1  -0.030498  0  -0.238547  -0.397494  0  3.99139  0
C  C87  1  0.16330525  0.60147015  0.82708122  1  -0.049186  0  -0.244649  -0.415175  0  3.984241  0
C  C88  1  0.78556488  0.52839244  0.01316601  1  -0.061587  0  -0.239113  -0.397984  0  3.991934  0
C  C89  1  0.90813192  0.33234741  0.09620818  1  -0.048013  0  -0.244272  -0.411678  0  3.984322  0
S  S90  1  0.07998827  0.41826893  0.40260393  1  0.225562  0  0.058385  0.108582  0  2.810613  0
S  S91  1  0.89504195  0.61192470  0.57348561  1  0.218153  0  0.05879  0.111743  0  2.81007  0
S  S92  1  0.41979316  0.07966773  0.10593107  1  0.257105  0  0.058617  0.112065  0  2.809177  0
S  S93  1  0.59924528  0.90774149  0.91324224  1  0.236563  0  0.058194  0.109005  0  2.810275  0
S  S94  1  0.89604902  0.08721787  0.92400473  1  0.216599  0  0.057087  0.109145  0  2.798342  0
S  S95  1  0.07893045  0.90318268  0.09380567  1  0.236727  0  0.058426  0.111534  0  2.794893  0
S  S96  1  0.42490462  0.59970992  0.39668022  1  0.229962  0  0.057865  0.111599  0  2.793871  0
S  S97  1  0.59247429  0.43041727  0.58171128  1  0.225456  0  0.056569  0.107991  0  2.795634  0
S  S98  1  0.42158647  0.90385196  0.57914985  1  0.226767  0  0.056758  0.108967  0  2.797748  0
S  S99  1  0.59606562  0.08467869  0.39704672  1  0.224736  0  0.056579  0.10782  0  2.796543  0
O  O100  1  0.92336991  0.77849030  0.55192217  1  -1.178385  0  -0.35695  -0.615682  0  2.288328  0
O  O101  1  0.24569276  0.05885653  0.27236919  1  -1.176434  0  -0.356818  -0.615675  0  2.287459  0
O  O102  1  0.06495014  0.23923155  0.43735582  1  -1.179048  0  -0.359782  -0.620333  0  2.280738  0
O  O103  1  0.75882647  0.94224039  0.73381619  1  -1.175381  0  -0.359411  -0.620528  0  2.275166  0
O  O104  1  0.05323776  0.77555746  0.73220765  1  -1.176779  0  -0.346908  -0.604941  0  2.317022  0
O  O105  1  0.76400142  0.07296343  0.42463280  1  -1.183275  0  -0.353869  -0.615779  0  2.253024  0
O  O106  1  0.93806318  0.23869606  0.27062968  1  -1.174939  0  -0.347291  -0.60471  0  2.317692  0
O  O107  1  0.23857890  0.93056894  0.56677613  1  -1.178135  0  -0.353909  -0.615679  0  2.251305  0
O  O108  1  0.24102205  0.76649025  0.42610836  1  -1.167106  0  -0.352658  -0.615599  0  2.250455  0
O  O109  1  0.92306886  0.07050842  0.74423216  1  -1.185318  0  -0.352595  -0.616586  0  2.250434  0
O  O110  1  0.76190856  0.24978626  0.56575998  1  -1.180661  0  -0.352945  -0.616883  0  2.245403  0
O  O111  1  0.06620096  0.93287774  0.26022556  1  -1.177135  0  -0.353248  -0.61625  0  2.250802  0
O  O112  1  0.06104104  0.93157324  0.73868562  1  -1.16851  0  -0.360266  -0.602437  0  2.275333  0
O  O113  1  0.76841044  0.24440964  0.42676871  1  -1.164968  0  -0.360626  -0.602081  0  2.278176  0
O  O114  1  0.92995638  0.07338502  0.26411781  1  -1.168851  0  -0.359979  -0.604324  0  2.281761  0
O  O115  1  0.23284133  0.77014498  0.56672175  1  -1.165305  0  -0.360322  -0.60377  0  2.284401  0
O  O116  1  0.91856782  0.77655848  0.72552967  1  -1.18098  0  -0.364466  -0.625101  0  2.29701  0
O  O117  1  0.23730619  0.06635469  0.43373647  1  -1.177355  0  -0.363861  -0.601626  0  2.299366  0
O  O118  1  0.07832942  0.23222924  0.27155672  1  -1.179163  0  -0.364609  -0.624707  0  2.293075  0
O  O119  1  0.76255342  0.93978890  0.56024649  1  -1.170599  0  -0.363969  -0.602638  0  2.297911  0
O  O120  1  0.75853384  0.08004891  0.73665167  1  -1.164916  0  -0.358414  -0.602024  0  2.264584  0
O  O121  1  0.06630708  0.77330587  0.41684210  1  -1.165907  0  -0.358123  -0.601146  0  2.262567  0
O  O122  1  0.24307902  0.92375317  0.26712906  1  -1.165464  0  -0.358702  -0.601791  0  2.264704  0
O  O123  1  0.92470124  0.24195264  0.57522421  1  -1.159919  0  -0.357885  -0.600845  0  2.26398  0
O  O124  1  0.81526363  0.06999712  0.55772985  1  -1.245529  0  -0.692862  -1.073198  0  2.357917  0
O  O125  1  0.05703924  0.06314067  0.56445812  1  -1.248703  0  -0.692804  -1.072416  0  2.357558  0
O  O126  1  0.06392397  0.05966898  0.32076776  1  -1.233428  0  -0.695067  -1.072157  0  2.374507  0
O  O127  1  0.05592907  0.82652275  0.55315798  1  -1.221284  0  -0.695496  -1.073173  0  2.372544  0
O  O128  1  0.13234831  0.95699008  0.45632174  1  -1.199861  0  -0.788479  -1.149817  0  2.123703  0
O  O129  1  0.95426673  0.96240126  0.45100171  1  -1.200635  0  -0.788647  -1.149066  0  2.121297  0
O  O130  1  0.95528982  0.13650448  0.45871356  1  -1.198996  0  -0.78979  -1.149653  0  2.126271  0
O  O131  1  0.94972151  0.96398761  0.63068128  1  -1.199211  0  -0.78977  -1.149662  0  2.125906  0
O  O132  1  0.83935802  0.41021736  0.63981259  1  -1.111306  0  -0.330883  -0.399351  0  2.278861  0
O  O133  1  0.13688926  0.61900232  0.33758548  1  -1.094299  0  -0.331518  -0.399273  0  2.279705  0
O  O134  1  0.40599811  0.84376992  0.11385712  1  -1.120161  0  -0.331164  -0.398653  0  2.279581  0
O  O135  1  0.61160382  0.14478837  0.90464613  1  -1.108716  0  -0.331157  -0.399134  0  2.278374  0
O  O136  1  0.12944350  0.84631538  0.89557797  1  -1.098316  0  -0.329584  -0.396567  0  2.280243  0
O  O137  1  0.84578289  0.14419156  0.12212225  1  -1.128462  0  -0.325689  -0.390715  0  2.294534  0
O  O138  1  0.38762776  0.62882668  0.63772809  1  -1.083049  0  -0.325923  -0.391495  0  2.294785  0
O  O139  1  0.62965352  0.40114794  0.34076010  1  -1.080064  0  -0.329426  -0.397366  0  2.282077  0
O  O140  1  0.39525921  0.13332874  0.34880187  1  -1.11326  0  -0.330083  -0.398374  0  2.292219  0
O  O141  1  0.62109185  0.85641242  0.62859266  1  -1.105296  0  -0.330289  -0.39839  0  2.287926  0
