# generated using pymatgen
data_CdH12C13N2O5
_symmetry_space_group_name_H-M   'P 1'
_cell_length_a   10.38884320
_cell_length_b   10.90665530
_cell_length_c   12.97370000
_cell_angle_alpha   90.00000000
_cell_angle_beta   90.00000000
_cell_angle_gamma   113.53479021
_symmetry_Int_Tables_number   1
_chemical_formula_structural   CdH12C13N2O5
_chemical_formula_sum   'Cd4 H48 C52 N8 O20'
_cell_volume   1347.73857557
_cell_formula_units_Z   4
loop_
 _symmetry_equiv_pos_site_id
 _symmetry_equiv_pos_as_xyz
  1  'x, y, z'
loop_
 _atom_site_type_symbol
 _atom_site_label
 _atom_site_symmetry_multiplicity
 _atom_site_fract_x
 _atom_site_fract_y
 _atom_site_fract_z
 _atom_site_occupancy
 _atom_site_hle17_bader_spin_density
 _atom_site_hle17_ddec_charge
 _atom_site_hle17_ddec_spin_density
 _atom_site_hle17_ddec_sum_bond_order
 _atom_site_hle17_magmom
 _atom_site_hse06_10hf_bader_spin_density
 _atom_site_hse06_10hf_ddec_charge
 _atom_site_hse06_10hf_ddec_spin_density
 _atom_site_hse06_10hf_ddec_sum_bond_order
 _atom_site_hse06_10hf_magmom
 _atom_site_hse06_bader_spin_density
 _atom_site_hse06_ddec_charge
 _atom_site_hse06_ddec_spin_density
 _atom_site_hse06_ddec_sum_bond_order
 _atom_site_hse06_magmom
 _atom_site_pbe_bader_charge
 _atom_site_pbe_bader_spin_density
 _atom_site_pbe_cm5_charge
 _atom_site_pbe_ddec_charge
 _atom_site_pbe_ddec_spin_density
 _atom_site_pbe_ddec_sum_bond_order
 _atom_site_pbe_magmom
Cd  Cd0  1  0.16992540  0.47335367  0.01356668  1  0  1.213766  0  1.623022  0  0  1.019122  0  2.078327  0  0  1.07957  0  2.019001  0  1.30527  0  0.77863  0.974021  0  2.121001  0
Cd  Cd1  1  0.83007513  0.52664578  0.51356668  1  0  1.213788  0  1.622982  0  0  1.019148  0  2.078279  0  0  1.079598  0  2.018954  0  1.305276  0  0.77865  0.974048  0  2.120953  0
Cd  Cd2  1  0.31258135  0.61304083  0.70319878  1  0  1.281344  0  1.6148  0  0  1.111736  0  2.072842  0  0  1.162644  0  2.015159  0  1.358979  0  0.796041  1.075531  0  2.112547  0
Cd  Cd3  1  0.68741821  0.38695862  0.20319878  1  0  1.28134  0  1.614806  0  0  1.11173  0  2.072856  0  0  1.16264  0  2.01517  0  1.358962  0  0.796049  1.075526  0  2.112562  0
H  H4  1  0.08879682  0.62948079  0.82912508  1  0  0.425622  0  0.880443  0  0  0.391609  0  0.949812  0  0  0.402869  0  0.933492  0  0.653792  0  0.287303  0.383688  0  0.961259  0
H  H5  1  0.91120455  0.37052066  0.32912508  1  0  0.425606  0  0.880456  0  0  0.391636  0  0.949764  0  0  0.402894  0  0.933447  0  0.653751  0  0.287316  0.383713  0  0.961212  0
H  H6  1  0.06932142  0.67505345  0.71248449  1  0  0.42907  0  0.87221  0  0  0.395818  0  0.940128  0  0  0.406538  0  0.92463  0  0.653548  0  0.289174  0.388316  0  0.950933  0
H  H7  1  0.93067857  0.32494699  0.21248449  1  0  0.429082  0  0.872193  0  0  0.395833  0  0.940107  0  0  0.406553  0  0.924609  0  0.653549  0  0.289177  0.388331  0  0.950912  0
H  H8  1  0.61008996  0.64892993  0.65394298  1  0  0.426049  0  0.875668  0  0  0.397797  0  0.935945  0  0  0.407351  0  0.92232  0  0.63801  0  0.291071  0.391201  0  0.945283  0
H  H9  1  0.38990960  0.35106952  0.15394375  1  0  0.426039  0  0.875679  0  0  0.397782  0  0.935966  0  0  0.407336  0  0.922341  0  0.638086  0  0.291064  0.391186  0  0.945304  0
H  H10  1  0.51940219  0.53030299  0.58888521  1  0  0.41884  0  0.888343  0  0  0.388544  0  0.952601  0  0  0.399549  0  0.936367  0  0.643185  0  0.287123  0.380671  0  0.964191  0
H  H11  1  0.48059780  0.46969745  0.08888598  1  0  0.418706  0  0.888533  0  0  0.388447  0  0.952718  0  0  0.399448  0  0.936492  0  0.643191  0  0.287083  0.380573  0  0.964309  0
H  H12  1  0.09205822  0.99937941  0.53872835  1  0  0.08877  0  0.96315  0  0  0.101685  0  1.022094  0  0  0.104085  0  1.021588  0  0.069089  0  0.099723  0.099998  0  1.022479  0
H  H13  1  0.90794273  0.00062104  0.03872835  1  0  0.088757  0  0.963181  0  0  0.101672  0  1.022123  0  0  0.104075  0  1.02162  0  0.069093  0  0.099715  0.099984  0  1.022513  0
H  H14  1  0.19656938  0.23073649  0.61175840  1  0  0.097672  0  0.970627  0  0  0.105187  0  1.036801  0  0  0.107868  0  1.036055  0  0.09058  0  0.099295  0.103146  0  1.037724  0
H  H15  1  0.80343061  0.76926396  0.11175763  1  0  0.097658  0  0.970592  0  0  0.105171  0  1.03677  0  0  0.107853  0  1.036023  0  0.090579  0  0.099283  0.10313  0  1.037692  0
H  H16  1  0.95852045  0.09146735  0.88875417  1  0  0.100027  0  0.96159  0  0  0.109106  0  1.027314  0  0  0.11312  0  1.023731  0  0.080103  0  0.101504  0.106188  0  1.029943  0
H  H17  1  0.04147816  0.90853210  0.38875417  1  0  0.100042  0  0.961603  0  0  0.109122  0  1.027325  0  0  0.113139  0  1.023742  0  0.080102  0  0.101511  0.106203  0  1.029955  0
H  H18  1  0.64046170  0.83647989  0.81791008  1  0  0.098734  0  0.952655  0  0  0.106053  0  1.02257  0  0  0.11025  0  1.018999  0  0.08528  0  0.102857  0.103324  0  1.024544  0
H  H19  1  0.35953800  0.16351756  0.31790931  1  0  0.098714  0  0.952713  0  0  0.106029  0  1.022628  0  0  0.110227  0  1.019056  0  0.085244  0  0.102844  0.1033  0  1.024602  0
H  H20  1  0.62901494  0.49307982  0.98773827  1  0  0.093327  0  0.979239  0  0  0.102465  0  1.048394  0  0  0.106478  0  1.044454  0  0.081659  0  0.106983  0.099513  0  1.051562  0
H  H21  1  0.37098518  0.50691863  0.48773750  1  0  0.093341  0  0.979153  0  0  0.102484  0  1.048307  0  0  0.106496  0  1.044367  0  0.08171  0  0.10698  0.099533  0  1.051474  0
H  H22  1  0.02077502  0.77803847  0.87398583  1  0  0.098157  0  0.988174  0  0  0.107564  0  1.054412  0  0  0.111475  0  1.051298  0  0.054824  0  0.106051  0.104894  0  1.056277  0
H  H23  1  0.97922455  0.22196097  0.37398583  1  0  0.098143  0  0.988184  0  0  0.107553  0  1.054414  0  0  0.11146  0  1.051309  0  0.054821  0  0.106045  0.104884  0  1.056279  0
H  H24  1  0.45760304  0.63930837  0.17189237  1  0  0.101388  0  0.947183  0  0  0.112218  0  1.009245  0  0  0.114796  0  1.005762  0  0.165709  0  0.135272  0.110078  0  1.012158  0
H  H25  1  0.54239791  0.36069208  0.67189237  1  0  0.101377  0  0.947202  0  0  0.112235  0  1.009227  0  0  0.114812  0  1.005743  0  0.16572  0  0.135281  0.110094  0  1.01214  0
H  H26  1  0.04667566  0.62398147  0.19590479  1  0  0.103915  0  0.969285  0  0  0.113229  0  1.031021  0  0  0.115175  0  1.030425  0  0.114208  0  0.115075  0.111738  0  1.031692  0
H  H27  1  0.95332432  0.37601898  0.69590479  1  0  0.103914  0  0.969283  0  0  0.113228  0  1.031019  0  0  0.115174  0  1.030423  0  0.11421  0  0.115077  0.111738  0  1.03169  0
H  H28  1  0.20057336  0.75562716  0.36784880  1  0  0.121413  0  0.954211  0  0  0.130748  0  1.016626  0  0  0.133423  0  1.015599  0  0.145992  0  0.122833  0.128708  0  1.01756  0
H  H29  1  0.79942621  0.24437228  0.86784880  1  0  0.121419  0  0.954199  0  0  0.130763  0  1.016601  0  0  0.133441  0  1.015573  0  0.14599  0  0.12283  0.128722  0  1.017536  0
H  H30  1  0.54380620  0.71700391  0.35869413  1  0  0.087142  0  0.901935  0  0  0.107357  0  0.954913  0  0  0.107594  0  0.955353  0  0.069735  0  0.115786  0.107  0  0.954823  0
H  H31  1  0.45619379  0.28299654  0.85869336  1  0  0.087154  0  0.901926  0  0  0.107363  0  0.954908  0  0  0.1076  0  0.955349  0  0.069786  0  0.115796  0.107005  0  0.954816  0
H  H32  1  0.44110273  0.77912654  0.43418840  1  0  0.071903  0  0.973071  0  0  0.085014  0  1.041311  0  0  0.085063  0  1.04289  0  0.087462  0  0.108991  0.084853  0  1.040376  0
H  H33  1  0.55889684  0.22087291  0.93418840  1  0  0.071924  0  0.973057  0  0  0.085032  0  1.041298  0  0  0.085081  0  1.042877  0  0.087116  0  0.108999  0.084869  0  1.040362  0
H  H34  1  0.51636080  0.98300845  0.31404534  1  0  0.070958  0  0.929314  0  0  0.089493  0  0.989908  0  0  0.090151  0  0.990395  0  0.038281  0  0.090967  0.08907  0  0.989354  0
H  H35  1  0.48363919  0.01699199  0.81404534  1  0  0.070971  0  0.929307  0  0  0.089504  0  0.989903  0  0  0.090161  0  0.990391  0  0.038292  0  0.090974  0.089082  0  0.98935  0
H  H36  1  0.61593466  0.91446045  0.24310104  1  0  0.066681  0  0.949479  0  0  0.082442  0  1.015328  0  0  0.082278  0  1.017585  0  0.055452  0  0.089061  0.082439  0  1.013906  0
H  H37  1  0.38406533  0.08554000  0.74310104  1  0  0.066662  0  0.949514  0  0  0.082434  0  1.015347  0  0  0.08227  0  1.017605  0  0.055449  0  0.089061  0.082432  0  1.013927  0
H  H38  1  0.74510516  0.91959975  0.42195056  1  0  0.074973  0  0.932511  0  0  0.093564  0  0.991575  0  0  0.093798  0  0.993105  0  0.013959  0  0.092614  0.09324  0  0.990695  0
H  H39  1  0.25489344  0.08039970  0.92194979  1  0  0.074971  0  0.932513  0  0  0.093561  0  0.991576  0  0  0.093795  0  0.993107  0  0.013974  0  0.09262  0.093238  0  0.990695  0
H  H40  1  0.79178013  0.06314669  0.34363828  1  0  0.081395  0  0.95034  0  0  0.100129  0  1.010426  0  0  0.100177  0  1.011833  0  0.036797  0  0.09586  0.099861  0  1.009756  0
H  H41  1  0.20821944  0.93685276  0.84363828  1  0  0.081398  0  0.950328  0  0  0.100127  0  1.010422  0  0  0.100174  0  1.011831  0  0.03679  0  0.095855  0.099859  0  1.009753  0
H  H42  1  0.77360163  0.11246057  0.53098191  1  0  0.082424  0  0.907574  0  0  0.098541  0  0.965747  0  0  0.098868  0  0.96637  0  0.070011  0  0.111931  0.098301  0  0.965302  0
H  H43  1  0.22639878  0.88754087  0.03098191  1  0  0.082432  0  0.90758  0  0  0.098525  0  0.965774  0  0  0.098846  0  0.966397  0  0.070016  0  0.111931  0.098285  0  0.965328  0
H  H44  1  0.66424862  0.16028937  0.44960035  1  0  0.099826  0  0.933953  0  0  0.114266  0  0.996446  0  0  0.115551  0  0.995725  0  0.107041  0  0.113496  0.11317  0  0.997263  0
H  H45  1  0.33574998  0.83971008  0.94959957  1  0  0.099843  0  0.933904  0  0  0.114284  0  0.996393  0  0  0.115565  0  0.99567  0  0.107045  0  0.113499  0.113188  0  0.99721  0
H  H46  1  0.63325047  0.85766513  0.61401605  1  0  0.101087  0  0.96725  0  0  0.106924  0  1.037248  0  0  0.110288  0  1.033243  0  0.177691  0  0.13181  0.103956  0  1.040918  0
H  H47  1  0.36674994  0.14233632  0.11401528  1  0  0.101097  0  0.967235  0  0  0.106929  0  1.037242  0  0  0.110292  0  1.033239  0  0.17761  0  0.131811  0.103961  0  1.04091  0
H  H48  1  0.40971079  0.07197121  0.48764115  1  0  0.113106  0  0.966726  0  0  0.122224  0  1.031016  0  0  0.124129  0  1.030932  0  0.113132  0  0.120722  0.120705  0  1.031206  0
H  H49  1  0.59028878  0.92802824  0.98764115  1  0  0.113099  0  0.96672  0  0  0.12222  0  1.031007  0  0  0.124127  0  1.030922  0  0.113122  0  0.120719  0.120701  0  1.031198  0
H  H50  1  0.22358112  0.85018869  0.59678966  1  0  0.114177  0  0.969289  0  0  0.120994  0  1.032956  0  0  0.123645  0  1.031797  0  0.164251  0  0.117373  0.118712  0  1.034432  0
H  H51  1  0.77641845  0.14981076  0.09678966  1  0  0.114228  0  0.969217  0  0  0.121015  0  1.032926  0  0  0.123666  0  1.031768  0  0.164242  0  0.117384  0.118734  0  1.034402  0
C  C52  1  0.92877010  0.93852385  0.77368831  1  0  0.023503  0  3.771636  0  0  0.033625  0  4.007059  0  0  0.032262  0  4.031536  0  -0.056356  0  -0.007934  0.034272  0  3.990734  0
C  C53  1  0.07123001  0.06147459  0.27368754  1  0  0.023445  0  3.771684  0  0  0.033576  0  4.007112  0  0  0.032211  0  4.031589  0  -0.056346  0  -0.007959  0.034223  0  3.990787  0
C  C54  1  0.96715805  0.91463146  0.67383245  1  0  -0.07665  0  3.721867  0  0  -0.06295  0  3.960213  0  0  -0.065771  0  3.978103  0  -0.046689  0  -0.009771  -0.061243  0  3.948773  0
C  C55  1  0.03284248  0.08536799  0.17383245  1  0  -0.07659  0  3.721818  0  0  -0.062909  0  3.960178  0  0  -0.065726  0  3.978069  0  -0.046685  0  -0.009768  -0.061202  0  3.948739  0
C  C56  1  0.06324792  0.01932513  0.61576343  1  0  -0.0911  0  3.763562  0  0  -0.111549  0  4.013653  0  0  -0.114049  0  4.033706  0  -0.123223  0  -0.091989  -0.109815  0  4.000156  0
C  C57  1  0.93675165  0.98067432  0.11576343  1  0  -0.091105  0  3.763642  0  0  -0.111543  0  4.013731  0  0  -0.114051  0  4.033792  0  -0.123224  0  -0.091983  -0.109811  0  4.000234  0
C  C58  1  0.12106409  0.14828067  0.65570115  1  0  -0.063768  0  3.745933  0  0  -0.088681  0  3.994446  0  0  -0.087291  0  4.013303  0  0.084459  0  -0.086595  -0.089748  0  3.981955  0
C  C59  1  0.87893590  0.85171978  0.15570115  1  0  -0.063754  0  3.745936  0  0  -0.088666  0  3.994447  0  0  -0.087276  0  4.013305  0  0.084458  0  -0.086583  -0.089733  0  3.981955  0
C  C60  1  0.08159313  0.17375716  0.75377726  1  0  -0.066347  0  3.770038  0  0  -0.042884  0  4.004055  0  0  -0.050541  0  4.025858  0  -0.061331  0  -0.021795  -0.037844  0  3.9894  0
C  C61  1  0.91840547  0.82624229  0.25377726  1  0  -0.066356  0  3.769996  0  0  -0.042898  0  4.004014  0  0  -0.050555  0  4.025816  0  -0.061355  0  -0.021806  -0.037857  0  3.989358  0
C  C62  1  0.98529966  0.06895003  0.81185090  1  0  -0.108814  0  3.725114  0  0  -0.142893  0  3.977363  0  0  -0.142424  0  3.995938  0  0.011841  0  -0.082605  -0.14282  0  3.964455  0
C  C63  1  0.01469853  0.93104842  0.31185090  1  0  -0.108838  0  3.725189  0  0  -0.142916  0  3.977426  0  0  -0.142447  0  3.996001  0  0.011839  0  -0.082605  -0.142843  0  3.964517  0
C  C64  1  0.84116644  0.82146301  0.83799918  1  0  0.049127  0  3.786448  0  0  0.068204  0  4.024111  0  0  0.065544  0  4.049073  0  -0.091289  0  -0.007408  0.069781  0  4.006975  0
C  C65  1  0.15883409  0.17853643  0.33799918  1  0  0.049183  0  3.78637  0  0  0.068239  0  4.024061  0  0  0.06558  0  4.049023  0  -0.091273  0  -0.00741  0.069817  0  4.006924  0
C  C66  1  0.69631925  0.78001159  0.85148724  1  0  -0.106135  0  3.695888  0  0  -0.138865  0  3.941017  0  0  -0.137562  0  3.959303  0  -0.009612  0  -0.080974  -0.138822  0  3.927924  0
C  C67  1  0.30368182  0.21998686  0.35148724  1  0  -0.106151  0  3.695911  0  0  -0.138871  0  3.94103  0  0  -0.137575  0  3.959309  0  -0.009607  0  -0.080977  -0.138824  0  3.927942  0
C  C68  1  0.61973281  0.66254572  0.90648235  1  0  -0.0691  0  3.771724  0  0  -0.039921  0  4.00324  0  0  -0.049019  0  4.026483  0  -0.034  0  -0.021944  -0.034461  0  3.988223  0
C  C69  1  0.38026663  0.33745572  0.40648157  1  0  -0.069079  0  3.771742  0  0  -0.039886  0  4.003248  0  0  -0.048962  0  4.026459  0  -0.033992  0  -0.021922  -0.034441  0  3.98825  0
C  C70  1  0.68809079  0.58626727  0.94771191  1  0  -0.061709  0  3.703573  0  0  -0.1007  0  3.947926  0  0  -0.097577  0  3.96554  0  -0.031428  0  -0.076278  -0.103335  0  3.937528  0
C  C71  1  0.31190794  0.41373018  0.44771114  1  0  -0.061748  0  3.703583  0  0  -0.100756  0  3.947948  0  0  -0.097639  0  3.965556  0  -0.031457  0  -0.076289  -0.103385  0  3.937553  0
C  C72  1  0.83274108  0.62784370  0.93717598  1  0  -0.062256  0  3.767115  0  0  -0.034034  0  4.001152  0  0  -0.042249  0  4.022877  0  -0.028179  0  -0.017596  -0.029016  0  3.987025  0
C  C73  1  0.16725807  0.37215475  0.43717598  1  0  -0.062223  0  3.767096  0  0  -0.033995  0  4.001124  0  0  -0.04221  0  4.022848  0  -0.028163  0  -0.017561  -0.028978  0  3.986997  0
C  C74  1  0.90787004  0.74532756  0.88252850  1  0  -0.097249  0  3.680077  0  0  -0.132515  0  3.923969  0  0  -0.131092  0  3.94197  0  0.033454  0  -0.077591  -0.132783  0  3.911039  0
C  C75  1  0.09212911  0.25467088  0.38252773  1  0  -0.097259  0  3.680042  0  0  -0.132514  0  3.923927  0  0  -0.131092  0  3.941927  0  0.033444  0  -0.077585  -0.132782  0  3.910997  0
C  C76  1  0.89931606  0.77841850  0.62638338  1  0  0.662773  0  3.926463  0  0  0.605393  0  4.229778  0  0  0.63894  0  4.222696  0  1.578638  0  0.207847  0.582758  0  4.233468  0
C  C77  1  0.10068490  0.22158195  0.12638338  1  0  0.662834  0  3.926457  0  0  0.605469  0  4.229749  0  0  0.639015  0  4.222669  0  1.578648  0  0.207887  0.582834  0  4.233441  0
C  C78  1  0.14396568  0.31298929  0.79700086  1  0  0.665785  0  3.928819  0  0  0.613752  0  4.222299  0  0  0.649959  0  4.212943  0  1.572661  0  0.209073  0.589098  0  4.227942  0
C  C79  1  0.85603389  0.68701015  0.29700008  1  0  0.665826  0  3.928708  0  0  0.613795  0  4.222187  0  0  0.650003  0  4.212829  0  1.572645  0  0.209109  0.58914  0  4.227829  0
C  C80  1  0.46494330  0.61882817  0.92194594  1  0  0.655948  0  3.921594  0  0  0.600859  0  4.214656  0  0  0.635725  0  4.207621  0  1.579692  0  0.206556  0.577358  0  4.218212  0
C  C81  1  0.53505819  0.38117128  0.42194594  1  0  0.655901  0  3.921512  0  0  0.6008  0  4.214586  0  0  0.63566  0  4.207547  0  1.579722  0  0.206537  0.577303  0  4.218143  0
C  C82  1  0.90754422  0.54900909  0.98517231  1  0  0.669654  0  3.897934  0  0  0.614603  0  4.193665  0  0  0.649687  0  4.186267  0  1.582384  0  0.211989  0.590801  0  4.197866  0
C  C83  1  0.09245631  0.45099036  0.48517154  1  0  0.669626  0  3.897907  0  0  0.614585  0  4.193637  0  0  0.649669  0  4.186236  0  1.582375  0  0.211974  0.590783  0  4.197837  0
C  C84  1  0.36666708  0.65540231  0.19835436  1  0  0.163965  0  3.665986  0  0  0.102632  0  3.927551  0  0  0.116623  0  3.941241  0  0.965841  0  0.136603  0.093515  0  3.918094  0
C  C85  1  0.63333387  0.34459814  0.69835436  1  0  0.163987  0  3.666016  0  0  0.102636  0  3.927573  0  0  0.116628  0  3.941262  0  0.965991  0  0.13661  0.09352  0  3.918115  0
C  C86  1  0.15572232  0.64958797  0.21532947  1  0  0.001896  0  3.764181  0  0  -0.032639  0  4.031982  0  0  -0.030601  0  4.053658  0  0.39843  0  -0.009062  -0.034161  0  4.017449  0
C  C87  1  0.84427767  0.35041248  0.71532947  1  0  0.001911  0  3.764152  0  0  -0.032622  0  4.031953  0  0  -0.030583  0  4.053627  0  0.398437  0  -0.009049  -0.034144  0  4.017421  0
C  C88  1  0.23083285  0.71524480  0.30025821  1  0  -0.06281  0  3.665701  0  0  -0.104382  0  3.923644  0  0  -0.103396  0  3.943455  0  0.286506  0  -0.002005  -0.104916  0  3.910231  0
C  C89  1  0.76916672  0.28475464  0.80025821  1  0  -0.06282  0  3.665679  0  0  -0.1044  0  3.923614  0  0  -0.103417  0  3.943427  0  0.286512  0  -0.002007  -0.104933  0  3.910201  0
C  C90  1  0.48414204  0.78062562  0.35696833  1  0  -0.00467  0  3.620907  0  0  -0.068221  0  3.881338  0  0  -0.063851  0  3.892542  0  0.282732  0  -0.052928  -0.071124  0  3.873906  0
C  C91  1  0.51585795  0.21937482  0.85696756  1  0  -0.004689  0  3.62089  0  0  -0.068226  0  3.881299  0  0  -0.063859  0  3.892505  0  0.283026  0  -0.052928  -0.071119  0  3.873859  0
C  C92  1  0.57878081  0.92211689  0.32121292  1  0  -0.119824  0  3.660373  0  0  -0.161605  0  3.923565  0  0  -0.162764  0  3.937554  0  -0.044989  0  -0.163849  -0.160727  0  3.913813  0
C  C93  1  0.42121959  0.07788455  0.82121292  1  0  -0.119821  0  3.660389  0  0  -0.16161  0  3.923574  0  0  -0.162763  0  3.937556  0  -0.044987  0  -0.163865  -0.16074  0  3.91383  0
C  C94  1  0.70664693  0.99285503  0.39096634  1  0  -0.125272  0  3.649008  0  0  -0.164933  0  3.906669  0  0  -0.166811  0  3.921536  0  0.023604  0  -0.16105  -0.163333  0  3.896295  0
C  C95  1  0.29335264  0.00714442  0.89096634  1  0  -0.125303  0  3.649042  0  0  -0.164957  0  3.906684  0  0  -0.166842  0  3.921546  0  0.02359  0  -0.161066  -0.163357  0  3.896312  0
C  C96  1  0.68211421  0.07421834  0.47949390  1  0  -0.003191  0  3.592967  0  0  -0.06459  0  3.85174  0  0  -0.060324  0  3.862103  0  0.271269  0  -0.052341  -0.067468  0  3.844497  0
C  C97  1  0.31788577  0.92578211  0.97949390  1  0  -0.003193  0  3.592971  0  0  -0.064566  0  3.851724  0  0  -0.060279  0  3.862063  0  0.271329  0  -0.05233  -0.067445  0  3.844482  0
C  C98  1  0.54580213  0.88604179  0.59893091  1  0  0.149867  0  3.665956  0  0  0.091503  0  3.930806  0  0  0.104898  0  3.94326  0  0.920331  0  0.137162  0.082911  0  3.922494  0
C  C99  1  0.45419924  0.11395966  0.09893014  1  0  0.149794  0  3.666027  0  0  0.091432  0  3.930884  0  0  0.104826  0  3.943338  0  0.920402  0  0.137116  0.08284  0  3.922571  0
C  C100  1  0.42618147  0.99459513  0.53111526  1  0  -0.077746  0  3.685765  0  0  -0.116661  0  3.944133  0  0  -0.11582  0  3.963622  0  0.286734  0  6.3e-05  -0.116853  0  3.93058  0
C  C101  1  0.57381906  0.00540432  0.03111526  1  0  -0.077687  0  3.685631  0  0  -0.116605  0  3.943998  0  0  -0.115765  0  3.963486  0  0.286754  0  9.1e-05  -0.116796  0  3.930444  0
C  C102  1  0.33615758  0.88569177  0.58546136  1  0  0.004202  0  3.749331  0  0  -0.028235  0  4.015977  0  0  -0.02565  0  4.035486  0  0.38532  0  -0.002759  -0.029661  0  4.002619  0
C  C103  1  0.66384295  0.11430768  0.08546059  1  0  0.004061  0  3.749226  0  0  -0.028356  0  4.015898  0  0  -0.02577  0  4.035406  0  0.385269  0  -0.002818  -0.029782  0  4.00254  0
N  N104  1  0.24161699  0.61282782  0.15246846  1  0  -0.411742  0  3.278655  0  0  -0.334102  0  3.566444  0  0  -0.356786  0  3.584021  0  -1.204821  0  -0.364742  -0.318356  0  3.554009  0
N  N105  1  0.75838300  0.38717263  0.65246846  1  0  -0.411754  0  3.278613  0  0  -0.334117  0  3.566416  0  0  -0.356801  0  3.583992  0  -1.204842  0  -0.364765  -0.318372  0  3.553983  0
N  N106  1  0.36414989  0.71764194  0.28825624  1  0  -0.062846  0  3.579667  0  0  0.03369  0  3.797495  0  0  0.018868  0  3.824122  0  -1.24127  0  -0.243743  0.043487  0  3.779333  0
N  N107  1  0.63585010  0.28235850  0.78825547  1  0  -0.062865  0  3.57971  0  0  0.033665  0  3.79755  0  0  0.018842  0  3.824177  0  -1.241434  0  -0.243756  0.043459  0  3.779385  0
N  N108  1  0.55824064  0.99347506  0.54053662  1  0  -0.061473  0  3.564945  0  0  0.033897  0  3.781001  0  0  0.019537  0  3.807339  0  -1.208983  0  -0.244699  0.043432  0  3.762945  0
N  N109  1  0.44175935  0.00652538  0.04053585  1  0  -0.06148  0  3.564972  0  0  0.033889  0  3.781023  0  0  0.019526  0  3.80735  0  -1.20899  0  -0.244706  0.043424  0  3.762966  0
N  N110  1  0.41227188  0.81890086  0.62728058  1  0  -0.414849  0  3.269638  0  0  -0.339685  0  3.555705  0  0  -0.361314  0  3.572304  0  -1.21205  0  -0.36091  -0.324982  0  3.543936  0
N  N111  1  0.58772962  0.18109858  0.12727980  1  0  -0.414742  0  3.269734  0  0  -0.339571  0  3.555782  0  0  -0.361202  0  3.572383  0  -1.212057  0  -0.360841  -0.324869  0  3.544013  0
O  O112  1  0.77388045  0.74147534  0.59648057  1  0  -0.638675  0  1.969159  0  0  -0.581  0  2.197884  0  0  -0.607774  0  2.189083  0  -1.191985  0  -0.314284  -0.562037  0  2.203346  0
O  O113  1  0.22612008  0.25852411  0.09648057  1  0  -0.638703  0  1.969163  0  0  -0.581049  0  2.197905  0  0  -0.607822  0  2.189106  0  -1.192007  0  -0.314293  -0.562085  0  2.203364  0
O  O114  1  0.97308779  0.70919445  0.61483694  1  0  -0.649763  0  2.026384  0  0  -0.57338  0  2.268266  0  0  -0.603352  0  2.256468  0  -1.154991  0  -0.311639  -0.552101  0  2.27593  0
O  O115  1  0.02691316  0.29080600  0.11483694  1  0  -0.649803  0  2.026388  0  0  -0.573412  0  2.268256  0  0  -0.603383  0  2.256457  0  -1.154978  0  -0.31167  -0.552134  0  2.275921  0
O  O116  1  0.24512887  0.39825928  0.74629134  1  0  -0.669866  0  2.044522  0  0  -0.602702  0  2.305525  0  0  -0.631504  0  2.291958  0  -1.175221  0  -0.339811  -0.582544  0  2.314185  0
O  O117  1  0.75487069  0.60174017  0.24629134  1  0  -0.66987  0  2.044494  0  0  -0.602705  0  2.305484  0  0  -0.631507  0  2.291914  0  -1.17522  0  -0.339823  -0.582547  0  2.314143  0
O  O118  1  0.08940415  0.33254544  0.87957560  1  0  -0.646479  0  2.047558  0  0  -0.578584  0  2.309329  0  0  -0.607623  0  2.29605  0  -1.166632  0  -0.328369  -0.558175  0  2.31814  0
O  O119  1  0.91059680  0.66745501  0.37957560  1  0  -0.646511  0  2.04756  0  0  -0.578609  0  2.309319  0  0  -0.607651  0  2.296042  0  -1.166622  0  -0.328384  -0.558201  0  2.31813  0
O  O120  1  0.39971948  0.67791762  0.87402052  1  0  -0.669492  0  2.003203  0  0  -0.61018  0  2.263884  0  0  -0.63527  0  2.249228  0  -1.19402  0  -0.333371  -0.592169  0  2.273904  0
O  O121  1  0.60028201  0.32208182  0.37401898  1  0  -0.669467  0  2.003099  0  0  -0.610148  0  2.263773  0  0  -0.63524  0  2.249118  0  -1.194066  0  -0.333366  -0.592137  0  2.273792  0
O  O122  1  0.40637350  0.52355060  0.98631000  1  0  -0.658453  0  2.082948  0  0  -0.582079  0  2.3302  0  0  -0.612428  0  2.318421  0  -1.162934  0  -0.314372  -0.55957  0  2.336988  0
O  O123  1  0.59362553  0.47644985  0.48630845  1  0  -0.658447  0  2.082964  0  0  -0.582048  0  2.330217  0  0  -0.612398  0  2.318438  0  -1.162939  0  -0.31437  -0.559538  0  2.337004  0
O  O124  1  0.84806534  0.46304606  0.05356606  1  0  -0.649807  0  1.971037  0  0  -0.593904  0  2.227326  0  0  -0.620169  0  2.215323  0  -1.186953  0  -0.325638  -0.575409  0  2.234885  0
O  O125  1  0.15193519  0.53695338  0.55356606  1  0  -0.649805  0  1.970954  0  0  -0.593906  0  2.227249  0  0  -0.620172  0  2.215248  0  -1.186935  0  -0.325649  -0.575411  0  2.234807  0
O  O126  1  0.03320608  0.57772677  0.95178631  1  0  -0.669314  0  2.059884  0  0  -0.588847  0  2.309753  0  0  -0.619966  0  2.296831  0  -1.169084  0  -0.322136  -0.566569  0  2.318332  0
O  O127  1  0.96679446  0.42227268  0.45178631  1  0  -0.66927  0  2.059906  0  0  -0.588834  0  2.309783  0  0  -0.619952  0  2.296861  0  -1.169028  0  -0.32212  -0.566555  0  2.318364  0
O  O128  1  0.13809266  0.67143324  0.76415209  1  0  -0.856854  0  1.88  0  0  -0.792222  0  2.086631  0  0  -0.815247  0  2.051414  0  -1.277613  0  -0.591452  -0.776067  0  2.110899  0
O  O129  1  0.86190733  0.32856720  0.26415209  1  0  -0.856859  0  1.88001  0  0  -0.79227  0  2.086592  0  0  -0.815292  0  2.051375  0  -1.277621  0  -0.591471  -0.776115  0  2.110861  0
O  O130  1  0.51472250  0.57696872  0.65374874  1  0  -0.852222  0  1.86531  0  0  -0.799067  0  2.062036  0  0  -0.82057  0  2.029091  0  -1.26428  0  -0.595198  -0.783645  0  2.084857  0
O  O131  1  0.48527707  0.42303072  0.15374951  1  0  -0.852089  0  1.865459  0  0  -0.798931  0  2.062163  0  0  -0.820434  0  2.029221  0  -1.264349  0  -0.595156  -0.783509  0  2.084984  0
