# generated using pymatgen
data_CdH11C16IN2O
_symmetry_space_group_name_H-M   'P 1'
_cell_length_a   8.67047376
_cell_length_b   9.02060767
_cell_length_c   10.16349216
_cell_angle_alpha   78.64143936
_cell_angle_beta   77.90859371
_cell_angle_gamma   77.54372111
_symmetry_Int_Tables_number   1
_chemical_formula_structural   CdH11C16IN2O
_chemical_formula_sum   'Cd2 H22 C32 I2 N4 O2'
_cell_volume   749.33521310
_cell_formula_units_Z   2
loop_
 _symmetry_equiv_pos_site_id
 _symmetry_equiv_pos_as_xyz
  1  'x, y, z'
loop_
 _atom_site_type_symbol
 _atom_site_label
 _atom_site_symmetry_multiplicity
 _atom_site_fract_x
 _atom_site_fract_y
 _atom_site_fract_z
 _atom_site_occupancy
 _atom_site_hle17_bader_spin_density
 _atom_site_hle17_ddec_charge
 _atom_site_hle17_ddec_spin_density
 _atom_site_hle17_ddec_sum_bond_order
 _atom_site_hle17_magmom
 _atom_site_hse06_10hf_bader_spin_density
 _atom_site_hse06_10hf_ddec_charge
 _atom_site_hse06_10hf_ddec_spin_density
 _atom_site_hse06_10hf_ddec_sum_bond_order
 _atom_site_hse06_10hf_magmom
 _atom_site_hse06_bader_spin_density
 _atom_site_hse06_ddec_charge
 _atom_site_hse06_ddec_spin_density
 _atom_site_hse06_ddec_sum_bond_order
 _atom_site_hse06_magmom
 _atom_site_pbe_bader_spin_density
 _atom_site_pbe_cm5_charge
 _atom_site_pbe_ddec_charge
 _atom_site_pbe_ddec_spin_density
 _atom_site_pbe_ddec_sum_bond_order
 _atom_site_pbe_magmom
Cd  Cd0  1  0.58639928  0.06955623  0.32525537  1  0  0.961621  0  1.922202  0  0  0.778463  0  2.382935  0  0  0.831648  0  2.336776  0  0  0.655468  0.740715  0  2.412736  0
Cd  Cd1  1  0.41360040  0.93044539  0.67474438  1  0  0.961627  0  1.922211  0  0  0.778485  0  2.382925  0  0  0.831671  0  2.336764  0  0  0.655478  0.740733  0  2.412737  0
H  H2  1  0.75714209  0.94582165  0.77232901  1  0  0.098047  0  0.973509  0  0  0.106843  0  1.043153  0  0  0.109605  0  1.042677  0  0  0.086987  0.105053  0  1.043373  0
H  H3  1  0.24285660  0.05417884  0.22767210  1  0  0.098081  0  0.973472  0  0  0.106848  0  1.043152  0  0  0.109611  0  1.042675  0  0  0.086983  0.105065  0  1.043368  0
H  H4  1  0.97348089  0.06061765  0.81392290  1  0  0.07881  0  0.968537  0  0  0.08663  0  1.036863  0  0  0.089478  0  1.035107  0  0  0.085178  0.085383  0  1.036799  0
H  H5  1  0.02652665  0.93937356  0.18607446  1  0  0.078822  0  0.968535  0  0  0.086678  0  1.036828  0  0  0.089526  0  1.035074  0  0  0.085195  0.085431  0  1.036763  0
H  H6  1  0.09367976  0.25706576  0.64054750  1  0  0.085792  0  0.977202  0  0  0.092652  0  1.048809  0  0  0.095916  0  1.047617  0  0  0.086011  0.091181  0  1.048473  0
H  H7  1  0.90632752  0.74292663  0.35945263  1  0  0.08575  0  0.977252  0  0  0.092616  0  1.048858  0  0  0.095879  0  1.047668  0  0  0.085993  0.091146  0  1.048521  0
H  H8  1  0.09326349  0.42527690  0.40598949  1  0  0.093209  0  0.948123  0  0  0.106062  0  1.007705  0  0  0.108222  0  1.007075  0  0  0.103317  0.10458  0  1.008313  0
H  H9  1  0.90673220  0.57472706  0.59401248  1  0  0.093173  0  0.948063  0  0  0.106036  0  1.007637  0  0  0.108195  0  1.007007  0  0  0.103282  0.104554  0  1.008243  0
H  H10  1  0.99191653  0.48901095  0.18607703  1  0  0.103943  0  0.969945  0  0  0.114855  0  1.030461  0  0  0.117579  0  1.030532  0  0  0.100913  0.113473  0  1.02998  0
H  H11  1  0.00807986  0.51099533  0.81392735  1  0  0.103946  0  0.969874  0  0  0.114867  0  1.030403  0  0  0.117588  0  1.03047  0  0  0.100912  0.113483  0  1.029918  0
H  H12  1  0.75624064  0.23649879  0.08781109  1  0  0.083523  0  0.993703  0  0  0.092778  0  1.06477  0  0  0.0959  0  1.063042  0  0  0.091632  0.090345  0  1.066409  0
H  H13  1  0.24376063  0.76350053  0.91218979  1  0  0.083543  0  0.993612  0  0  0.092797  0  1.064689  0  0  0.095913  0  1.062982  0  0  0.091638  0.090363  0  1.066332  0
H  H14  1  0.77501770  0.57945640  0.06263582  1  0  0.093772  0  0.975052  0  0  0.104049  0  1.040803  0  0  0.107057  0  1.038973  0  0  0.089671  0.101341  0  1.043168  0
H  H15  1  0.22498622  0.42054172  0.93735991  1  0  0.093736  0  0.975039  0  0  0.10403  0  1.040781  0  0  0.107037  0  1.038952  0  0  0.089663  0.101326  0  1.043141  0
H  H16  1  0.71739031  0.26191094  0.88147795  1  0  0.102326  0  0.954914  0  0  0.112811  0  1.016756  0  0  0.115451  0  1.015078  0  0  0.105068  0.110056  0  1.020269  0
H  H17  1  0.28260964  0.73808949  0.11851803  1  0  0.102343  0  0.95489  0  0  0.112842  0  1.016718  0  0  0.115483  0  1.015037  0  0  0.105074  0.110089  0  1.020228  0
H  H18  1  0.60705319  0.32691449  0.66785233  1  0  0.100494  0  0.972677  0  0  0.10707  0  1.038211  0  0  0.109603  0  1.038691  0  0  0.102007  0.105017  0  1.038085  0
H  H19  1  0.39294256  0.67308943  0.33214570  1  0  0.100452  0  0.972682  0  0  0.107029  0  1.038218  0  0  0.109563  0  1.038694  0  0  0.101986  0.104978  0  1.03809  0
H  H20  1  0.51130838  0.60552337  0.57694132  1  0  0.076508  0  0.928451  0  0  0.088229  0  0.986867  0  0  0.090767  0  0.984697  0  0  0.114455  0.086306  0  0.988417  0
H  H21  1  0.48868948  0.39448170  0.42305811  1  0  0.076539  0  0.928455  0  0  0.088269  0  0.986863  0  0  0.090808  0  0.984692  0  0  0.114471  0.086345  0  0.988411  0
H  H22  1  0.62747229  0.74796229  0.90180553  1  0  0.07526  0  0.968377  0  0  0.082141  0  1.041483  0  0  0.085035  0  1.038774  0  0  0.101324  0.079483  0  1.043776  0
H  H23  1  0.37252939  0.25203475  0.09819668  1  0  0.075241  0  0.968379  0  0  0.082151  0  1.041461  0  0  0.085047  0  1.03875  0  0  0.101309  0.079494  0  1.043755  0
C  C24  1  0.75618150  0.06575043  0.56761335  1  0  0.279531  0  3.890104  0  0  0.2658  0  4.145454  0  0  0.279575  0  4.162848  0  0  0.07395  0.25804  0  4.130097  0
C  C25  1  0.24381841  0.93425004  0.43238559  1  0  0.279522  0  3.890055  0  0  0.265766  0  4.145428  0  0  0.279541  0  4.162824  0  0  0.073948  0.257992  0  4.130085  0
C  C26  1  0.81080916  0.02851129  0.69222389  1  0  -0.204943  0  3.737875  0  0  -0.226592  0  3.996927  0  0  -0.235279  0  4.019513  0  0  -0.119133  -0.220621  0  3.979088  0
C  C27  1  0.18919091  0.97148805  0.30777818  1  0  -0.204983  0  3.737933  0  0  -0.226598  0  3.996997  0  0  -0.235285  0  4.019584  0  0  -0.119137  -0.220629  0  3.979161  0
C  C28  1  0.93256924  0.09551240  0.71601233  1  0  -0.036026  0  3.824264  0  0  -0.051544  0  4.081717  0  0  -0.050622  0  4.104286  0  0  -0.096794  -0.049492  0  4.063674  0
C  C29  1  0.06743344  0.90448576  0.28398754  1  0  -0.036045  0  3.824219  0  0  -0.051592  0  4.081663  0  0  -0.050671  0  4.104233  0  0  -0.096781  -0.049536  0  4.06362  0
C  C30  1  0.00078137  0.20519306  0.61938720  1  0  -0.161437  0  3.781221  0  0  -0.186044  0  4.041351  0  0  -0.192049  0  4.065175  0  0  -0.117222  -0.18103  0  4.024863  0
C  C31  1  0.99921817  0.79480283  0.38061459  1  0  -0.16141  0  3.781109  0  0  -0.186022  0  4.041254  0  0  -0.192028  0  4.065075  0  0  -0.117242  -0.181009  0  4.024766  0
C  C32  1  0.94892220  0.24903147  0.49219577  1  0  0.035244  0  3.817533  0  0  0.051832  0  4.04876  0  0  0.050895  0  4.073446  0  0  -0.011777  0.050662  0  4.033653  0
C  C33  1  0.05107768  0.75096901  0.50780514  1  0  0.035286  0  3.817455  0  0  0.05184  0  4.048711  0  0  0.05091  0  4.07339  0  0  -0.011773  0.050663  0  4.03361  0
C  C34  1  0.83082804  0.17596099  0.46375098  1  0  0.088192  0  3.752774  0  0  0.085872  0  3.986563  0  0  0.087286  0  4.010276  0  0  0.095906  0.086145  0  3.969441  0
C  C35  1  0.16917184  0.82403950  0.53624992  1  0  0.088222  0  3.752715  0  0  0.085923  0  3.986483  0  0  0.087333  0  4.010198  0  0  0.095914  0.086205  0  3.969359  0
C  C36  1  0.00520854  0.36473023  0.38819953  1  0  -0.037485  0  3.699061  0  0  -0.060505  0  3.947439  0  0  -0.056918  0  3.963769  0  0  -0.068186  -0.062992  0  3.937686  0
C  C37  1  0.99479088  0.63527257  0.61180300  1  0  -0.037513  0  3.69913  0  0  -0.060505  0  3.947501  0  0  -0.05692  0  3.963829  0  0  -0.068164  -0.06299  0  3.937744  0
C  C38  1  0.94999412  0.40005163  0.26629882  1  0  -0.167689  0  3.717742  0  0  -0.183523  0  3.962566  0  0  -0.190341  0  3.981825  0  0  -0.093422  -0.180405  0  3.950527  0
C  C39  1  0.05000040  0.59995233  0.73370236  1  0  -0.167649  0  3.717659  0  0  -0.183527  0  3.962507  0  0  -0.190341  0  3.981763  0  0  -0.093436  -0.180409  0  3.950459  0
C  C40  1  0.84142621  0.31497917  0.24234470  1  0  0.261713  0  3.792764  0  0  0.261112  0  4.031418  0  0  0.272183  0  4.049776  0  0  0.117112  0.254259  0  4.019372  0
C  C41  1  0.15857442  0.68502360  0.75765566  1  0  0.26169  0  3.792729  0  0  0.261104  0  4.031379  0  0  0.272177  0  4.049736  0  0  0.117123  0.25425  0  4.019328  0
C  C42  1  0.78494650  0.33885809  0.11301441  1  0  -0.133248  0  3.728593  0  0  -0.152013  0  3.977358  0  0  -0.158032  0  3.998669  0  0  -0.088163  -0.149507  0  3.964451  0
C  C43  1  0.21505361  0.66114124  0.88698568  1  0  -0.133309  0  3.728555  0  0  -0.152083  0  3.977336  0  0  -0.158106  0  3.998646  0  0  -0.08819  -0.149574  0  3.96443  0
C  C44  1  0.75622738  0.47594590  0.03181219  1  0  -0.099269  0  3.741711  0  0  -0.118506  0  3.989248  0  0  -0.118767  0  4.010795  0  0  -0.089503  -0.11924  0  3.976322  0
C  C45  1  0.24377392  0.52405340  0.96818672  1  0  -0.099167  0  3.741636  0  0  -0.118393  0  3.989193  0  0  -0.118652  0  4.010739  0  0  -0.089447  -0.119132  0  3.97627  0
C  C46  1  0.68897234  0.50071327  0.90759643  1  0  0.042762  0  3.802745  0  0  0.065048  0  4.032673  0  0  0.060896  0  4.057619  0  0  -0.005122  0.067469  0  4.016436  0
C  C47  1  0.31102803  0.49928487  0.09240088  1  0  0.042725  0  3.802742  0  0  0.064928  0  4.032824  0  0  0.060778  0  4.057766  0  0  -0.005192  0.067343  0  4.016596  0
C  C48  1  0.67713762  0.38205586  0.84103182  1  0  -0.032757  0  3.646383  0  0  -0.053332  0  3.882138  0  0  -0.050889  0  3.901035  0  0  -0.057056  -0.059242  0  3.876189  0
C  C49  1  0.32286393  0.61794228  0.15896529  1  0  -0.032784  0  3.646431  0  0  -0.053347  0  3.882217  0  0  -0.050904  0  3.901116  0  0  -0.057035  -0.059255  0  3.876271  0
C  C50  1  0.61457263  0.41814539  0.72094631  1  0  -0.113124  0  3.761909  0  0  -0.125345  0  4.016002  0  0  -0.131774  0  4.038182  0  0  -0.083412  -0.121445  0  4.005152  0
C  C51  1  0.38542592  0.58185621  0.27905069  1  0  -0.113051  0  3.762041  0  0  -0.125268  0  4.016145  0  0  -0.131696  0  4.038326  0  0  -0.083357  -0.12137  0  4.005302  0
C  C52  1  0.56189660  0.57161275  0.67040857  1  0  0.114617  0  3.712046  0  0  0.082428  0  3.96738  0  0  0.089357  0  3.98485  0  0  0.040146  0.077493  0  3.956606  0
C  C53  1  0.43810267  0.42839116  0.32958986  1  0  0.11461  0  3.712135  0  0  0.082397  0  3.967448  0  0  0.089326  0  3.98492  0  0  0.040106  0.077467  0  3.95667  0
C  C54  1  0.62862487  0.65187790  0.85040130  1  0  0.080769  0  3.663097  0  0  0.045131  0  3.912328  0  0  0.050935  0  3.930652  0  0  0.0488  0.044443  0  3.897884  0
C  C55  1  0.37137661  0.34812028  0.14959975  1  0  0.08081  0  3.663004  0  0  0.045156  0  3.912238  0  0  0.050959  0  3.930563  0  0  0.048811  0.044466  0  3.897801  0
I  I56  1  0.69284832  0.90467901  0.11449333  1  0  -0.516906  0  0.972045  0  0  -0.459316  0  1.280972  0  0  -0.478259  0  1.256062  0  0  -0.237765  -0.445307  0  1.296855  0
I  I57  1  0.30715413  0.09532031  0.88550736  1  0  -0.516915  0  0.972056  0  0  -0.45933  0  1.280983  0  0  -0.478272  0  1.256075  0  0  -0.237769  -0.44532  0  1.296867  0
N  N58  1  0.78500242  0.20703254  0.34012058  1  0  -0.396962  0  3.26435  0  0  -0.327884  0  3.517667  0  0  -0.347563  0  3.536755  0  0  -0.329286  -0.313866  0  3.503452  0
N  N59  1  0.21499884  0.79296679  0.65988030  1  0  -0.396944  0  3.264374  0  0  -0.327839  0  3.517621  0  0  -0.347517  0  3.536706  0  0  -0.329252  -0.31382  0  3.503404  0
N  N60  1  0.56593436  0.68629224  0.73606737  1  0  -0.321463  0  3.306408  0  0  -0.244149  0  3.573582  0  0  -0.262897  0  3.592689  0  0  -0.335795  -0.232297  0  3.560111  0
N  N61  1  0.43406550  0.31370825  0.26393452  1  0  -0.321536  0  3.306369  0  0  -0.244167  0  3.57351  0  0  -0.262915  0  3.592618  0  0  -0.335783  -0.232317  0  3.56004  0
O  O62  1  0.64161406  0.00623770  0.54111975  1  0  -0.634821  0  2.180087  0  0  -0.541076  0  2.449065  0  0  -0.574025  0  2.44302  0  0  -0.365315  -0.516013  0  2.449525  0
O  O63  1  0.35838580  0.99376279  0.45888215  1  0  -0.634815  0  2.180012  0  0  -0.541071  0  2.449021  0  0  -0.574013  0  2.44296  0  0  -0.365328  -0.516017  0  2.449512  0
