# generated using pymatgen
data_CdH8C16(NO2)2
_symmetry_space_group_name_H-M   'P 1'
_cell_length_a   8.30168794
_cell_length_b   9.62702856
_cell_length_c   17.25264104
_cell_angle_alpha   89.99931344
_cell_angle_beta   90.00028113
_cell_angle_gamma   91.05293697
_symmetry_Int_Tables_number   1
_chemical_formula_structural   CdH8C16(NO2)2
_chemical_formula_sum   'Cd4 H32 C64 N8 O16'
_cell_volume   1378.60837182
_cell_formula_units_Z   4
loop_
 _symmetry_equiv_pos_site_id
 _symmetry_equiv_pos_as_xyz
  1  'x, y, z'
loop_
 _atom_site_type_symbol
 _atom_site_label
 _atom_site_symmetry_multiplicity
 _atom_site_fract_x
 _atom_site_fract_y
 _atom_site_fract_z
 _atom_site_occupancy
 _atom_site_hle17_bader_spin_density
 _atom_site_hle17_ddec_charge
 _atom_site_hle17_ddec_spin_density
 _atom_site_hle17_ddec_sum_bond_order
 _atom_site_hle17_magmom
 _atom_site_hse06_10hf_bader_spin_density
 _atom_site_hse06_10hf_ddec_charge
 _atom_site_hse06_10hf_ddec_spin_density
 _atom_site_hse06_10hf_ddec_sum_bond_order
 _atom_site_hse06_10hf_magmom
 _atom_site_hse06_bader_spin_density
 _atom_site_hse06_ddec_charge
 _atom_site_hse06_ddec_spin_density
 _atom_site_hse06_ddec_sum_bond_order
 _atom_site_hse06_magmom
 _atom_site_pbe_bader_spin_density
 _atom_site_pbe_cm5_charge
 _atom_site_pbe_ddec_charge
 _atom_site_pbe_ddec_spin_density
 _atom_site_pbe_ddec_sum_bond_order
 _atom_site_pbe_magmom
Cd  Cd0  1  0.29957767  0.21893295  0.14851601  1  0  1.120833  0  1.664299  0  0  0.925462  0  2.114684  0  0  0.984649  0  2.060774  0  0  0.777684  0.883346  0  2.15211  0
Cd  Cd1  1  0.20042780  0.78106653  0.64851862  1  0  1.12083  0  1.664327  0  0  0.925436  0  2.114715  0  0  0.984626  0  2.060807  0  0  0.777684  0.883318  0  2.15214  0
Cd  Cd2  1  0.70042030  0.78106619  0.85148234  1  0  1.120854  0  1.664309  0  0  0.925505  0  2.114678  0  0  0.984692  0  2.060766  0  0  0.777712  0.883388  0  2.152104  0
Cd  Cd3  1  0.79957016  0.21893157  0.35148553  1  0  1.120797  0  1.664307  0  0  0.925429  0  2.11467  0  0  0.98462  0  2.060761  0  0  0.777682  0.883309  0  2.152098  0
H  H4  1  0.93290799  0.14349704  0.07667352  1  0  0.083031  0  0.928274  0  0  0.091701  0  0.990552  0  0  0.093813  0  0.988813  0  0  0.119011  0.090343  0  0.991563  0
H  H5  1  0.56709185  0.85650764  0.57667183  1  0  0.083023  0  0.928189  0  0  0.091665  0  0.990508  0  0  0.093776  0  0.988772  0  0  0.118996  0.090307  0  0.991519  0
H  H6  1  0.06708884  0.85650521  0.92332599  1  0  0.083026  0  0.928259  0  0  0.091705  0  0.99053  0  0  0.093817  0  0.988792  0  0  0.119005  0.090346  0  0.991541  0
H  H7  1  0.43290860  0.14349566  0.42333058  1  0  0.082975  0  0.928308  0  0  0.091662  0  0.990573  0  0  0.093773  0  0.988838  0  0  0.118984  0.090304  0  0.991584  0
H  H8  1  0.68225034  0.26748720  0.03725102  1  0  0.12343  0  0.960467  0  0  0.130568  0  1.023138  0  0  0.133711  0  1.022623  0  0  0.108419  0.128103  0  1.023938  0
H  H9  1  0.81775155  0.73251937  0.53724959  1  0  0.123419  0  0.960363  0  0  0.130547  0  1.023053  0  0  0.13369  0  1.022539  0  0  0.108421  0.12808  0  1.023856  0
H  H10  1  0.31774528  0.73251505  0.96275139  1  0  0.123402  0  0.960534  0  0  0.130553  0  1.023195  0  0  0.133698  0  1.022677  0  0  0.108386  0.128086  0  1.023997  0
H  H11  1  0.18225011  0.26748393  0.46274992  1  0  0.123432  0  0.960477  0  0  0.130587  0  1.023129  0  0  0.13373  0  1.022613  0  0  0.108423  0.12812  0  1.023932  0
H  H12  1  0.67893945  0.52804738  0.04824034  1  0  0.113107  0  0.928622  0  0  0.126614  0  0.982544  0  0  0.129717  0  0.980508  0  0  0.11269  0.124262  0  0.984174  0
H  H13  1  0.82106133  0.47195895  0.54824067  1  0  0.113085  0  0.928603  0  0  0.126589  0  0.982546  0  0  0.129692  0  0.980507  0  0  0.112711  0.124236  0  0.984178  0
H  H14  1  0.32105980  0.47195592  0.95175859  1  0  0.113102  0  0.928639  0  0  0.126608  0  0.982564  0  0  0.129713  0  0.980524  0  0  0.112684  0.124257  0  0.984195  0
H  H15  1  0.17893671  0.52804434  0.45175768  1  0  0.113083  0  0.928679  0  0  0.126624  0  0.982564  0  0  0.129727  0  0.980526  0  0  0.112711  0.124271  0  0.984197  0
H  H16  1  0.81951445  0.74664424  0.08790965  1  0  0.093739  0  0.99384  0  0  0.103705  0  1.058993  0  0  0.105256  0  1.059545  0  0  0.100341  0.102414  0  1.059038  0
H  H17  1  0.68048789  0.25335918  0.58791168  1  0  0.093771  0  0.993791  0  0  0.103719  0  1.058966  0  0  0.105272  0  1.059515  0  0  0.100343  0.102425  0  1.059008  0
H  H18  1  0.18048597  0.25335699  0.91208755  1  0  0.093788  0  0.993825  0  0  0.103734  0  1.059002  0  0  0.105284  0  1.059555  0  0  0.100342  0.102442  0  1.059041  0
H  H19  1  0.31951134  0.74664308  0.41208957  1  0  0.093752  0  0.993846  0  0  0.103766  0  1.058925  0  0  0.105318  0  1.059477  0  0  0.100364  0.102478  0  1.058972  0
H  H20  1  0.07176752  0.87035545  0.12821464  1  0  0.119591  0  0.934099  0  0  0.131962  0  0.988864  0  0  0.134791  0  0.987866  0  0  0.112167  0.130028  0  0.989335  0
H  H21  1  0.42823540  0.12964758  0.62821693  1  0  0.119568  0  0.934107  0  0  0.131891  0  0.988924  0  0  0.134727  0  0.98791  0  0  0.112149  0.12996  0  0.989391  0
H  H22  1  0.92823290  0.12964577  0.87178255  1  0  0.119572  0  0.93409  0  0  0.13191  0  0.988893  0  0  0.13474  0  0.987895  0  0  0.112144  0.12998  0  0.989358  0
H  H23  1  0.57176626  0.87035573  0.37178548  1  0  0.119575  0  0.934038  0  0  0.13194  0  0.988813  0  0  0.13477  0  0.987814  0  0  0.112157  0.130008  0  0.989281  0
H  H24  1  0.35779458  0.86028271  0.16879779  1  0  0.114459  0  0.951645  0  0  0.123035  0  1.015428  0  0  0.12557  0  1.013606  0  0  0.111019  0.12078  0  1.017393  0
H  H25  1  0.14220747  0.13971633  0.66879991  1  0  0.114485  0  0.951627  0  0  0.123038  0  1.015435  0  0  0.12558  0  1.013595  0  0  0.111046  0.120783  0  1.0174  0
H  H26  1  0.64220582  0.13971748  0.83120115  1  0  0.114454  0  0.951616  0  0  0.123017  0  1.015421  0  0  0.125553  0  1.013594  0  0  0.111035  0.120762  0  1.017387  0
H  H27  1  0.85779174  0.86028489  0.33120424  1  0  0.11446  0  0.951601  0  0  0.123007  0  1.015431  0  0  0.12555  0  1.013588  0  0  0.111017  0.120752  0  1.017394  0
H  H28  1  0.59681205  0.71609684  0.20250817  1  0  0.103725  0  0.958034  0  0  0.115141  0  1.015518  0  0  0.117223  0  1.016931  0  0  0.107127  0.113436  0  1.015121  0
H  H29  1  0.90318776  0.28390204  0.70250995  1  0  0.103698  0  0.958043  0  0  0.115101  0  1.015541  0  0  0.117181  0  1.016956  0  0  0.107126  0.113396  0  1.015144  0
H  H30  1  0.40318473  0.28390333  0.79749192  1  0  0.103681  0  0.958058  0  0  0.115099  0  1.01554  0  0  0.117181  0  1.016953  0  0  0.10711  0.113395  0  1.015142  0
H  H31  1  0.09681024  0.71609814  0.29749362  1  0  0.103734  0  0.958025  0  0  0.115114  0  1.015541  0  0  0.117195  0  1.016957  0  0  0.107142  0.11341  0  1.015142  0
H  H32  1  0.56479058  0.45493595  0.20120196  1  0  0.085293  0  0.947553  0  0  0.092085  0  1.01514  0  0  0.094565  0  1.013  0  0  0.114647  0.090253  0  1.016668  0
H  H33  1  0.93520802  0.54506399  0.70120149  1  0  0.08526  0  0.947497  0  0  0.092044  0  1.01511  0  0  0.094526  0  1.012967  0  0  0.114625  0.090211  0  1.01664  0
H  H34  1  0.43520620  0.54506422  0.79879755  1  0  0.085203  0  0.947635  0  0  0.092034  0  1.015189  0  0  0.094514  0  1.01305  0  0  0.114622  0.090203  0  1.016715  0
H  H35  1  0.06478759  0.45493826  0.29879860  1  0  0.085261  0  0.947538  0  0  0.092071  0  1.015114  0  0  0.094553  0  1.012973  0  0  0.114648  0.090239  0  1.016643  0
C  C36  1  0.92586057  0.25610460  0.08195754  1  0  0.155917  0  3.685967  0  0  0.123643  0  3.942197  0  0  0.131768  0  3.959963  0  0  0.060739  0.118087  0  3.930059  0
C  C37  1  0.57413927  0.74389685  0.58195605  1  0  0.155882  0  3.686038  0  0  0.123628  0  3.942277  0  0  0.131755  0  3.96004  0  0  0.060747  0.118072  0  3.930142  0
C  C38  1  0.07413624  0.74389661  0.91804313  1  0  0.155923  0  3.685932  0  0  0.123639  0  3.942172  0  0  0.131765  0  3.959935  0  0  0.060746  0.118084  0  3.930035  0
C  C39  1  0.42586109  0.25610125  0.41804405  1  0  0.155959  0  3.685987  0  0  0.123662  0  3.942226  0  0  0.131788  0  3.959989  0  0  0.060758  0.118106  0  3.93009  0
C  C40  1  0.78590043  0.32598607  0.05951246  1  0  -0.105615  0  3.704253  0  0  -0.119392  0  3.959651  0  0  -0.126279  0  3.981321  0  0  -0.07858  -0.1149  0  3.945303  0
C  C41  1  0.71409925  0.67401898  0.55951176  1  0  -0.105575  0  3.704057  0  0  -0.119338  0  3.959457  0  0  -0.126225  0  3.98112  0  0  -0.078547  -0.114847  0  3.945111  0
C  C42  1  0.21409881  0.67401619  0.94048763  1  0  -0.105542  0  3.704133  0  0  -0.119318  0  3.959503  0  0  -0.126207  0  3.981175  0  0  -0.078493  -0.114826  0  3.945157  0
C  C43  1  0.28589756  0.32598223  0.44048891  1  0  -0.105552  0  3.704009  0  0  -0.119331  0  3.959422  0  0  -0.126218  0  3.981087  0  0  -0.078513  -0.114844  0  3.945078  0
C  C44  1  0.78355089  0.46893251  0.06616836  1  0  -0.046659  0  3.663423  0  0  -0.071701  0  3.912978  0  0  -0.069359  0  3.929909  0  0  -0.061821  -0.072896  0  3.901329  0
C  C45  1  0.71644882  0.53107136  0.56616688  1  0  -0.046663  0  3.663111  0  0  -0.071724  0  3.912675  0  0  -0.069379  0  3.929604  0  0  -0.061865  -0.072922  0  3.901028  0
C  C46  1  0.21644469  0.53106766  0.93383174  1  0  -0.046687  0  3.663234  0  0  -0.071716  0  3.912819  0  0  -0.069377  0  3.929755  0  0  -0.061845  -0.072912  0  3.901169  0
C  C47  1  0.28355043  0.46893194  0.43383205  1  0  -0.046727  0  3.663262  0  0  -0.071818  0  3.91284  0  0  -0.069475  0  3.929767  0  0  -0.061893  -0.073014  0  3.901191  0
C  C48  1  0.92037369  0.54144359  0.09527396  1  0  0.027742  0  3.791784  0  0  0.043637  0  4.02474  0  0  0.041467  0  4.049297  0  0  -0.002338  0.04496  0  4.008173  0
C  C49  1  0.57962507  0.45855758  0.59527323  1  0  0.027766  0  3.791782  0  0  0.043691  0  4.024687  0  0  0.041519  0  4.049246  0  0  -0.002319  0.045015  0  4.008116  0
C  C50  1  0.07962436  0.45855971  0.90472555  1  0  0.027756  0  3.791829  0  0  0.043602  0  4.024851  0  0  0.041431  0  4.049409  0  0  -0.002321  0.044927  0  4.00828  0
C  C51  1  0.42037290  0.54144156  0.40472686  1  0  0.027836  0  3.79177  0  0  0.04376  0  4.024696  0  0  0.04159  0  4.049252  0  0  -0.002325  0.045084  0  4.008127  0
C  C52  1  0.92714043  0.68943506  0.10234196  1  0  -0.100795  0  3.748856  0  0  -0.12428  0  4.002587  0  0  -0.128111  0  4.027689  0  0  -0.086271  -0.121736  0  3.985986  0
C  C53  1  0.57286203  0.31056700  0.60234220  1  0  -0.100817  0  3.74885  0  0  -0.124308  0  4.00257  0  0  -0.128141  0  4.027674  0  0  -0.086263  -0.121759  0  3.985965  0
C  C54  1  0.07286121  0.31056720  0.89765582  1  0  -0.100829  0  3.74891  0  0  -0.124293  0  4.002656  0  0  -0.128124  0  4.027759  0  0  -0.086261  -0.121743  0  3.986048  0
C  C55  1  0.42713718  0.68943422  0.39765789  1  0  -0.100859  0  3.748799  0  0  -0.1244  0  4.002529  0  0  -0.128232  0  4.027629  0  0  -0.086282  -0.121863  0  3.985932  0
C  C56  1  0.06474917  0.75733952  0.12534357  1  0  -0.089502  0  3.723248  0  0  -0.112104  0  3.97522  0  0  -0.115064  0  3.997593  0  0  -0.077145  -0.110117  0  3.960073  0
C  C57  1  0.43525250  0.24266252  0.62534338  1  0  -0.089493  0  3.723118  0  0  -0.112042  0  3.975083  0  0  -0.115  0  3.99746  0  0  -0.077126  -0.11006  0  3.959938  0
C  C58  1  0.93525249  0.24266378  0.87465536  1  0  -0.089486  0  3.723213  0  0  -0.112066  0  3.97518  0  0  -0.115026  0  3.997552  0  0  -0.077133  -0.110085  0  3.960032  0
C  C59  1  0.56474671  0.75733870  0.37465729  1  0  -0.089452  0  3.723095  0  0  -0.112041  0  3.975061  0  0  -0.115001  0  3.997435  0  0  -0.077132  -0.110056  0  3.959916  0
C  C60  1  0.20533951  0.68118208  0.14513632  1  0  0.025603  0  3.786485  0  0  0.043317  0  4.015504  0  0  0.040827  0  4.039059  0  0  0.002012  0.044872  0  3.999771  0
C  C61  1  0.29465992  0.31881850  0.64513587  1  0  0.025681  0  3.786502  0  0  0.043391  0  4.015507  0  0  0.040902  0  4.039063  0  0  0.002036  0.044944  0  3.999778  0
C  C62  1  0.79465968  0.31881810  0.85486203  1  0  0.025606  0  3.786444  0  0  0.043367  0  4.015423  0  0  0.040878  0  4.038977  0  0  0.002052  0.044921  0  3.999691  0
C  C63  1  0.70533809  0.68118272  0.35486422  1  0  0.025571  0  3.786579  0  0  0.043311  0  4.015574  0  0  0.040822  0  4.039128  0  0  0.002034  0.044864  0  3.999842  0
C  C64  1  0.35130702  0.74731089  0.16725868  1  0  -0.022024  0  3.646169  0  0  -0.048093  0  3.892707  0  0  -0.044405  0  3.908941  0  0  -0.052107  -0.050511  0  3.882317  0
C  C65  1  0.14869628  0.25269130  0.66725833  1  0  -0.022136  0  3.64626  0  0  -0.048195  0  3.892803  0  0  -0.044506  0  3.909042  0  0  -0.052177  -0.050613  0  3.882417  0
C  C66  1  0.64869343  0.25269241  0.83274025  1  0  -0.022017  0  3.646099  0  0  -0.048104  0  3.892655  0  0  -0.044415  0  3.90889  0  0  -0.052159  -0.050519  0  3.882263  0
C  C67  1  0.85130414  0.74730992  0.33274292  1  0  -0.022006  0  3.646179  0  0  -0.048083  0  3.892732  0  0  -0.044394  0  3.908969  0  0  -0.052141  -0.050498  0  3.882342  0
C  C68  1  0.48221786  0.66772741  0.18646486  1  0  -0.116724  0  3.743252  0  0  -0.132129  0  4.001654  0  0  -0.139815  0  4.023862  0  0  -0.082874  -0.127162  0  3.986835  0
C  C69  1  0.01778196  0.33227124  0.68646308  1  0  -0.116561  0  3.743051  0  0  -0.131944  0  4.001416  0  0  -0.139631  0  4.023626  0  0  -0.082781  -0.12698  0  3.986597  0
C  C70  1  0.51777892  0.33227276  0.81353523  1  0  -0.116709  0  3.743037  0  0  -0.132108  0  4.001467  0  0  -0.139795  0  4.023675  0  0  -0.082864  -0.127141  0  3.986645  0
C  C71  1  0.98221724  0.66772894  0.31353701  1  0  -0.116673  0  3.743067  0  0  -0.132035  0  4.001458  0  0  -0.139724  0  4.023671  0  0  -0.082825  -0.127071  0  3.98664  0
C  C72  1  0.46605750  0.52234332  0.18518320  1  0  0.144203  0  3.696547  0  0  0.110167  0  3.953953  0  0  0.119391  0  3.970758  0  0  0.053083  0.104274  0  3.942355  0
C  C73  1  0.03394594  0.47765642  0.68518281  1  0  0.144185  0  3.696335  0  0  0.110143  0  3.953739  0  0  0.119368  0  3.970538  0  0  0.053075  0.104251  0  3.942141  0
C  C74  1  0.53394293  0.47765895  0.81481573  1  0  0.144345  0  3.696376  0  0  0.110266  0  3.953797  0  0  0.11949  0  3.970602  0  0  0.053161  0.104375  0  3.942199  0
C  C75  1  0.96605324  0.52234272  0.31481786  1  0  0.144219  0  3.69649  0  0  0.110161  0  3.953874  0  0  0.119384  0  3.970678  0  0  0.05307  0.104271  0  3.942276  0
C  C76  1  0.20094254  0.53348619  0.14271457  1  0  0.124629  0  3.762068  0  0  0.11847  0  3.996854  0  0  0.123094  0  4.019626  0  0  0.115926  0.115372  0  3.981458  0
C  C77  1  0.29906047  0.46651341  0.64271198  1  0  0.124609  0  3.762012  0  0  0.118421  0  3.996789  0  0  0.123043  0  4.019563  0  0  0.11588  0.115322  0  3.981395  0
C  C78  1  0.79905788  0.46651503  0.85728494  1  0  0.124615  0  3.7621  0  0  0.118434  0  3.996873  0  0  0.123058  0  4.019645  0  0  0.115883  0.115335  0  3.98148  0
C  C79  1  0.70093990  0.53348470  0.35728695  1  0  0.124685  0  3.762045  0  0  0.118488  0  3.996826  0  0  0.123111  0  4.019598  0  0  0.115906  0.115392  0  3.981432  0
C  C80  1  0.05644367  0.46219023  0.11598888  1  0  0.123328  0  3.773516  0  0  0.115916  0  4.013201  0  0  0.119751  0  4.036096  0  0  0.113568  0.113308  0  3.997759  0
C  C81  1  0.44355793  0.53781306  0.61598615  1  0  0.123329  0  3.773636  0  0  0.115943  0  4.013268  0  0  0.119779  0  4.036167  0  0  0.113594  0.113335  0  3.997825  0
C  C82  1  0.94355559  0.53781307  0.88401064  1  0  0.123344  0  3.773621  0  0  0.115961  0  4.013316  0  0  0.119797  0  4.03621  0  0  0.113605  0.113354  0  3.997877  0
C  C83  1  0.55644128  0.46218816  0.38401220  1  0  0.123263  0  3.773749  0  0  0.115855  0  4.013416  0  0  0.11969  0  4.036313  0  0  0.113565  0.113248  0  3.997972  0
C  C84  1  0.34098479  0.10969637  0.00201074  1  0  0.676873  0  4.056328  0  0  0.627238  0  4.345649  0  0  0.663593  0  4.33444  0  0  0.193284  0.602395  0  4.35257  0
C  C85  1  0.15903015  0.89030938  0.50201542  1  0  0.67683  0  4.056673  0  0  0.627189  0  4.346013  0  0  0.663544  0  4.334803  0  0  0.193206  0.602347  0  4.352942  0
C  C86  1  0.65903253  0.89030698  0.99798471  1  0  0.676929  0  4.056825  0  0  0.627308  0  4.346121  0  0  0.663663  0  4.334911  0  0  0.193225  0.602466  0  4.353046  0
C  C87  1  0.84096755  0.10967417  0.49798641  1  0  0.676683  0  4.056626  0  0  0.627025  0  4.345992  0  0  0.663378  0  4.33479  0  0  0.19328  0.602187  0  4.352912  0
C  C88  1  0.35132988  0.04440638  0.92668447  1  0  -0.103731  0  3.677145  0  0  -0.103198  0  3.93623  0  0  -0.103578  0  3.950196  0  0  -0.020257  -0.103328  0  3.927438  0
C  C89  1  0.14867374  0.95560171  0.42668875  1  0  -0.103766  0  3.676913  0  0  -0.103231  0  3.936014  0  0  -0.103608  0  3.949977  0  0  -0.020272  -0.103369  0  3.927229  0
C  C90  1  0.64868259  0.95559488  0.07331214  1  0  -0.10388  0  3.676857  0  0  -0.10336  0  3.935964  0  0  -0.103737  0  3.949928  0  0  -0.020321  -0.103494  0  3.927173  0
C  C91  1  0.85133113  0.04437875  0.57331424  1  0  -0.103687  0  3.677793  0  0  -0.103123  0  3.936833  0  0  -0.103502  0  3.9508  0  0  -0.020279  -0.103258  0  3.928042  0
C  C92  1  0.35808770  0.98580983  0.86414366  1  0  -0.152366  0  3.678519  0  0  -0.147804  0  3.938247  0  0  -0.150961  0  3.951718  0  0  -0.029061  -0.14594  0  3.929688  0
C  C93  1  0.14191171  0.01420061  0.36414727  1  0  -0.152254  0  3.678424  0  0  -0.147709  0  3.938126  0  0  -0.150865  0  3.951599  0  0  -0.029037  -0.145851  0  3.92956  0
C  C94  1  0.64192840  0.01419247  0.13585469  1  0  -0.15226  0  3.678233  0  0  -0.147699  0  3.937952  0  0  -0.150855  0  3.951424  0  0  -0.029026  -0.145836  0  3.929389  0
C  C95  1  0.85809931  0.98578714  0.63584993  1  0  -0.152253  0  3.679242  0  0  -0.147716  0  3.938916  0  0  -0.150871  0  3.95239  0  0  -0.029031  -0.145851  0  3.930355  0
C  C96  1  0.35454378  0.90110213  0.79484151  1  0  0.719277  0  4.00008  0  0  0.665768  0  4.289547  0  0  0.70531  0  4.27407  0  0  0.210736  0.638675  0  4.299118  0
C  C97  1  0.14544771  0.09890873  0.29484571  1  0  0.719148  0  4.000226  0  0  0.665702  0  4.28961  0  0  0.705245  0  4.274131  0  0  0.210741  0.638637  0  4.299139  0
C  C98  1  0.64546140  0.09889599  0.20515511  1  0  0.719345  0  4.000079  0  0  0.665869  0  4.289494  0  0  0.705412  0  4.274015  0  0  0.210862  0.638786  0  4.29905  0
C  C99  1  0.85455494  0.90108211  0.70515844  1  0  0.719306  0  3.999891  0  0  0.665859  0  4.289255  0  0  0.705402  0  4.273772  0  0  0.210787  0.638772  0  4.298817  0
N  N100  1  0.05620864  0.32189684  0.10926922  1  0  -0.362144  0  3.267234  0  0  -0.2939  0  3.535002  0  0  -0.313228  0  3.553058  0  0  -0.324898  -0.28066  0  3.522606  0
N  N101  1  0.44379048  0.67810658  0.60926729  1  0  -0.362136  0  3.267287  0  0  -0.293906  0  3.535049  0  0  -0.313232  0  3.553099  0  0  -0.324939  -0.280669  0  3.522657  0
N  N102  1  0.94378819  0.67810541  0.89073088  1  0  -0.362155  0  3.267275  0  0  -0.29394  0  3.535081  0  0  -0.313264  0  3.553131  0  0  -0.324943  -0.280702  0  3.522689  0
N  N103  1  0.55620875  0.32189568  0.39073338  1  0  -0.362116  0  3.267342  0  0  -0.293869  0  3.535115  0  0  -0.313201  0  3.553177  0  0  -0.324898  -0.280629  0  3.522721  0
N  N104  1  0.32994712  0.45759865  0.16377436  1  0  -0.358467  0  3.257235  0  0  -0.283985  0  3.520252  0  0  -0.304418  0  3.537476  0  0  -0.328251  -0.270239  0  3.508644  0
N  N105  1  0.17005371  0.54240153  0.66377154  1  0  -0.358542  0  3.257102  0  0  -0.284024  0  3.520088  0  0  -0.304457  0  3.537309  0  0  -0.328296  -0.270281  0  3.508483  0
N  N106  1  0.67005212  0.54240361  0.83622573  1  0  -0.358537  0  3.257249  0  0  -0.284045  0  3.520285  0  0  -0.304479  0  3.537505  0  0  -0.3283  -0.270301  0  3.50868  0
N  N107  1  0.82994430  0.45759968  0.33622623  1  0  -0.358559  0  3.25724  0  0  -0.284028  0  3.520213  0  0  -0.304461  0  3.537436  0  0  -0.328291  -0.270286  0  3.508608  0
O  O108  1  0.25852070  0.04404817  0.05316941  1  0  -0.621563  0  1.902786  0  0  -0.560535  0  2.134049  0  0  -0.590587  0  2.124828  0  0  -0.319151  -0.538947  0  2.139496  0
O  O109  1  0.24149000  0.95596064  0.55317326  1  0  -0.621629  0  1.903054  0  0  -0.560571  0  2.134278  0  0  -0.59063  0  2.125065  0  0  -0.319149  -0.538971  0  2.139691  0
O  O110  1  0.74148582  0.95595723  0.94682779  1  0  -0.621662  0  1.903291  0  0  -0.560623  0  2.13452  0  0  -0.590678  0  2.125305  0  0  -0.319166  -0.539025  0  2.139936  0
O  O111  1  0.75850298  0.04402810  0.44682973  1  0  -0.62155  0  1.90305  0  0  -0.560504  0  2.134301  0  0  -0.590558  0  2.125088  0  0  -0.31918  -0.538915  0  2.139734  0
O  O112  1  0.41101137  0.22659237  0.01248709  1  0  -0.62379  0  1.891652  0  0  -0.56922  0  2.118168  0  0  -0.596464  0  2.108565  0  0  -0.31864  -0.549807  0  2.124187  0
O  O113  1  0.08899650  0.77341626  0.51249239  1  0  -0.623641  0  1.891745  0  0  -0.569115  0  2.118331  0  0  -0.596358  0  2.108731  0  0  -0.318547  -0.549679  0  2.124302  0
O  O114  1  0.58899399  0.77341614  0.98750837  1  0  -0.623682  0  1.891731  0  0  -0.569164  0  2.11831  0  0  -0.59641  0  2.108711  0  0  -0.318552  -0.549728  0  2.124281  0
O  O115  1  0.91100126  0.22657041  0.48751002  1  0  -0.623676  0  1.891594  0  0  -0.56916  0  2.118216  0  0  -0.596405  0  2.108619  0  0  -0.318624  -0.549721  0  2.12418  0
O  O116  1  0.44298693  0.79497711  0.79231366  1  0  -0.637757  0  1.977775  0  0  -0.577435  0  2.228994  0  0  -0.606969  0  2.216042  0  0  -0.316153  -0.556208  0  2.236914  0
O  O117  1  0.05700698  0.20503589  0.29231868  1  0  -0.637739  0  1.977975  0  0  -0.577433  0  2.229172  0  0  -0.606989  0  2.216264  0  0  -0.316166  -0.556218  0  2.237081  0
O  O118  1  0.55701223  0.20502099  0.20768238  1  0  -0.637821  0  1.977877  0  0  -0.577509  0  2.229107  0  0  -0.607052  0  2.216169  0  0  -0.316219  -0.556283  0  2.237021  0
O  O119  1  0.94299935  0.79495912  0.70769300  1  0  -0.637833  0  1.977894  0  0  -0.577504  0  2.22907  0  0  -0.607075  0  2.216197  0  0  -0.316189  -0.556285  0  2.236993  0
O  O120  1  0.25604546  0.93824339  0.74240118  1  0  -0.613626  0  1.96875  0  0  -0.544614  0  2.209858  0  0  -0.575212  0  2.196422  0  0  -0.314903  -0.522432  0  2.21825  0
O  O121  1  0.24394675  0.06176963  0.24240181  1  0  -0.613618  0  1.968613  0  0  -0.544635  0  2.209707  0  0  -0.575233  0  2.196266  0  0  -0.314927  -0.522463  0  2.218089  0
O  O122  1  0.74395981  0.06175992  0.25759833  1  0  -0.613682  0  1.968639  0  0  -0.544701  0  2.209759  0  0  -0.575299  0  2.196322  0  0  -0.314956  -0.522522  0  2.218148  0
O  O123  1  0.75605610  0.93823264  0.75760002  1  0  -0.613665  0  1.96858  0  0  -0.544677  0  2.209652  0  0  -0.575274  0  2.196211  0  0  -0.314915  -0.522495  0  2.218042  0
