# generated using pymatgen
data_ZnH7C23N2O4F5
_symmetry_space_group_name_H-M   'P 1'
_cell_length_a   15.28755334
_cell_length_b   15.28800038
_cell_length_c   15.96733472
_cell_angle_alpha   93.13454694
_cell_angle_beta   93.24258612
_cell_angle_gamma   90.11710459
_symmetry_Int_Tables_number   1
_chemical_formula_structural   ZnH7C23N2O4F5
_chemical_formula_sum   'Zn2 H14 C46 N4 O8 F10'
_cell_volume   3720.22517916
_cell_formula_units_Z   2
loop_
 _symmetry_equiv_pos_site_id
 _symmetry_equiv_pos_as_xyz
  1  'x, y, z'
loop_
 _atom_site_type_symbol
 _atom_site_label
 _atom_site_symmetry_multiplicity
 _atom_site_fract_x
 _atom_site_fract_y
 _atom_site_fract_z
 _atom_site_occupancy
 _atom_site_pbe_bader_charge
 _atom_site_pbe_bader_spin_density
 _atom_site_pbe_cm5_charge
 _atom_site_pbe_ddec_charge
 _atom_site_pbe_ddec_spin_density
 _atom_site_pbe_ddec_sum_bond_order
 _atom_site_pbe_magmom
Zn  Zn0  1  0.50620866  0.50600429  0.08819760  1  1.26576  0  0.668221  0.836805  0  2.414044  0
Zn  Zn1  1  0.49397080  0.49401432  0.91179635  1  1.268747  0  0.66816  0.836429  0  2.414388  0
H  H2  1  0.58302178  0.58303902  0.78217868  1  0.150357  0  0.137129  0.1169  0  0.957494  0
H  H3  1  0.58352126  0.58340987  0.62340876  1  0.117832  0  0.122884  0.135015  0  0.994946  0
H  H4  1  0.38284185  0.38221009  0.61165070  1  0.149764  0  0.134241  0.16879  0  0.957971  0
H  H5  1  0.61735817  0.61750966  0.38837917  1  0.151044  0  0.134127  0.168667  0  0.958105  0
H  H6  1  0.41663640  0.41633945  0.37650148  1  0.115671  0  0.122899  0.135026  0  0.995467  0
H  H7  1  0.41714855  0.41679828  0.21775357  1  0.149808  0  0.136884  0.116684  0  0.95741  0
H  H8  1  0.21724640  0.49252946  0.86881246  1  0.120609  0  0.107069  0.120052  0  1.008833  0
H  H9  1  0.22836617  0.50691543  0.13851860  1  0.123616  0  0.105535  0.116561  0  1.011112  0
H  H10  1  0.78285724  0.50700130  0.13113949  1  0.137799  0  0.106819  0.119904  0  1.009109  0
H  H11  1  0.77178339  0.49275568  0.86143791  1  0.124645  0  0.105594  0.116371  0  1.010883  0
H  H12  1  0.49384266  0.77213133  0.86138452  1  0.123962  0  0.105507  0.116637  0  1.010599  0
H  H13  1  0.50734696  0.78252252  0.13106838  1  0.12264  0  0.106998  0.119861  0  1.009375  0
H  H14  1  0.50788463  0.22796253  0.13871609  1  0.121183  0  0.105619  0.116601  0  1.011397  0
H  H15  1  0.49384871  0.21757588  0.86904696  1  0.12955  0  0.10671  0.11983  0  1.009133  0
C  C16  1  0.67065684  0.49996613  0.99468095  1  1.613837  0  0.216529  0.597164  0  4.161904  0
C  C17  1  0.50002054  0.67062172  0.99461521  1  1.612272  0  0.216174  0.596953  0  4.162338  0
C  C18  1  0.32951577  0.49993041  0.00528472  1  1.609115  0  0.216504  0.597444  0  4.162415  0
C  C19  1  0.50057069  0.32945533  0.00543209  1  1.611102  0  0.2173  0.598426  0  4.161422  0
C  C20  1  0.54033506  0.54029980  0.74095919  1  0.472985  0  0.071278  0.145011  0  3.884678  0
C  C21  1  0.54044374  0.54028778  0.65434532  1  0.012979  0  -0.072866  -0.2031  0  3.913783  0
C  C22  1  0.48292819  0.48257425  0.60655828  1  0.394707  0  0.112169  0.230874  0  4.028704  0
C  C23  1  0.42797017  0.42750479  0.64689068  1  0.066821  0  -0.068138  -0.295757  0  3.879296  0
C  C24  1  0.43356073  0.43330725  0.73424967  1  1.058199  0  0.25365  0.460462  0  4.050077  0
C  C25  1  0.57221459  0.57224681  0.35311798  1  0.066451  0  -0.067729  -0.295284  0  3.878553  0
C  C26  1  0.51723941  0.51717386  0.39343441  1  0.38317  0  0.111838  0.230239  0  4.02853  0
C  C27  1  0.45971953  0.45949136  0.34560407  1  0.025887  0  -0.072626  -0.202724  0  3.913402  0
C  C28  1  0.45981451  0.45953565  0.25899459  1  0.469964  0  0.071466  0.145108  0  3.88444  0
C  C29  1  0.56659060  0.56652666  0.26575297  1  1.05865  0  0.253286  0.460297  0  4.050828  0
C  C30  1  0.18279609  0.49563883  0.92668643  1  0.034819  0  -0.080725  -0.125393  0  3.919708  0
C  C31  1  0.09104695  0.49561735  0.92429233  1  0.009062  0  -0.012948  -0.005912  0  4.070796  0
C  C32  1  0.03850159  0.49172367  0.84719990  1  0.487335  0  0.088622  0.115379  0  4.089878  0
C  C33  1  0.18910177  0.50364470  0.07942581  1  -0.080881  0  -0.081987  -0.127921  0  3.92844  0
C  C34  1  0.09741267  0.50366823  0.07884527  1  0.065485  0  -0.013167  -0.007236  0  4.07424  0
C  C35  1  0.05105957  0.50758798  0.15424792  1  0.494111  0  0.087598  0.115493  0  4.092556  0
C  C36  1  0.81733593  0.50392760  0.07328907  1  0.022311  0  -0.080532  -0.125149  0  3.91951  0
C  C37  1  0.90907863  0.50387714  0.07569597  1  0.006769  0  -0.012722  -0.005602  0  4.069565  0
C  C38  1  0.96164088  0.50764769  0.15277745  1  0.492173  0  0.088214  0.115943  0  4.089937  0
C  C39  1  0.81104255  0.49599497  0.92053283  1  -0.076637  0  -0.08193  -0.126996  0  3.927671  0
C  C40  1  0.90273438  0.49587205  0.92112787  1  0.048238  0  -0.012882  -0.008019  0  4.074743  0
C  C41  1  0.94908350  0.49182784  0.84572141  1  0.513015  0  0.087379  0.116345  0  4.090917  0
C  C42  1  0.23116933  0.49967509  0.00381000  1  -0.010572  0  -0.013264  -0.013669  0  3.977678  0
C  C43  1  0.04653793  0.49969599  0.00076850  1  0.04896  0  0.001133  0.013316  0  3.951166  0
C  C44  1  0.76898676  0.50002941  0.99614390  1  -0.016834  0  -0.013687  -0.014381  0  3.97745  0
C  C45  1  0.95359345  0.49983773  0.99920990  1  -0.056431  0  0.00076  0.012644  0  3.951219  0
C  C46  1  0.49702310  0.81124895  0.92049885  1  -0.072221  0  -0.081961  -0.127674  0  3.927492  0
C  C47  1  0.49730856  0.90293901  0.92115525  1  0.059595  0  -0.013269  -0.008019  0  4.074368  0
C  C48  1  0.49384789  0.94946373  0.84577829  1  0.51713  0  0.088097  0.116781  0  4.090771  0
C  C49  1  0.50451093  0.81713664  0.07323411  1  0.032304  0  -0.080992  -0.125236  0  3.921016  0
C  C50  1  0.50479741  0.90887206  0.07569576  1  0.011049  0  -0.012536  -0.005326  0  4.070794  0
C  C51  1  0.50866667  0.96120842  0.15281162  1  0.480226  0  0.088643  0.115547  0  4.091236  0
C  C52  1  0.50468379  0.18886307  0.07959099  1  -0.075895  0  -0.081967  -0.127245  0  3.929395  0
C  C53  1  0.50483080  0.09718479  0.07896052  1  0.060782  0  -0.013486  -0.007863  0  4.075745  0
C  C54  1  0.50869227  0.05062897  0.15434001  1  0.514006  0  0.087347  0.115867  0  4.091219  0
C  C55  1  0.49691189  0.18295081  0.92687234  1  0.025317  0  -0.079797  -0.123579  0  3.919243  0
C  C56  1  0.49712443  0.09122067  0.92441057  1  -0.005451  0  -0.013037  -0.005499  0  4.072469  0
C  C57  1  0.49367447  0.03887830  0.84731360  1  0.479046  0  0.088345  0.115342  0  4.092037  0
C  C58  1  0.50056854  0.76896951  0.99607720  1  -0.014068  0  -0.013349  -0.014197  0  3.976946  0
C  C59  1  0.50108629  0.95358899  0.99925195  1  -0.073334  0  0.000888  0.013694  0  3.95157  0
C  C60  1  0.50067467  0.23112033  0.00401112  1  -0.013019  0  -0.014351  -0.015976  0  3.979855  0
C  C61  1  0.50103606  0.04652364  0.00086568  1  0.067739  0  0.001247  0.011523  0  3.954034  0
N  N62  1  0.48711445  0.48704509  0.78067917  1  -1.189702  0  -0.310391  -0.288873  0  3.462452  0
N  N63  1  0.47502846  0.47452305  0.51748651  1  -0.448622  0  -0.123564  -0.1072  0  3.211795  0
N  N64  1  0.52514161  0.52517912  0.48249235  1  -0.497421  0  -0.123399  -0.106355  0  3.211451  0
N  N65  1  0.51302300  0.51282728  0.21930888  1  -1.186843  0  -0.310558  -0.289273  0  3.463431  0
O  O66  1  0.63645629  0.50134973  0.06557829  1  -1.159334  0  -0.3175  -0.548952  0  2.344377  0
O  O67  1  0.62947248  0.49848482  0.92305130  1  -1.16482  0  -0.317724  -0.549264  0  2.320046  0
O  O68  1  0.49844873  0.62954356  0.92300614  1  -1.165535  0  -0.317844  -0.54919  0  2.319052  0
O  O69  1  0.50113472  0.63630551  0.06551561  1  -1.157949  0  -0.317189  -0.548944  0  2.344132  0
O  O70  1  0.36373680  0.49875915  0.93439961  1  -1.158893  0  -0.317098  -0.549026  0  2.34452  0
O  O71  1  0.37068635  0.50134354  0.07691261  1  -1.167507  0  -0.318061  -0.549522  0  2.320328  0
O  O72  1  0.50203831  0.37053104  0.07703441  1  -1.166182  0  -0.318332  -0.549818  0  2.31946  0
O  O73  1  0.49904186  0.36376190  0.93451920  1  -1.15837  0  -0.317667  -0.549403  0  2.344829  0
F  F74  1  0.38203281  0.38176890  0.77581230  1  -0.621675  0  -0.063707  -0.121877  0  1.332343  0
F  F75  1  0.61810754  0.61807624  0.22420600  1  -0.622132  0  -0.063376  -0.121699  0  1.33353  0
F  F76  1  0.90200586  0.48802654  0.77090231  1  -0.622716  0  -0.100085  -0.119934  0  1.346273  0
F  F77  1  0.07948043  0.48787858  0.77387854  1  -0.614888  0  -0.099207  -0.118401  0  1.345266  0
F  F78  1  0.92067839  0.51129250  0.22610133  1  -0.616822  0  -0.099079  -0.118554  0  1.345557  0
F  F79  1  0.09812660  0.51125165  0.22905792  1  -0.612694  0  -0.099871  -0.119619  0  1.346907  0
F  F80  1  0.49029851  0.08002076  0.77401190  1  -0.616411  0  -0.099167  -0.118396  0  1.346275  0
F  F81  1  0.49075498  0.90257705  0.77095242  1  -0.618153  0  -0.100165  -0.120014  0  1.346244  0
F  F82  1  0.51231942  0.09754647  0.22915034  1  -0.620363  0  -0.099729  -0.119589  0  1.34727  0
F  F83  1  0.51231157  0.92003608  0.22609173  1  -0.616222  0  -0.099203  -0.118328  0  1.346433  0
