# generated using pymatgen
data_V4ZnH4C4(NO5)2
_symmetry_space_group_name_H-M   'P 1'
_cell_length_a   6.96679746
_cell_length_b   7.98909295
_cell_length_c   11.56251116
_cell_angle_alpha   89.99976741
_cell_angle_beta   90.00020326
_cell_angle_gamma   115.85735092
_symmetry_Int_Tables_number   1
_chemical_formula_structural   V4ZnH4C4(NO5)2
_chemical_formula_sum   'V8 Zn2 H8 C8 N4 O20'
_cell_volume   579.12019790
_cell_formula_units_Z   2
loop_
 _symmetry_equiv_pos_site_id
 _symmetry_equiv_pos_as_xyz
  1  'x, y, z'
loop_
 _atom_site_type_symbol
 _atom_site_label
 _atom_site_symmetry_multiplicity
 _atom_site_fract_x
 _atom_site_fract_y
 _atom_site_fract_z
 _atom_site_occupancy
 _atom_site_hle17_ddec_charge
 _atom_site_hle17_ddec_spin_density
 _atom_site_hle17_ddec_sum_bond_order
 _atom_site_hle17_magmom
 _atom_site_hse06_10hf_bader_charge
 _atom_site_hse06_10hf_ddec_charge
 _atom_site_hse06_10hf_ddec_spin_density
 _atom_site_hse06_10hf_ddec_sum_bond_order
 _atom_site_hse06_10hf_magmom
 _atom_site_hse06_ddec_charge
 _atom_site_hse06_ddec_spin_density
 _atom_site_hse06_ddec_sum_bond_order
 _atom_site_hse06_magmom
 _atom_site_pbe_cm5_charge
 _atom_site_pbe_ddec_charge
 _atom_site_pbe_ddec_spin_density
 _atom_site_pbe_ddec_sum_bond_order
 _atom_site_pbe_magmom
V  V0  1  0.42381100  0.57608058  0.39581938  1  2.025463  -0.731801  2.686729  -0.741  2.155495  2.093363  -0.585175  3.050706  -0.595  2.181692  -0.654786  3.019212  -0.667  1.403737  2.022763  -0.545375  3.085604  -0.553
V  V1  1  0.15238257  0.57610607  0.60415878  1  2.025211  -0.732448  2.686234  -0.741  2.157331  2.09411  -0.58564  3.048757  -0.595  2.18147  -0.655659  3.018585  -0.668  1.403676  2.023732  -0.545718  3.083437  -0.553
V  V2  1  0.84763412  0.42390494  0.10416108  1  2.025194  -0.732117  2.686485  -0.741  2.157416  2.094125  -0.585561  3.048858  -0.595  2.181511  -0.655136  3.018826  -0.667  1.403717  2.023811  -0.545578  3.083469  -0.553
V  V3  1  0.57618900  0.42391658  0.89582619  1  2.025348  -0.732032  2.686915  -0.741  2.155529  2.093231  -0.585342  3.050851  -0.595  2.181482  -0.655273  3.019458  -0.668  1.403651  2.022708  -0.545392  3.085664  -0.553
V  V4  1  0.57619070  0.42391308  0.60417847  1  2.025516  -0.731847  2.686721  -0.741  2.155745  2.093456  -0.585164  3.050635  -0.595  2.181802  -0.654588  3.019172  -0.667  1.403743  2.022819  -0.545331  3.085594  -0.553
V  V5  1  0.84761843  0.42388619  0.39583734  1  2.025133  -0.732498  2.686171  -0.742  2.157538  2.094064  -0.585633  3.048657  -0.595  2.1814  -0.655724  3.018488  -0.668  1.403626  2.023685  -0.545705  3.083343  -0.553
V  V6  1  0.15237226  0.57610957  0.89583677  1  2.025173  -0.732338  2.686471  -0.741  2.157588  2.09407  -0.585549  3.048906  -0.595  2.181468  -0.655182  3.018843  -0.667  1.403708  2.023745  -0.545554  3.083534  -0.553
V  V7  1  0.42381386  0.57609376  0.10417426  1  2.025385  -0.731891  2.686887  -0.741  2.155718  2.093334  -0.58533  3.050684  -0.595  2.181531  -0.654995  3.019459  -0.668  1.403687  2.022796  -0.545351  3.085522  -0.553
Zn  Zn8  1  0.67779728  0.00000609  0.25000091  1  1.123953  0.011731  1.956015  0.004  1.373145  1.009955  0.010277  2.395533  0.004  1.053045  0.011261  2.33925  0.004  0.713354  0.980086  0.009941  2.434283  0.004
Zn  Zn9  1  0.32220072  0.99999451  0.75000040  1  1.123964  0.011741  1.955953  0.004  1.373223  1.009965  0.010276  2.395486  0.004  1.053057  0.011261  2.339201  0.004  0.713347  0.980093  0.009941  2.434237  0.004
H  H10  1  0.99239089  0.00009036  0.07283039  1  0.091382  0.000341  0.975207  0.0  0.121992  0.101872  0.000295  1.033426  0.0  0.104583  0.000327  1.031927  0.0  0.128203  0.099897  0.000267  1.034907  0.0
H  H11  1  0.00760715  0.99990747  0.92717092  1  0.091383  0.00034  0.97517  0.0  0.118033  0.101884  0.000295  1.033377  0.0  0.104596  0.000327  1.03188  0.0  0.128197  0.099908  0.000267  1.034859  0.0
H  H12  1  0.99238579  0.00008955  0.42717470  1  0.091375  0.000341  0.975202  0.0  0.11798  0.101865  0.000295  1.033425  0.0  0.104571  0.000327  1.031942  0.0  0.128204  0.099893  0.000267  1.034917  0.0
H  H13  1  0.00760795  0.99990828  0.57282575  1  0.091355  0.000339  0.975182  0.0  0.121957  0.101839  0.000295  1.033412  0.0  0.104544  0.000327  1.031933  0.0  0.128182  0.099864  0.000267  1.034906  0.0
H  H14  1  0.35898308  0.00000027  0.06957696  1  0.119278  0.000652  0.928617  0.0  0.165163  0.127436  0.000552  0.987635  0.0  0.131346  0.000599  0.984232  0.0  0.134019  0.124749  0.000518  0.990194  0.0
H  H15  1  0.64101427  0.99999616  0.93042608  1  0.119285  0.00065  0.928652  0.0  0.165126  0.127491  0.000552  0.987628  0.0  0.131402  0.000599  0.984221  0.0  0.134022  0.1248  0.000518  0.990196  0.0
H  H16  1  0.35898081  0.00000223  0.43042937  1  0.119281  0.000651  0.928733  0.0  0.165202  0.127523  0.000552  0.987678  0.0  0.131435  0.000599  0.984271  0.0  0.134041  0.124836  0.000518  0.990253  0.0
H  H17  1  0.64101366  0.99999421  0.56957280  1  0.119362  0.000649  0.928792  0.0  0.165216  0.127587  0.000552  0.987739  0.0  0.131499  0.000599  0.984331  0.0  0.134078  0.124899  0.000518  0.990316  0.0
C  C18  1  0.07842331  0.00009363  0.15083669  1  0.101454  0.000674  3.629905  0.0  0.51556  0.068689  0.000343  3.879111  0.0  0.06896  0.000415  3.897814  0.0  0.076912  0.067977  0.000111  3.867626  0.0
C  C19  1  0.92157404  0.99990280  0.84916462  1  0.101584  0.000663  3.629751  0.0  0.515558  0.068807  0.000343  3.878978  0.0  0.069074  0.000414  3.897675  0.0  0.076987  0.068093  0.000111  3.867494  0.0
C  C20  1  0.07842223  0.00009318  0.34916472  1  0.10141  0.000669  3.630053  0.0  0.51557  0.068684  0.000343  3.879291  0.0  0.068952  0.000415  3.89799  0.0  0.07693  0.067964  0.000111  3.867833  0.0
C  C21  1  0.92157299  0.99990187  0.65083659  1  0.101414  0.000658  3.630064  0.0  0.515962  0.068689  0.000344  3.879304  0.0  0.068952  0.000413  3.898002  0.0  0.076923  0.067971  0.000111  3.867843  0.0
C  C22  1  0.27782411  0.00000608  0.15002653  1  0.118172  0.000399  3.602272  0.0  0.561449  0.088159  0.000389  3.852185  0.0  0.091747  0.000411  3.868903  0.0  0.082629  0.08533  0.000182  3.841757  0.0
C  C23  1  0.72217111  0.99998896  0.84997478  1  0.118143  0.000419  3.602393  0.0  0.561425  0.088086  0.000387  3.852292  0.0  0.091681  0.000413  3.869002  0.0  0.082619  0.085258  0.000182  3.841863  0.0
C  C24  1  0.27782012  0.00000841  0.34998136  1  0.118234  0.000411  3.602181  0.0  0.561568  0.088085  0.000389  3.852192  0.0  0.091676  0.000411  3.868901  0.0  0.082594  0.085251  0.000181  3.841791  0.0
C  C25  1  0.72217436  0.99998802  0.65001995  1  0.118154  0.000422  3.602352  0.0  0.561566  0.088008  0.000387  3.852361  0.0  0.091603  0.000413  3.869068  0.0  0.082526  0.085174  0.000181  3.84196  0.0
N  N26  1  0.98046543  0.00010589  0.25000383  1  -0.247637  0.002294  3.282492  0.002  -1.257121  -0.172653  0.00184  3.533084  0.001  -0.185349  0.001576  3.549918  0.001  -0.294136  -0.164373  0.001493  3.522852  0.001
N  N27  1  0.01953118  0.99989193  0.74999662  1  -0.247696  0.002307  3.282431  0.002  -1.257467  -0.172692  0.00184  3.533012  0.001  -0.185383  0.001578  3.54984  0.001  -0.29417  -0.164408  0.001493  3.522776  0.001
N  N28  1  0.37531007  0.99998371  0.25000180  1  -0.265067  0.002959  3.252292  0.003  -1.25149  -0.19316  0.002079  3.507915  0.002  -0.208645  0.001943  3.524707  0.002  -0.288473  -0.182858  0.001562  3.497205  0.001
N  N29  1  0.62468584  0.00001272  0.75000037  1  -0.265113  0.002951  3.252453  0.003  -1.251536  -0.19319  0.002081  3.508067  0.002  -0.208681  0.001941  3.524856  0.002  -0.288429  -0.18289  0.001562  3.497359  0.001
O  O30  1  0.40257482  0.54596954  0.56941750  1  -1.108353  0.020976  1.731815  0.042  -1.136235  -1.136777  -0.01516  2.053693  0.009  -1.190909  -0.014252  2.052878  0.012  -0.717151  -1.096259  -0.018914  2.055375  0.005
O  O31  1  0.14342340  0.54578796  0.43058060  1  -1.107969  0.021046  1.730603  0.042  -1.136267  -1.13659  -0.015149  2.052411  0.009  -1.190488  -0.014238  2.051506  0.012  -0.717053  -1.096142  -0.018891  2.054138  0.005
O  O32  1  0.85657626  0.45419374  0.93057928  1  -1.107926  0.021043  1.73065  0.042  -1.136447  -1.13658  -0.015156  2.052417  0.009  -1.190432  -0.014257  2.051535  0.012  -0.717069  -1.09614  -0.018886  2.054114  0.005
O  O33  1  0.59744879  0.45404998  0.06941659  1  -1.10825  0.02099  1.731838  0.042  -1.136285  -1.136716  -0.015167  2.053688  0.009  -1.190777  -0.014251  2.052904  0.012  -0.717104  -1.096215  -0.018902  2.055339  0.005
O  O34  1  0.59741770  0.45401438  0.43058035  1  -1.108324  0.021016  1.731781  0.042  -1.136142  -1.136741  -0.015164  2.053636  0.009  -1.190869  -0.014253  2.052811  0.012  -0.717128  -1.096223  -0.018914  2.055313  0.005
O  O35  1  0.85658038  0.45420986  0.56941984  1  -1.107956  0.021039  1.730599  0.042  -1.136362  -1.136604  -0.015147  2.052416  0.009  -1.190492  -0.014246  2.051508  0.012  -0.717059  -1.096148  -0.018891  2.054147  0.005
O  O36  1  0.14342591  0.54581521  0.06942030  1  -1.107967  0.021038  1.730632  0.042  -1.136329  -1.136653  -0.015162  2.052411  0.009  -1.190476  -0.014249  2.051539  0.012  -0.717119  -1.096209  -0.018891  2.054109  0.005
O  O37  1  0.40257034  0.54597567  0.93058040  1  -1.108268  0.02102  1.731842  0.042  -1.13609  -1.136734  -0.015165  2.053722  0.009  -1.190816  -0.01427  2.052933  0.012  -0.717091  -1.096232  -0.018905  2.055371  0.005
O  O38  1  0.57894809  0.79993156  0.38089687  1  -0.830319  0.108615  1.505277  0.1  -0.924134  -0.836535  0.043838  1.810636  0.042  -0.87322  0.062006  1.798615  0.059  -0.594356  -0.810902  0.034495  1.820428  0.033
O  O39  1  0.22097963  0.79993482  0.61904285  1  -0.82981  0.108819  1.505187  0.1  -0.924047  -0.836521  0.043973  1.810576  0.042  -0.872936  0.062243  1.798764  0.059  -0.594232  -0.81098  0.034589  1.820344  0.033
O  O40  1  0.77903555  0.20008446  0.11905082  1  -0.82979  0.108666  1.505388  0.1  -0.923898  -0.836487  0.043955  1.810702  0.042  -0.872849  0.062176  1.798904  0.059  -0.594201  -0.810979  0.034577  1.820481  0.033
O  O41  1  0.42104330  0.20006288  0.88090311  1  -0.830352  0.108703  1.505256  0.1  -0.924299  -0.836586  0.043848  1.810637  0.042  -0.873297  0.062053  1.798642  0.059  -0.594366  -0.810937  0.0345  1.820358  0.033
O  O42  1  0.42105861  0.20006348  0.61910617  1  -0.830289  0.108676  1.505202  0.1  -0.924247  -0.836531  0.043841  1.810593  0.042  -0.873192  0.062  1.798567  0.059  -0.594345  -0.810879  0.03449  1.820375  0.033
O  O43  1  0.77902480  0.20006717  0.38095240  1  -0.829754  0.10882  1.505213  0.1  -0.924148  -0.836443  0.043959  1.810561  0.042  -0.872856  0.062227  1.79875  0.059  -0.594199  -0.81091  0.03458  1.820336  0.033
O  O44  1  0.22096023  0.79992031  0.88094876  1  -0.829726  0.10876  1.505353  0.1  -0.924047  -0.836394  0.043949  1.810676  0.042  -0.872766  0.062176  1.798879  0.059  -0.594225  -0.810888  0.034571  1.820454  0.033
O  O45  1  0.57895248  0.79994190  0.11909907  1  -0.830273  0.108626  1.505297  0.1  -0.924354  -0.836498  0.043846  1.81064  0.042  -0.87316  0.062012  1.798668  0.059  -0.594319  -0.810854  0.034493  1.820383  0.033
O  O46  1  0.36532457  0.49162179  0.24999644  1  -0.910104  0.194234  1.533407  0.199  -0.986621  -0.948913  0.104741  1.835524  0.121  -0.961721  0.20552  1.817106  0.214  -0.671849  -0.926194  0.052193  1.844323  0.072
O  O47  1  0.12655732  0.49166676  0.74999916  1  -0.910269  0.194215  1.532639  0.199  -0.986882  -0.94972  0.104628  1.834669  0.121  -0.962005  0.205414  1.816452  0.214  -0.671693  -0.92713  0.052106  1.84344  0.072
O  O48  1  0.87344628  0.50834219  0.25000128  1  -0.910258  0.194138  1.532535  0.199  -0.986915  -0.949732  0.104633  1.834553  0.121  -0.962008  0.20541  1.816338  0.214  -0.671703  -0.927146  0.052106  1.843321  0.072
O  O49  1  0.63467773  0.50837881  0.75000055  1  -0.910138  0.194271  1.533432  0.199  -0.986686  -0.948926  0.104748  1.835546  0.121  -0.961748  0.205556  1.817107  0.214  -0.671844  -0.926207  0.052198  1.844352  0.072
