# generated using pymatgen
data_CuH10C5N2O5
_symmetry_space_group_name_H-M   'P 1'
_cell_length_a   6.35591331
_cell_length_b   9.06171007
_cell_length_c   13.56796316
_cell_angle_alpha   89.99701168
_cell_angle_beta   98.25548256
_cell_angle_gamma   90.00175076
_symmetry_Int_Tables_number   1
_chemical_formula_structural   CuH10C5N2O5
_chemical_formula_sum   'Cu4 H40 C20 N8 O20'
_cell_volume   773.35516905
_cell_formula_units_Z   4
loop_
 _symmetry_equiv_pos_site_id
 _symmetry_equiv_pos_as_xyz
  1  'x, y, z'
loop_
 _atom_site_type_symbol
 _atom_site_label
 _atom_site_symmetry_multiplicity
 _atom_site_fract_x
 _atom_site_fract_y
 _atom_site_fract_z
 _atom_site_occupancy
 _atom_site_pbe_cm5_charge
 _atom_site_pbe_ddec_charge
 _atom_site_pbe_ddec_spin_density
 _atom_site_pbe_ddec_sum_bond_order
 _atom_site_pbe_magmom
Cu  Cu0  1  0.74670302  0.39883076  0.35671329  1  0.709198  0.758667  0.734898  2.212222  0.55
Cu  Cu1  1  0.25329995  0.89879074  0.14326967  1  0.709065  0.758627  0.734885  2.212265  0.551
Cu  Cu2  1  0.25330728  0.60115670  0.64329201  1  0.709276  0.758704  -0.734921  2.212305  -0.551
Cu  Cu3  1  0.74672625  0.10119231  0.85672712  1  0.709025  0.758736  -0.734884  2.211871  -0.551
H  H4  1  0.42238308  0.21532303  0.39409842  1  0.291043  0.336395  6.4e-05  1.004711  0.0
H  H5  1  0.57752745  0.71531807  0.10592944  1  0.291018  0.336181  6.4e-05  1.005297  0.0
H  H6  1  0.57761767  0.78464568  0.60591583  1  0.290998  0.336231  -6.4e-05  1.004927  0.0
H  H7  1  0.42244630  0.28467160  0.89404097  1  0.291144  0.336224  -6.4e-05  1.005084  0.0
H  H8  1  0.43194726  0.54737350  0.40988465  1  0.295036  0.299662  0.001215  0.953414  0.002
H  H9  1  0.56818777  0.04737073  0.09018092  1  0.295091  0.299701  0.001214  0.95365  0.002
H  H10  1  0.56807894  0.45262169  0.59011878  1  0.295027  0.299678  -0.001215  0.953451  -0.002
H  H11  1  0.43180981  0.95264652  0.90981100  1  0.29508  0.299547  -0.001213  0.953975  -0.002
H  H12  1  0.57970698  0.64160388  0.34261635  1  0.294324  0.274633  -6e-06  0.979214  0.0
H  H13  1  0.42032334  0.14155622  0.15740142  1  0.294446  0.274883  -8e-06  0.978878  0.0
H  H14  1  0.42032557  0.35838468  0.65740004  1  0.294329  0.27465  6e-06  0.979113  0.0
H  H15  1  0.57963768  0.85843014  0.84258730  1  0.294458  0.274795  8e-06  0.979007  0.0
H  H16  1  0.85737709  0.55380928  0.22012700  1  0.297824  0.288779  0.000989  0.954264  0.0
H  H17  1  0.14265647  0.05370186  0.27984971  1  0.297798  0.288769  0.000988  0.954748  0.0
H  H18  1  0.14263797  0.44618701  0.77989926  1  0.297749  0.288736  -0.00099  0.954272  0.0
H  H19  1  0.85737770  0.94628450  0.72012035  1  0.297683  0.288612  -0.000989  0.954766  0.0
H  H20  1  0.90154684  0.37573166  0.19793474  1  0.293983  0.295024  0.000998  0.975859  0.001
H  H21  1  0.09852364  0.87564580  0.30208156  1  0.294011  0.295088  0.000997  0.975912  0.001
H  H22  1  0.09844914  0.62427456  0.80207108  1  0.293998  0.295057  -0.000999  0.975673  -0.001
H  H23  1  0.90148666  0.12434387  0.69789943  1  0.294068  0.295172  -0.000997  0.975517  -0.001
H  H24  1  0.28125179  0.40706563  0.26027124  1  0.109668  0.102813  0.001018  0.99972  0.002
H  H25  1  0.71883408  0.90708696  0.23983644  1  0.109781  0.102633  0.001018  0.99963  0.002
H  H26  1  0.71876328  0.59294611  0.73972555  1  0.109654  0.102648  -0.001017  0.999708  -0.002
H  H27  1  0.28114443  0.09291044  0.76015198  1  0.109828  0.102704  -0.001017  0.999586  -0.002
H  H28  1  0.20886142  0.59665033  0.26497825  1  0.10412  0.088463  0.005152  1.017237  0.007
H  H29  1  0.79115454  0.09667463  0.23509092  1  0.104078  0.088344  0.005151  1.017179  0.007
H  H30  1  0.79114728  0.40336031  0.73503285  1  0.104075  0.088403  -0.005148  1.017292  -0.007
H  H31  1  0.20883191  0.90331945  0.76490246  1  0.104134  0.08843  -0.005154  1.017048  -0.007
H  H32  1  0.70898925  0.03321669  0.39832079  1  0.100299  0.041229  -0.000231  0.973339  0.0
H  H33  1  0.29098629  0.53320287  0.10175146  1  0.100324  0.041306  -0.000231  0.973358  0.0
H  H34  1  0.29101788  0.96675753  0.60166882  1  0.10038  0.041412  0.000231  0.973268  0.0
H  H35  1  0.70898744  0.46676694  0.89824254  1  0.100352  0.041334  0.000231  0.97378  0.0
H  H36  1  0.53993603  0.33276622  0.13450740  1  0.110684  0.095928  0.000702  1.02042  0.001
H  H37  1  0.46019809  0.83274997  0.36554337  1  0.110583  0.095835  0.000705  1.020376  0.001
H  H38  1  0.46006791  0.66724221  0.86550337  1  0.110632  0.095915  -0.000701  1.020655  -0.001
H  H39  1  0.53980426  0.16723087  0.63445477  1  0.110613  0.095904  -0.000704  1.020473  -0.001
H  H40  1  0.64533316  0.47386813  0.06693732  1  0.103715  0.083146  0.005018  0.994647  0.006
H  H41  1  0.35462001  0.97377252  0.43307957  1  0.103631  0.083209  0.005024  0.99463  0.006
H  H42  1  0.35468508  0.52613810  0.93307736  1  0.103642  0.08317  -0.005016  0.994511  -0.006
H  H43  1  0.64535373  0.02621384  0.56691222  1  0.103594  0.083134  -0.005021  0.994762  -0.006
C  C44  1  0.34149109  0.52043010  0.25945380  1  -0.081855  -0.055559  0.001971  3.850477  0.0
C  C45  1  0.65854759  0.02043357  0.24061208  1  -0.081946  -0.055105  0.001973  3.850188  0.0
C  C46  1  0.65852715  0.47957833  0.74055793  1  -0.081723  -0.055058  -0.00197  3.850077  0.0
C  C47  1  0.34144205  0.97956382  0.75938078  1  -0.082048  -0.055263  -0.001977  3.85029  0.0
C  C48  1  0.57435837  0.04957779  0.33799411  1  -0.005229  0.186001  0.001055  3.882632  0.002
C  C49  1  0.42560981  0.54958503  0.16205868  1  -0.00518  0.186123  0.001057  3.882732  0.002
C  C50  1  0.42563285  0.95040636  0.66200107  1  -0.00533  0.185739  -0.001056  3.882845  -0.002
C  C51  1  0.57439571  0.45041126  0.83794778  1  -0.00525  0.185927  -0.001057  3.883219  -0.002
C  C52  1  0.60172686  0.44539547  0.14030028  1  -0.079386  -0.056101  0.002068  3.888276  0.0
C  C53  1  0.39827299  0.94535084  0.35972440  1  -0.078961  -0.055746  0.002072  3.888181  0.0
C  C54  1  0.39831047  0.55461737  0.85970980  1  -0.079245  -0.056129  -0.002066  3.888128  0.0
C  C55  1  0.60172778  0.05463552  0.64026552  1  -0.078911  -0.055686  -0.002072  3.888296  0.0
C  C56  1  0.10300413  0.27444929  0.46268287  1  0.198878  0.45713  -0.000351  4.223159  -0.002
C  C57  1  0.89691012  0.77439466  0.03730936  1  0.19886  0.45729  -0.000347  4.222449  -0.002
C  C58  1  0.89700298  0.72553375  0.53732665  1  0.198885  0.456941  0.00035  4.22325  0.002
C  C59  1  0.10305408  0.22562812  0.96268621  1  0.198968  0.457217  0.000343  4.221987  0.002
C  C60  1  0.96225565  0.31928420  0.54224192  1  0.195252  0.448263  -0.000509  4.264505  -0.002
C  C61  1  0.03769985  0.81928160  0.95772631  1  0.195171  0.448047  -0.000507  4.264955  -0.002
C  C62  1  0.03777849  0.68073858  0.45776794  1  0.195269  0.448312  0.00051  4.263521  0.002
C  C63  1  0.96225480  0.18074890  0.04228409  1  0.19541  0.44862  0.000506  4.263935  0.002
N  N64  1  0.50594423  0.54153022  0.34714732  1  -0.646486  -0.5407  0.073603  3.410617  0.09
N  N65  1  0.49412860  0.04149548  0.15289289  1  -0.646612  -0.541097  0.073571  3.410111  0.09
N  N66  1  0.49406130  0.45847490  0.65285472  1  -0.646539  -0.54096  -0.073595  3.410648  -0.09
N  N67  1  0.50586580  0.95850744  0.84709513  1  -0.646502  -0.540758  -0.073573  3.410568  -0.09
N  N68  1  0.79126874  0.45014840  0.21670008  1  -0.641492  -0.543388  0.075633  3.405162  0.092
N  N69  1  0.20878216  0.95005418  0.28331461  1  -0.641616  -0.543635  0.075643  3.406334  0.092
N  N70  1  0.20873043  0.54986114  0.78330594  1  -0.641417  -0.543336  -0.075631  3.404668  -0.092
N  N71  1  0.79123610  0.04992997  0.71666765  1  -0.64149  -0.543579  -0.075625  3.405865  -0.092
O  O72  1  0.50303749  0.20003549  0.33599905  1  -0.409682  -0.539695  -6e-06  2.368666  0.001
O  O73  1  0.49690907  0.70004404  0.16401996  1  -0.409557  -0.539207  -4e-06  2.369391  0.001
O  O74  1  0.49695691  0.79995197  0.66400887  1  -0.409565  -0.539388  7e-06  2.369166  -0.001
O  O75  1  0.50302811  0.29997542  0.83595905  1  -0.4097  -0.539151  2e-06  2.369231  -0.001
O  O76  1  0.01217980  0.28000176  0.37179125  1  -0.326773  -0.513374  0.055212  2.364648  0.075
O  O77  1  0.98787456  0.77993833  0.12820138  1  -0.326866  -0.513603  0.055222  2.363914  0.075
O  O78  1  0.98780824  0.71995811  0.62820961  1  -0.326846  -0.513397  -0.055191  2.365171  -0.075
O  O79  1  0.01208804  0.22010762  0.87180882  1  -0.32671  -0.51351  -0.055178  2.364653  -0.075
O  O80  1  0.29136036  0.23493994  0.48960260  1  -0.289882  -0.478793  0.011036  2.255092  0.015
O  O81  1  0.70856997  0.73490016  0.01039129  1  -0.289699  -0.478555  0.01103  2.25541  0.015
O  O82  1  0.70862928  0.76502876  0.51039247  1  -0.289873  -0.478652  -0.01104  2.254722  -0.015
O  O83  1  0.29146257  0.26508730  0.98963615  1  -0.289901  -0.478779  -0.011046  2.254391  -0.015
O  O84  1  0.78703015  0.38489617  0.50677977  1  -0.322739  -0.523338  0.048782  2.360837  0.067
O  O85  1  0.21287681  0.88494176  0.99320215  1  -0.322801  -0.523389  0.048759  2.361093  0.067
O  O86  1  0.21298650  0.61510123  0.49322081  1  -0.322658  -0.523213  -0.048789  2.360764  -0.067
O  O87  1  0.78711600  0.11504791  0.00679608  1  -0.322854  -0.523633  -0.048773  2.360884  -0.067
O  O88  1  0.02222206  0.29018479  0.63178218  1  -0.300682  -0.505634  0.012636  2.228823  0.016
O  O89  1  0.97769583  0.79013924  0.86818744  1  -0.300608  -0.505424  0.012634  2.228885  0.016
O  O90  1  0.97781845  0.70989317  0.36821631  1  -0.300749  -0.505647  -0.012651  2.22788  -0.016
O  O91  1  0.02226200  0.20994644  0.13181728  1  -0.300793  -0.505642  -0.012649  2.228465  -0.016
