# generated using pymatgen
data_ZnH17C20NO5
_symmetry_space_group_name_H-M   'P 1'
_cell_length_a   13.90475618
_cell_length_b   14.73538644
_cell_length_c   16.14279651
_cell_angle_alpha   89.87914217
_cell_angle_beta   90.33627712
_cell_angle_gamma   98.12903096
_symmetry_Int_Tables_number   1
_chemical_formula_structural   ZnH17C20NO5
_chemical_formula_sum   'Zn2 H34 C40 N2 O10'
_cell_volume   3274.23642119
_cell_formula_units_Z   2
loop_
 _symmetry_equiv_pos_site_id
 _symmetry_equiv_pos_as_xyz
  1  'x, y, z'
loop_
 _atom_site_type_symbol
 _atom_site_label
 _atom_site_symmetry_multiplicity
 _atom_site_fract_x
 _atom_site_fract_y
 _atom_site_fract_z
 _atom_site_occupancy
 _atom_site_pbe_bader_charge
 _atom_site_pbe_bader_spin_density
 _atom_site_pbe_cm5_charge
 _atom_site_pbe_ddec_charge
 _atom_site_pbe_ddec_spin_density
 _atom_site_pbe_ddec_sum_bond_order
 _atom_site_pbe_magmom
Zn  Zn0  1  0.50087857  0.40435806  0.50038275  1  1.318798  0  0.684852  0.890205  0  2.4365  0
Zn  Zn1  1  0.49913436  0.59564981  0.49961136  1  1.320552  0  0.684965  0.890196  0  2.436189  0
H  H2  1  0.96689858  0.39580491  0.50638109  1  0.097588  0  0.113642  0.113145  0  0.985531  0
H  H3  1  0.56200428  0.77272534  0.99918376  1  0.018854  0  0.086088  0.11102  0  1.005031  0
H  H4  1  0.43295666  0.75450996  0.99910228  1  0.022474  0  0.085891  0.111114  0  1.005087  0
H  H5  1  0.49737668  0.81904216  0.07957632  1  0.032624  0  0.08804  0.11479  0  1.00045  0
H  H6  1  0.43580451  0.66362874  0.13295805  1  0.061997  0  0.098835  0.098043  0  0.962068  0
H  H7  1  0.56215210  0.68147058  0.13317749  1  0.039973  0  0.098451  0.097781  0  0.961631  0
H  H8  1  0.23862285  0.90533848  0.55322343  1  0.042978  0  0.099354  0.054832  0  0.969459  0
H  H9  1  0.31294504  0.81656140  0.56567636  1  0.046801  0  0.102387  0.061214  0  0.979502  0
H  H10  1  0.21936034  0.72334022  0.45560997  1  0.085832  0  0.102336  0.146066  0  0.980858  0
H  H11  1  0.13950571  0.75232509  0.53418759  1  0.021463  0  0.099182  0.131571  0  0.990412  0
H  H12  1  0.14650821  0.81244824  0.43809786  1  0.043548  0  0.096121  0.130018  0  0.986806  0
H  H13  1  0.03310504  0.60419333  0.49361053  1  0.097695  0  0.113655  0.113123  0  0.985527  0
H  H14  1  0.68706570  0.18345605  0.43432144  1  0.046584  0  0.102306  0.061137  0  0.979708  0
H  H15  1  0.76137911  0.09467824  0.44676382  1  0.043391  0  0.099338  0.054807  0  0.969541  0
H  H16  1  0.85349984  0.18755070  0.56189749  1  0.043639  0  0.096123  0.129963  0  0.986754  0
H  H17  1  0.86049893  0.24768480  0.46581641  1  0.021181  0  0.099218  0.131635  0  0.990396  0
H  H18  1  0.78065008  0.27666490  0.54439467  1  0.085824  0  0.102362  0.146029  0  0.980849  0
H  H19  1  0.40360799  0.16190874  0.34073917  1  0.053435  0  0.091391  0.122367  0  1.000493  0
H  H20  1  0.34513694  0.05028441  0.31383594  1  0.046394  0  0.089728  0.118507  0  0.996201  0
H  H21  1  0.27525360  0.14071129  0.33157898  1  0.042215  0  0.097999  0.130906  0  0.981631  0
H  H22  1  0.26368849  0.03683526  0.45400843  1  0.038545  0  0.102058  0.101635  0  0.981212  0
H  H23  1  0.32486045  0.14658441  0.48129832  1  0.070191  0  0.104897  0.109238  0  0.965528  0
H  H24  1  0.50112436  0.35585606  0.07905663  1  0.073672  0  0.104391  0.110795  0  1.012728  0
H  H25  1  0.65486728  0.94971794  0.68615630  1  0.046476  0  0.089719  0.118537  0  0.99632  0
H  H26  1  0.59639527  0.83809702  0.65924872  1  0.053619  0  0.091325  0.12228  0  1.000483  0
H  H27  1  0.72474650  0.85929241  0.66841262  1  0.042261  0  0.098019  0.130937  0  0.981602  0
H  H28  1  0.67514537  0.85342411  0.51869143  1  0.070036  0  0.10489  0.109279  0  0.965559  0
H  H29  1  0.73631703  0.96317600  0.54598503  1  0.038524  0  0.102144  0.101767  0  0.981479  0
H  H30  1  0.49882999  0.64411453  0.92093990  1  0.073883  0  0.104463  0.11081  0  1.012568  0
H  H31  1  0.56690889  0.24542320  0.00090465  1  0.023225  0  0.085892  0.11088  0  1.004216  0
H  H32  1  0.43786054  0.22726330  0.00079643  1  0.019536  0  0.086052  0.110948  0  1.004875  0
H  H33  1  0.50249042  0.18091704  0.92041756  1  0.031175  0  0.087919  0.114614  0  1.000473  0
H  H34  1  0.43780650  0.31853016  0.86679421  1  0.039597  0  0.098317  0.097573  0  0.961533  0
H  H35  1  0.56415394  0.33631996  0.86705897  1  0.062945  0  0.09883  0.097917  0  0.96217  0
C  C36  1  0.50020064  0.49980397  0.33914314  1  1.707375  0  0.216253  0.668502  0  4.245813  0
C  C37  1  0.41194233  0.94548737  0.47785279  1  0.613227  0  0.098482  0.164034  0  4.059314  0
C  C38  1  0.51132625  0.19006377  0.49789418  1  0.91061  0  0.243029  0.321932  0  3.969558  0
C  C39  1  0.48868376  0.80993861  0.50210613  1  0.910927  0  0.243187  0.322252  0  3.969547  0
C  C40  1  0.31044062  0.46300392  0.49913425  1  1.692576  0  0.214949  0.661622  0  4.250582  0
C  C41  1  0.68956485  0.53701693  0.50086229  1  1.692669  0  0.215121  0.662069  0  4.250366  0
C  C42  1  0.79450897  0.54663219  0.50027410  1  0.202943  0  -0.039661  -0.175989  0  3.939742  0
C  C43  1  0.20549249  0.45337083  0.49972433  1  0.202961  0  -0.039689  -0.175925  0  3.939927  0
C  C44  1  0.98204245  0.54075009  0.49801141  1  0.145518  0  -0.062818  -0.044059  0  4.057003  0
C  C45  1  0.01795707  0.45924949  0.50198454  1  0.052288  0  -0.06274  -0.043951  0  4.056752  0
C  C46  1  0.11782845  0.45406614  0.50076843  1  -0.539481  0  -0.041639  -0.02396  0  4.176824  0
C  C47  1  0.49980542  0.50022100  0.66085402  1  1.707539  0  0.216258  0.66841  0  4.245937  0
C  C48  1  0.88217806  0.54593210  0.49922692  1  -0.539472  0  -0.041713  -0.023967  0  4.176717  0
C  C49  1  0.50057545  0.41498288  0.95678370  1  -0.06711  0  -0.000157  0.08049  0  3.92148  0
C  C50  1  0.49938279  0.58499459  0.04322149  1  -0.065941  0  -0.000291  0.080217  0  3.92186  0
C  C51  1  0.49994005  0.49891778  0.91341483  1  0.088135  0  -0.001077  0.073739  0  4.10268  0
C  C52  1  0.50002722  0.50106247  0.08658852  1  0.089087  0  -0.001129  0.073947  0  4.102602  0
C  C53  1  0.49936559  0.58166661  0.95711738  1  0.038828  0  -0.085569  -0.179487  0  3.943297  0
C  C54  1  0.50059860  0.41831225  0.04288473  1  0.038075  0  -0.085632  -0.179746  0  3.943465  0
C  C55  1  0.49987147  0.50031042  0.82577060  1  -0.575548  0  -0.031143  -0.043002  0  4.128596  0
C  C56  1  0.50010097  0.49966095  0.17422659  1  -0.57513  0  -0.031084  -0.042805  0  4.128027  0
C  C57  1  0.50114494  0.32714231  0.90895761  1  -0.012036  0  -0.155377  -0.135982  0  3.987243  0
C  C58  1  0.50006448  0.49975964  0.24976757  1  0.210927  0  -0.048184  -0.190504  0  3.964444  0
C  C59  1  0.50212818  0.24068877  0.96089933  1  -0.065246  0  -0.244311  -0.353867  0  3.997811  0
C  C60  1  0.49879396  0.67283095  0.09103825  1  -0.013394  0  -0.15555  -0.136284  0  3.987575  0
C  C61  1  0.49774072  0.75927798  0.03909082  1  -0.064573  0  -0.244415  -0.354343  0  3.9986  0
C  C62  1  0.26818372  0.84929344  0.52120535  1  0.381856  0  -0.060689  0.089016  0  3.90008  0
C  C63  1  0.18888538  0.78024589  0.48451901  1  -0.056959  0  -0.238186  -0.397053  0  3.961829  0
C  C64  1  0.73182158  0.15072125  0.47878996  1  0.381548  0  -0.060584  0.089042  0  3.899995  0
C  C65  1  0.81112284  0.21976401  0.51547942  1  -0.05672  0  -0.238266  -0.396991  0  3.961541  0
C  C66  1  0.33054193  0.08489978  0.44437693  1  0.011412  0  -0.154698  -0.143971  0  3.974262  0
C  C67  1  0.33941263  0.11086517  0.35207074  1  -0.082575  0  -0.234824  -0.346682  0  3.928786  0
C  C68  1  0.66946865  0.91510670  0.55561779  1  0.011703  0  -0.154679  -0.144065  0  3.974445  0
C  C69  1  0.49993424  0.50024406  0.75024076  1  0.211076  0  -0.048203  -0.190227  0  3.964661  0
C  C70  1  0.66059444  0.88914199  0.64792087  1  -0.082908  0  -0.234813  -0.346686  0  3.928764  0
C  C71  1  0.41568307  0.04085282  0.47420023  1  0.001158  0  0.009239  0.024644  0  3.925478  0
C  C72  1  0.58431951  0.95915295  0.52579881  1  0.000943  0  0.009169  0.024539  0  3.925709  0
C  C73  1  0.50500730  0.09329211  0.49703925  1  0.08304  0  0.006049  -0.09453  0  4.081146  0
C  C74  1  0.49500113  0.90671437  0.50295856  1  0.082498  0  0.006132  -0.094475  0  4.081076  0
C  C75  1  0.58806865  0.05451706  0.52213760  1  0.613605  0  0.098465  0.164036  0  4.059574  0
N  N76  1  0.48567071  0.73084800  0.50103169  1  -1.184092  0  -0.274834  -0.287493  0  3.099693  0
N  N77  1  0.51433833  0.26916259  0.49896798  1  -1.18413  0  -0.274766  -0.287304  0  3.099549  0
O  O78  1  0.49901661  0.42219502  0.37452844  1  -1.139675  0  -0.318479  -0.551359  0  2.263598  0
O  O79  1  0.67015040  0.11064662  0.54637009  1  -1.067512  0  -0.196198  -0.230441  0  2.494663  0
O  O80  1  0.50098104  0.57781141  0.62547183  1  -1.139975  0  -0.318319  -0.551198  0  2.264328  0
O  O81  1  0.50153813  0.57749300  0.37410435  1  -1.136743  0  -0.317086  -0.547173  0  2.259534  0
O  O82  1  0.49848455  0.42251765  0.62588605  1  -1.136529  0  -0.317197  -0.54732  0  2.259133  0
O  O83  1  0.35031235  0.39039189  0.49920098  1  -1.140244  0  -0.315303  -0.54098  0  2.233038  0
O  O84  1  0.64969984  0.60961050  0.50080429  1  -1.141047  0  -0.315263  -0.541019  0  2.233657  0
O  O85  1  0.35258381  0.54567835  0.49870884  1  -1.133348  0  -0.313264  -0.550199  0  2.267184  0
O  O86  1  0.64742265  0.45431990  0.50127350  1  -1.132314  0  -0.313404  -0.550521  0  2.266466  0
O  O87  1  0.32985730  0.88935985  0.45362277  1  -1.067347  0  -0.196283  -0.230607  0  2.494748  0
