# generated using pymatgen
data_Ni2H21C23N5O8
_symmetry_space_group_name_H-M   'P 1'
_cell_length_a   6.54870035
_cell_length_b   7.70686654
_cell_length_c   15.77509391
_cell_angle_alpha   101.74313253
_cell_angle_beta   101.97737681
_cell_angle_gamma   89.98959722
_symmetry_Int_Tables_number   1
_chemical_formula_structural   Ni2H21C23N5O8
_chemical_formula_sum   'Ni2 H21 C23 N5 O8'
_cell_volume   761.79887110
_cell_formula_units_Z   1
loop_
 _symmetry_equiv_pos_site_id
 _symmetry_equiv_pos_as_xyz
  1  'x, y, z'
loop_
 _atom_site_type_symbol
 _atom_site_label
 _atom_site_symmetry_multiplicity
 _atom_site_fract_x
 _atom_site_fract_y
 _atom_site_fract_z
 _atom_site_occupancy
 _atom_site_pbe_bader_charge
 _atom_site_pbe_bader_spin_density
 _atom_site_pbe_cm5_charge
 _atom_site_pbe_ddec_charge
 _atom_site_pbe_ddec_spin_density
 _atom_site_pbe_ddec_sum_bond_order
 _atom_site_pbe_magmom
Ni  Ni0  1  0.54321945  0.28233907  0.55847495  1  1.168017  1.560368  0.638363  0.799101  1.768416  2.449322  1.547
Ni  Ni1  1  0.98459668  0.71793308  0.44152217  1  1.169766  1.56047  0.637627  0.798086  1.768755  2.448547  1.547
H  H2  1  0.01602610  0.27417478  0.75540868  1  0.082386  0.000874  0.110122  0.119547  0.000428  1.018971  0.0
H  H3  1  0.69739864  0.50964700  0.73661020  1  0.136516  0.001694  0.116559  0.091539  0.000693  1.039452  0.001
H  H4  1  0.14853147  0.21786169  0.61709660  1  0.131511  0.001471  0.124467  0.104458  0.000406  1.009848  0.001
H  H5  1  0.58912446  0.58519781  0.88263824  1  0.099718  0.000788  0.106776  0.113918  0.000389  1.016949  0.0
H  H6  1  0.29205688  0.68370122  0.55961480  1  0.502672  0.000134  0.291507  0.297096  0.000378  0.999948  0.0
H  H7  1  0.22731956  0.89778673  0.58497926  1  0.44558  0.001203  0.295438  0.290638  0.000905  0.95874  0.0
H  H8  1  0.13992785  0.67737258  0.68278603  1  0.047719  0.004735  0.104116  0.064936  0.002217  0.970268  0.003
H  H9  1  0.89776011  0.43826788  0.86334541  1  0.111733  1.9e-05  0.108216  0.073749  -7.1e-05  1.044626  0.0
H  H10  1  0.00887745  0.97063882  0.70533683  1  0.018391  -8.1e-05  0.098023  0.112498  -0.000168  1.004672  0.0
H  H11  1  0.79602966  0.81939460  0.68859389  1  0.067882  9.9e-05  0.106797  0.131072  -3.9e-05  0.971079  0.0
H  H12  1  0.26048456  0.72576658  0.24450749  1  0.098652  0.000858  0.109953  0.119113  0.000422  1.019377  0.0
H  H13  1  0.96066920  0.48997195  0.26345657  1  0.123797  0.001688  0.11644  0.091674  0.000684  1.039104  0.001
H  H14  1  0.53135843  0.78245511  0.38276875  1  0.129591  0.00147  0.124708  0.105371  0.000405  1.008569  0.001
H  H15  1  0.70640927  0.41426980  0.11742128  1  0.073307  0.000791  0.10607  0.11364  0.000383  1.016701  0.0
H  H16  1  0.73274094  0.31642489  0.44039735  1  0.504408  0.000147  0.290936  0.296405  0.000384  0.999831  0.0
H  H17  1  0.64264668  0.10234368  0.41511407  1  0.457604  0.001116  0.295426  0.29052  0.000907  0.958783  0.0
H  H18  1  0.45748992  0.32276566  0.31725947  1  0.064795  0.004691  0.103818  0.065831  0.002219  0.969748  0.003
H  H19  1  0.03419284  0.56165336  0.13659865  1  0.073284  -2e-05  0.108464  0.074437  -9.8e-05  1.045735  0.0
H  H20  1  0.30399832  0.02949124  0.29468872  1  0.02627  -8.5e-05  0.098426  0.113634  -0.000171  1.00384  0.0
H  H21  1  0.10784419  0.18076135  0.31139955  1  0.083117  9e-05  0.107466  0.131822  -4.2e-05  0.971274  0.0
H  H22  1  0.54468343  0.49989735  0.00003092  1  0.098839  0.000141  0.103655  0.101941  8.5e-05  1.057899  0.0
C  C23  1  0.17011100  0.32906595  0.75656746  1  -0.012394  0.00532  -0.081128  -0.175507  0.002904  3.945798  0.004
C  C24  1  0.54896174  0.45982294  0.74548679  1  0.478348  -0.004692  0.041149  0.07944  -0.005429  3.949644  -0.003
C  C25  1  0.23034564  0.46507058  0.91969533  1  -0.033208  0.000979  -0.005157  0.028055  0.000323  4.000189  0.001
C  C26  1  0.24260843  0.29576470  0.67816036  1  0.498496  -0.004576  0.049933  0.094935  -0.005371  3.922115  -0.003
C  C27  1  0.29505179  0.43080277  0.83383432  1  0.040363  -0.007514  0.0033  0.099652  -0.008383  4.007838  -0.005
C  C28  1  0.48717248  0.50014645  0.82598953  1  -0.129281  0.004978  -0.089399  -0.18443  0.002633  3.963695  0.004
C  C29  1  0.04355787  0.71569286  0.62383043  1  0.308422  0.01011  -0.00108  0.076622  0.006359  3.883012  0.005
C  C30  1  0.90258063  0.55164379  0.57291317  1  1.563672  0.001288  0.216654  0.568349  0.00036  4.110033  0.0
C  C31  1  0.01822140  0.46531840  0.92412804  1  0.466428  -0.003804  0.043162  0.040749  -0.004432  3.957876  -0.003
C  C32  1  0.78759805  0.95907406  0.58399590  1  1.580107  -0.002298  0.214469  0.645378  -0.00271  4.105283  -0.003
C  C33  1  0.90966896  0.86747899  0.65526421  1  -0.020226  0.006941  -0.161262  -0.340802  0.003983  3.912757  0.005
C  C34  1  0.41338417  0.67076647  0.24337809  1  -0.026824  0.005213  -0.081165  -0.176301  0.002829  3.947828  0.004
C  C35  1  0.80334658  0.53980000  0.25453365  1  0.504121  -0.0046  0.039677  0.077703  -0.005342  3.949894  -0.003
C  C36  1  0.31055445  0.53468498  0.08030523  1  -0.005997  0.001092  -0.006725  0.026427  0.000381  3.997773  0.001
C  C37  1  0.56433507  0.70422643  0.32175667  1  0.496562  -0.004598  0.051315  0.09688  -0.005422  3.919074  -0.003
C  C38  1  0.46109013  0.56883267  0.16615758  1  0.013964  -0.007359  0.004142  0.101494  -0.008176  4.00958  -0.005
C  C39  1  0.66104814  0.49934526  0.17405156  1  -0.121836  0.00503  -0.088994  -0.184498  0.002677  3.96334  0.004
C  C40  1  0.42005920  0.28446451  0.37621412  1  0.282813  0.010149  -0.000769  0.074725  0.006344  3.884048  0.005
C  C41  1  0.32988095  0.44860816  0.42710671  1  1.576685  0.001258  0.216293  0.568352  0.000339  4.113212  0.0
C  C42  1  0.09397266  0.53456016  0.07583170  1  0.492163  -0.003954  0.042703  0.039363  -0.00459  3.958057  -0.003
C  C43  1  0.20377462  0.04107447  0.41598464  1  1.579994  -0.002248  0.21312  0.64297  -0.002723  4.109713  -0.003
C  C44  1  0.25478859  0.13266327  0.34474848  1  -0.036655  0.006919  -0.161524  -0.341577  0.003965  3.913767  0.005
C  C45  1  0.37774575  0.49994055  0.99999959  1  -0.033832  -0.00239  -0.064699  -0.124146  -0.002659  3.880627  -0.002
N  N46  1  0.43073154  0.35667568  0.67244247  1  -1.204188  0.055715  -0.32236  -0.202585  0.032543  3.54615  0.05
N  N47  1  0.17176656  0.76868242  0.56642453  1  -1.162384  0.086361  -0.635256  -0.609534  0.048674  3.436823  0.069
N  N48  1  0.75818755  0.64327064  0.32752287  1  -1.195079  0.055807  -0.321696  -0.203082  0.032588  3.543494  0.05
N  N49  1  0.60566950  0.23147924  0.43362457  1  -1.175632  0.086471  -0.635037  -0.608579  0.048699  3.436601  0.069
N  N50  1  0.94994323  0.49998660  0.99997110  1  -1.209899  0.000878  -0.325983  -0.269065  0.000576  3.384217  0.001
O  O51  1  0.81196920  0.46771840  0.61665857  1  -1.163036  0.071853  -0.299445  -0.54234  0.039991  2.333171  0.065
O  O52  1  0.70012493  0.09668675  0.61680536  1  -1.15918  0.072127  -0.327411  -0.56636  0.040391  2.35538  0.066
O  O53  1  0.77854072  0.90050209  0.50184552  1  -1.158664  0.066627  -0.302453  -0.548944  0.03673  2.281244  0.061
O  O54  1  0.88519527  0.51353018  0.48911752  1  -1.127016  0.070011  -0.299574  -0.51417  0.038761  2.389065  0.064
O  O55  1  0.19548002  0.53254464  0.38338961  1  -1.167731  0.071726  -0.299157  -0.541812  0.039905  2.336895  0.065
O  O56  1  0.08307686  0.90373238  0.38317874  1  -1.157856  0.071933  -0.327077  -0.56476  0.04031  2.355476  0.066
O  O57  1  0.27716785  0.09947005  0.49813167  1  -1.161123  0.06665  -0.302341  -0.549094  0.036779  2.282925  0.061
O  O58  1  0.39629843  0.48675479  0.51090238  1  -1.135646  0.069935  -0.299594  -0.514539  0.038704  2.388189  0.064
