# generated using pymatgen
data_Zn2H21C41S3N2O17
_symmetry_space_group_name_H-M   'P 1'
_cell_length_a   13.22450394
_cell_length_b   13.78651917
_cell_length_c   28.50570971
_cell_angle_alpha   90.72106909
_cell_angle_beta   89.89933109
_cell_angle_gamma   89.85778490
_symmetry_Int_Tables_number   1
_chemical_formula_structural   Zn2H21C41S3N2O17
_chemical_formula_sum   'Zn4 H42 C82 S6 N4 O34'
_cell_volume   5196.72160918
_cell_formula_units_Z   2
loop_
 _symmetry_equiv_pos_site_id
 _symmetry_equiv_pos_as_xyz
  1  'x, y, z'
loop_
 _atom_site_type_symbol
 _atom_site_label
 _atom_site_symmetry_multiplicity
 _atom_site_fract_x
 _atom_site_fract_y
 _atom_site_fract_z
 _atom_site_occupancy
 _atom_site_pbe_bader_charge
 _atom_site_pbe_bader_spin_density
 _atom_site_pbe_cm5_charge
 _atom_site_pbe_ddec_charge
 _atom_site_pbe_ddec_spin_density
 _atom_site_pbe_ddec_sum_bond_order
 _atom_site_pbe_magmom
Zn  Zn0  1  0.50926925  0.41326997  0.49693481  1  1.294158  0  0.666259  0.81206  0  2.454791  0
Zn  Zn1  1  0.48962925  0.61106193  0.50141221  1  1.275176  0  0.664444  0.810599  0  2.454764  0
Zn  Zn2  1  0.50903828  0.58725448  0.03683280  1  1.296357  0  0.666274  0.811813  0  2.455555  0
Zn  Zn3  1  0.49060740  0.38951013  0.03253910  1  1.259907  0  0.664349  0.810082  0  2.455084  0
H  H4  1  0.40934905  0.26702755  0.55609791  1  0.131013  0  0.137895  0.12043  0  0.962969  0
H  H5  1  0.34196230  0.11290383  0.59332286  1  0.162895  0  0.124433  0.138968  0  0.990334  0
H  H6  1  0.62661658  0.25703209  0.45207995  1  0.143215  0  0.127195  0.102249  0  1.014973  0
H  H7  1  0.59450613  0.75840982  0.44646531  1  0.147934  0  0.135106  0.116676  0  0.973193  0
H  H8  1  0.67412696  0.91270208  0.41412630  1  0.148085  0  0.128108  0.142994  0  0.972153  0
H  H9  1  0.39760469  0.76746653  0.55879892  1  0.158479  0  0.126186  0.102481  0  1.022641  0
H  H10  1  0.50265215  0.62260889  0.18960770  1  0.085338  0  0.100083  0.104108  0  1.015016  0
H  H11  1  0.50277714  0.31210888  0.17787128  1  0.082056  0  0.100623  0.104194  0  1.010597  0
H  H12  1  0.50430904  0.29779718  0.26504417  1  0.073264  0  0.101535  0.103046  0  0.994678  0
H  H13  1  0.50372940  0.37740897  0.34411090  1  0.098139  0  0.099994  0.103831  0  1.015014  0
H  H14  1  0.50243857  0.68791895  0.35594320  1  0.091309  0  0.100671  0.103963  0  1.011169  0
H  H15  1  0.50341709  0.70226901  0.26878163  1  0.064781  0  0.101582  0.103829  0  0.993941  0
H  H16  1  0.48721949  0.67191363  0.65427462  1  0.101051  0  0.11054  0.12654  0  0.995643  0
H  H17  1  0.48661637  0.75191147  0.73233895  1  0.143606  0  0.118952  0.136651  0  0.982697  0
H  H18  1  0.49427933  0.36216859  0.64162117  1  0.132565  0  0.106918  0.121186  0  1.032206  0
H  H19  1  0.48728304  0.32799991  0.87968094  1  0.121223  0  0.110469  0.125507  0  0.995924  0
H  H20  1  0.48551782  0.24804643  0.80166850  1  0.098346  0  0.119421  0.137827  0  0.982444  0
H  H21  1  0.49664779  0.63755124  0.89232913  1  0.15491  0  0.10686  0.121244  0  1.032421  0
H  H22  1  0.83730602  0.37187093  0.49483279  1  0.10723  0  0.106923  0.118757  0  0.999093  0
H  H23  1  0.80283180  0.68146294  0.50257569  1  0.080202  0  0.100006  0.104768  0  1.008973  0
H  H24  1  0.99039493  0.70249912  0.50181467  1  0.025734  0  0.099276  0.099318  0  0.997571  0
H  H25  1  0.16247856  0.62942239  0.49961625  1  0.080749  0  0.099062  0.103007  0  1.0144  0
H  H26  1  0.19770736  0.32002518  0.49388320  1  0.086401  0  0.100451  0.105448  0  1.008678  0
H  H27  1  0.01031275  0.29863260  0.49307155  1  0.05099  0  0.105175  0.109079  0  0.98881  0
H  H28  1  0.40902074  0.73450637  0.97798976  1  0.128311  0  0.137833  0.119999  0  0.962475  0
H  H29  1  0.34264505  0.88909584  0.94077016  1  0.136514  0  0.124317  0.138902  0  0.990994  0
H  H30  1  0.62744970  0.74238489  0.08111523  1  0.138557  0  0.126729  0.101483  0  1.016264  0
H  H31  1  0.59604881  0.24139800  0.08745972  1  0.159225  0  0.135216  0.116158  0  0.972616  0
H  H32  1  0.67624422  0.08624415  0.11922030  1  0.128432  0  0.128011  0.142626  0  0.972927  0
H  H33  1  0.39910369  0.23391606  0.97545456  1  0.159703  0  0.126192  0.102305  0  1.023366  0
H  H34  1  0.83679733  0.62904150  0.03984750  1  0.099417  0  0.106241  0.118167  0  0.999676  0
H  H35  1  0.80441888  0.31942291  0.03206729  1  0.082543  0  0.100112  0.104655  0  1.010676  0
H  H36  1  0.99211964  0.29858134  0.03307691  1  0.079797  0  0.099509  0.099843  0  0.998247  0
H  H37  1  0.16360483  0.37189610  0.03486196  1  0.080878  0  0.098984  0.103083  0  1.015055  0
H  H38  1  0.19689496  0.68137798  0.04017260  1  0.082074  0  0.100438  0.105278  0  1.008038  0
H  H39  1  0.00934965  0.70254045  0.04157602  1  0.037002  0  0.104904  0.10883  0  0.988342  0
H  H40  1  0.21856057  0.80004900  0.57989803  1  0.655483  0  0.358847  0.411996  0  0.83004  0
H  H41  1  0.66150491  0.23487103  0.36911066  1  0.626371  0  0.357772  0.411395  0  0.832275  0
H  H42  1  0.33220569  0.81985157  0.83790868  1  0.636682  0  0.354152  0.409935  0  0.830443  0
H  H43  1  0.33056135  0.18042645  0.69641685  1  0.644166  0  0.354165  0.410456  0  0.830034  0
H  H44  1  0.21961273  0.20199191  0.95511354  1  0.629554  0  0.35839  0.411923  0  0.830551  0
H  H45  1  0.66341662  0.76405850  0.16393338  1  0.622874  0  0.35819  0.412127  0  0.830667  0
C  C46  1  0.49269408  0.52270240  0.59118838  1  1.602783  0  0.217685  0.596444  0  4.16604  0
C  C47  1  0.30270128  0.48837193  0.49789739  1  1.576311  0  0.213293  0.595304  0  4.16274  0
C  C48  1  0.50338287  0.52395281  0.40709570  1  1.572062  0  0.213661  0.595525  0  4.163409  0
C  C49  1  0.69765305  0.51456947  0.49906776  1  1.534957  0  0.214311  0.594486  0  4.166622  0
C  C50  1  0.49412257  0.47723989  0.94271416  1  1.562252  0  0.216091  0.594833  0  4.170337  0
C  C51  1  0.30295571  0.51300728  0.03587225  1  1.580966  0  0.21376  0.594404  0  4.163003  0
C  C52  1  0.50263226  0.47601327  0.12671616  1  1.550467  0  0.213651  0.593416  0  4.16799  0
C  C53  1  0.69813655  0.48621165  0.03517669  1  1.526602  0  0.213873  0.593992  0  4.167733  0
C  C54  1  0.45523802  0.22027473  0.53336251  1  0.538185  0  0.083466  0.079754  0  3.824669  0
C  C55  1  0.45053754  0.11899731  0.53567168  1  -0.000209  0  0.011246  0.047568  0  4.006565  0
C  C56  1  0.38664513  0.07030972  0.56832500  1  0.076459  0  -0.049841  -0.087617  0  3.909978  0
C  C57  1  0.57637321  0.21390998  0.47370381  1  0.54379  0  0.069271  0.060141  0  3.855739  0
C  C58  1  0.57598395  0.11225921  0.47170255  1  0.011231  0  0.009763  0.032903  0  3.994997  0
C  C59  1  0.63542624  0.05390295  0.43952742  1  -0.181571  0  -0.004981  -0.119773  0  3.942064  0
C  C60  1  0.55353482  0.80519193  0.47116932  1  0.462355  0  0.076984  0.066991  0  3.846815  0
C  C61  1  0.56301827  0.90628618  0.47089348  1  0.054648  0  0.007581  0.042995  0  4.022966  0
C  C62  1  0.62866805  0.95496503  0.43896655  1  0.020206  0  -0.054752  -0.100626  0  3.923691  0
C  C63  1  0.43982110  0.81096397  0.53391895  1  0.458008  0  0.067551  0.05828  0  3.8562  0
C  C64  1  0.44065155  0.91270577  0.53619183  1  0.048942  0  0.009681  0.031347  0  3.994394  0
C  C65  1  0.38192917  0.97126245  0.56862911  1  -0.210834  0  -0.004469  -0.121369  0  3.935523  0
C  C66  1  0.51055775  0.06392845  0.50356437  1  0.021787  0  0.024134  0.031323  0  3.914905  0
C  C67  1  0.50449860  0.96121320  0.50369550  1  0.0416  0  0.023737  0.033469  0  3.914087  0
C  C68  1  0.50437998  0.55218110  0.20664229  1  -0.004299  0  -0.081496  -0.142037  0  3.948295  0
C  C69  1  0.50408658  0.37638776  0.20044916  1  -0.011286  0  -0.090128  -0.099444  0  4.005408  0
C  C70  1  0.50472222  0.36882632  0.24850452  1  -0.100085  0  -0.090924  -0.134423  0  4.004033  0
C  C71  1  0.50519863  0.45318389  0.27763478  1  0.029292  0  -0.005198  0.079133  0  4.002376  0
C  C72  1  0.50510943  0.44788344  0.32711989  1  -0.091415  0  -0.081819  -0.142009  0  3.947474  0
C  C73  1  0.50400640  0.62362681  0.33336865  1  -0.037674  0  -0.090261  -0.098461  0  4.006248  0
C  C74  1  0.50427052  0.63122221  0.28530911  1  -0.028453  0  -0.090573  -0.136004  0  4.006233  0
C  C75  1  0.50489638  0.54692129  0.25613343  1  -0.078242  0  -0.005576  0.079642  0  4.003592  0
C  C76  1  0.50410057  0.46895434  0.17906289  1  0.015388  0  -0.019248  -0.026902  0  3.983431  0
C  C77  1  0.50469032  0.53106575  0.35473722  1  -0.039954  0  -0.018965  -0.027444  0  3.982178  0
C  C78  1  0.48855779  0.60139108  0.67114908  1  -0.057573  0  -0.070335  -0.127417  0  3.904244  0
C  C79  1  0.48853191  0.59551761  0.72021829  1  0.067202  0  -0.003954  0.078955  0  4.030465  0
C  C80  1  0.48781032  0.68123190  0.74906469  1  -0.023061  0  -0.067443  -0.115918  0  3.951018  0
C  C81  1  0.49104044  0.42576670  0.66449413  1  -0.043117  0  -0.076378  -0.129132  0  3.907895  0
C  C82  1  0.48927934  0.41634325  0.71336808  1  -0.013251  0  -0.002155  0.06837  0  4.00441  0
C  C83  1  0.48750626  0.32425272  0.73702858  1  -0.187824  0  -0.018173  -0.146623  0  3.979973  0
C  C84  1  0.48897403  0.39849089  0.86279693  1  0.015076  0  -0.069368  -0.123983  0  3.901531  0
C  C85  1  0.48846821  0.40440793  0.81372819  1  -0.013537  0  -0.00432  0.079111  0  4.030228  0
C  C86  1  0.48689109  0.31868979  0.78490572  1  0.068093  0  -0.068162  -0.1184  0  3.954152  0
C  C87  1  0.49277227  0.57406085  0.86943535  1  -0.075259  0  -0.076392  -0.127665  0  3.908202  0
C  C88  1  0.49049082  0.58351827  0.82058206  1  0.028092  0  -0.002558  0.066576  0  4.00724  0
C  C89  1  0.48892389  0.67562537  0.79694828  1  -0.184272  0  -0.018486  -0.147603  0  3.979654  0
C  C90  1  0.49053876  0.51695298  0.64364708  1  0.003516  0  -0.013678  -0.01913  0  3.990813  0
C  C91  1  0.48892805  0.50261187  0.74205058  1  -0.056019  0  0.010932  0.011806  0  3.896788  0
C  C92  1  0.49178347  0.48289275  0.89027592  1  0.031869  0  -0.013609  -0.020738  0  3.99394  0
C  C93  1  0.48921542  0.49730190  0.79188950  1  -0.007899  0  0.011509  0.011436  0  3.898828  0
C  C94  1  0.87169076  0.44367863  0.49647080  1  -0.058324  0  -0.075672  -0.134345  0  3.916831  0
C  C95  1  0.85344791  0.61910973  0.50071567  1  -0.057306  0  -0.091567  -0.101247  0  4.013831  0
C  C96  1  0.95670297  0.63028506  0.50046810  1  -0.005058  0  -0.092676  -0.13704  0  4.014441  0
C  C97  1  0.02180420  0.54821467  0.49853220  1  0.031463  0  -0.006323  0.076232  0  4.006552  0
C  C98  1  0.12819447  0.55756074  0.49867326  1  -0.078506  0  -0.082225  -0.140324  0  3.949892  0
C  C99  1  0.14705464  0.38242209  0.49527893  1  -0.112603  0  -0.090612  -0.102411  0  4.008091  0
C  C100  1  0.04373461  0.37092614  0.49480883  1  0.010958  0  -0.088132  -0.132504  0  3.993984  0
C  C101  1  0.97823256  0.45286008  0.49655711  1  -0.024755  0  -0.002927  0.08368  0  3.989268  0
C  C102  1  0.81013339  0.52502529  0.49865113  1  0.013947  0  -0.019629  -0.030982  0  3.987374  0
C  C103  1  0.19024159  0.47668889  0.49730738  1  0.022281  0  -0.020648  -0.030856  0  3.987723  0
C  C104  1  0.45547672  0.78081006  0.00050223  1  0.568762  0  0.083955  0.082295  0  3.825582  0
C  C105  1  0.45149509  0.88211496  0.99809977  1  0.028643  0  0.011481  0.046654  0  4.008576  0
C  C106  1  0.38763913  0.93132725  0.96563033  1  0.013608  0  -0.049962  -0.087725  0  3.91028  0
C  C107  1  0.57721324  0.78599167  0.05967994  1  0.562701  0  0.070146  0.063369  0  3.856781  0
C  C108  1  0.57740505  0.88765512  0.06164887  1  -0.020982  0  0.009024  0.030883  0  3.998486  0
C  C109  1  0.63724212  0.94546047  0.09369038  1  -0.181985  0  -0.005004  -0.118951  0  3.941273  0
C  C110  1  0.55517167  0.19493316  0.06273181  1  0.522474  0  0.076646  0.068002  0  3.844099  0
C  C111  1  0.56482514  0.09378070  0.06277137  1  -0.017445  0  0.007018  0.0421  0  4.024249  0
C  C112  1  0.63059210  0.04444534  0.09443884  1  0.06739  0  -0.054545  -0.100332  0  3.922904  0
C  C113  1  0.44141322  0.19008333  0.00017167  1  0.549083  0  0.06683  0.058495  0  3.856763  0
C  C114  1  0.44227819  0.08839410  0.99773563  1  -0.016235  0  0.009664  0.030862  0  3.996013  0
C  C115  1  0.38326594  0.03040887  0.96540238  1  -0.128055  0  -0.004478  -0.1214  0  3.934951  0
C  C116  1  0.51201866  0.93662221  0.03000287  1  0.014045  0  0.024376  0.031698  0  3.919364  0
C  C117  1  0.50622869  0.03937989  0.02999527  1  -0.021572  0  0.024188  0.033956  0  3.917855  0
C  C118  1  0.87167123  0.55727374  0.03817154  1  -0.069267  0  -0.074861  -0.131439  0  3.915494  0
C  C119  1  0.85465231  0.38180778  0.03396937  1  0.016402  0  -0.091654  -0.100364  0  4.01603  0
C  C120  1  0.95796987  0.37075282  0.03437473  1  -0.060212  0  -0.093449  -0.138179  0  4.015947  0
C  C121  1  0.02246585  0.45295076  0.03620246  1  0.035703  0  -0.005315  0.077275  0  4.009005  0
C  C122  1  0.12889944  0.44374103  0.03584615  1  -0.063728  0  -0.082469  -0.140991  0  3.95142  0
C  C123  1  0.14665484  0.61891732  0.03895857  1  -0.057553  0  -0.09116  -0.102631  0  4.005323  0
C  C124  1  0.04323610  0.63028176  0.03972536  1  0.002328  0  -0.087073  -0.129882  0  3.991488  0
C  C125  1  0.97826835  0.54825658  0.03814400  1  -0.022398  0  -0.003835  0.079503  0  3.994651  0
C  C126  1  0.81068889  0.47584181  0.03585886  1  -0.028213  0  -0.019487  -0.031419  0  3.986937  0
C  C127  1  0.19044899  0.52467938  0.03688166  1  -0.043871  0  -0.020927  -0.030766  0  3.987246  0
S  S128  1  0.30098829  0.91755306  0.61130375  1  3.057962  0  0.548377  1.158674  0  5.989228  0
S  S129  1  0.72390593  0.10735821  0.40005096  1  3.0726  0  0.544553  1.151723  0  6.002753  0
S  S130  1  0.48983325  0.78790471  0.82873478  1  2.98951  0  0.538331  1.152823  0  5.982631  0
S  S131  1  0.48815005  0.21178908  0.70536792  1  2.984841  0  0.538394  1.151291  0  5.983407  0
S  S132  1  0.30201111  0.08469121  0.92305495  1  3.067496  0  0.548189  1.157895  0  5.987485  0
S  S133  1  0.72585925  0.89111690  0.13278188  1  3.070834  0  0.545188  1.153025  0  6.002707  0
N  N134  1  0.51605223  0.26463556  0.50284040  1  -1.22067  0  -0.308425  -0.165501  0  3.532797  0
N  N135  1  0.49346359  0.76055525  0.50191832  1  -1.218288  0  -0.310602  -0.167923  0  3.539439  0
N  N136  1  0.51623917  0.73583938  0.03083289  1  -1.246414  0  -0.308786  -0.168525  0  3.536869  0
N  N137  1  0.49504439  0.24000227  0.03214913  1  -1.207743  0  -0.310135  -0.16837  0  3.539075  0
O  O138  1  0.50342062  0.44330976  0.56851187  1  -1.175652  0  -0.312546  -0.547185  0  2.332178  0
O  O139  1  0.48374503  0.60644140  0.57327013  1  -1.160835  0  -0.317564  -0.541461  0  2.318582  0
O  O140  1  0.33832620  0.57427664  0.49950659  1  -1.170392  0  -0.323633  -0.554142  0  2.306052  0
O  O141  1  0.35503213  0.41052343  0.49682267  1  -1.179381  0  -0.319619  -0.551522  0  2.344542  0
O  O142  1  0.49709289  0.60400281  0.42987854  1  -1.163196  0  -0.319096  -0.552541  0  2.349173  0
O  O143  1  0.50829638  0.43989645  0.42507381  1  -1.170958  0  -0.323034  -0.554759  0  2.296841  0
O  O144  1  0.66179852  0.42894284  0.49574743  1  -1.166096  0  -0.320999  -0.543686  0  2.326469  0
O  O145  1  0.64533383  0.59211459  0.50281537  1  -1.173907  0  -0.319318  -0.557498  0  2.328929  0
O  O146  1  0.50468218  0.55665173  0.96533191  1  -1.173247  0  -0.31186  -0.545901  0  2.333511  0
O  O147  1  0.48540284  0.39356211  0.96070898  1  -1.1655  0  -0.316746  -0.540193  0  2.320389  0
O  O148  1  0.33909028  0.42711470  0.03428183  1  -1.169233  0  -0.324006  -0.554169  0  2.305026  0
O  O149  1  0.35486050  0.59088897  0.03660202  1  -1.189018  0  -0.319668  -0.550751  0  2.343409  0
O  O150  1  0.49692740  0.39587811  0.10400293  1  -1.168311  0  -0.319407  -0.551716  0  2.350473  0
O  O151  1  0.50694107  0.56001073  0.10867253  1  -1.175152  0  -0.322302  -0.552994  0  2.29874  0
O  O152  1  0.66168946  0.57180365  0.03847358  1  -1.156004  0  -0.321049  -0.544015  0  2.327776  0
O  O153  1  0.64631893  0.40864127  0.03129296  1  -1.170074  0  -0.319175  -0.557381  0  2.328768  0
O  O154  1  0.21444012  0.87086815  0.57780675  1  -1.199743  0  -0.361697  -0.538938  0  2.10393  0
O  O155  1  0.25404637  0.99433432  0.63777759  1  -1.278765  0  -0.297834  -0.500982  0  2.113372  0
O  O156  1  0.35298200  0.83863424  0.63366136  1  -1.284674  0  -0.303725  -0.529512  0  2.122784  0
O  O157  1  0.64888953  0.16516728  0.36521308  1  -1.171146  0  -0.36098  -0.538287  0  2.112175  0
O  O158  1  0.76961365  0.03057478  0.37315139  1  -1.275489  0  -0.29626  -0.494529  0  2.105755  0
O  O159  1  0.78318857  0.17846717  0.42519689  1  -1.291054  0  -0.306807  -0.529284  0  2.107804  0
O  O160  1  0.38227408  0.78579892  0.85698263  1  -1.178291  0  -0.368713  -0.555138  0  2.125508  0
O  O161  1  0.48503273  0.86613001  0.79589997  1  -1.27597  0  -0.30976  -0.526583  0  2.115819  0
O  O162  1  0.56477827  0.78505473  0.86509607  1  -1.270821  0  -0.309933  -0.512269  0  2.103944  0
O  O163  1  0.38059549  0.21440473  0.67730909  1  -1.190579  0  -0.36844  -0.555476  0  2.127334  0
O  O164  1  0.48323426  0.13372531  0.73829341  1  -1.27273  0  -0.310049  -0.525949  0  2.114947  0
O  O165  1  0.56312548  0.21405597  0.66889065  1  -1.271174  0  -0.310321  -0.512167  0  2.102976  0
O  O166  1  0.21542599  0.13114414  0.95687985  1  -1.174847  0  -0.361125  -0.53867  0  2.103829  0
O  O167  1  0.25519555  0.00822007  0.89654136  1  -1.283832  0  -0.298373  -0.500631  0  2.112047  0
O  O168  1  0.35361536  0.16375469  0.90074647  1  -1.284719  0  -0.303048  -0.529218  0  2.122958  0
O  O169  1  0.65089502  0.83384411  0.16782196  1  -1.16922  0  -0.360675  -0.538722  0  2.112061  0
O  O170  1  0.77219502  0.96737109  0.15958514  1  -1.277409  0  -0.296424  -0.494997  0  2.10352  0
O  O171  1  0.78459550  0.81960692  0.10735286  1  -1.283436  0  -0.307327  -0.530366  0  2.110717  0
