# generated using pymatgen
data_Zr3H12C31S5(NO13)2
_symmetry_space_group_name_H-M   'P 1'
_cell_length_a   16.46003652
_cell_length_b   16.51518501
_cell_length_c   16.46076399
_cell_angle_alpha   61.11484991
_cell_angle_beta   60.21901925
_cell_angle_gamma   59.89119121
_symmetry_Int_Tables_number   1
_chemical_formula_structural   Zr3H12C31S5(NO13)2
_chemical_formula_sum   'Zr6 H24 C62 S10 N4 O52'
_cell_volume   3192.53586696
_cell_formula_units_Z   2
loop_
 _symmetry_equiv_pos_site_id
 _symmetry_equiv_pos_as_xyz
  1  'x, y, z'
loop_
 _atom_site_type_symbol
 _atom_site_label
 _atom_site_symmetry_multiplicity
 _atom_site_fract_x
 _atom_site_fract_y
 _atom_site_fract_z
 _atom_site_occupancy
 _atom_site_pbe_bader_charge
 _atom_site_pbe_bader_spin_density
 _atom_site_pbe_cm5_charge
 _atom_site_pbe_ddec_charge
 _atom_site_pbe_ddec_spin_density
 _atom_site_pbe_ddec_sum_bond_order
 _atom_site_pbe_magmom
Zr  Zr0  1  0.88678877  0.90279832  0.61413785  1  2.631164  0  1.635836  2.366423  0  2.770739  0
Zr  Zr1  1  0.09604636  0.11867943  0.39847643  1  2.632627  0  1.636028  2.36645  0  2.771678  0
Zr  Zr2  1  0.10007003  0.90578997  0.61140964  1  2.637283  0  1.629622  2.368845  0  2.737871  0
Zr  Zr3  1  0.88282187  0.11575973  0.40108663  1  2.633755  0  1.630006  2.36903  0  2.737233  0
Zr  Zr4  1  0.09875590  0.90345538  0.39909715  1  2.624847  0  1.627478  2.363533  0  2.763438  0
Zr  Zr5  1  0.88419246  0.11785320  0.61325617  1  2.62545  0  1.636059  2.364374  0  2.776717  0
H  H6  1  0.07846386  0.75916865  0.58625881  1  0.624957  0  0.333833  0.425877  0  0.854761  0
H  H7  1  0.07636981  0.09063253  0.25463909  1  0.618123  0  0.334003  0.426578  0  0.85409  0
H  H8  1  0.07683764  0.09779636  0.58821993  1  0.601062  0  0.33331  0.428541  0  0.848301  0
H  H9  1  0.73697198  0.09256002  0.59296578  1  0.633955  0  0.333279  0.428356  0  0.848477  0
H  H10  1  0.89709505  0.63669507  0.79582772  1  0.056842  0  0.10364  0.121805  0  1.020754  0
H  H11  1  0.17036607  0.30060577  0.13256042  1  0.091314  0  0.103629  0.121499  0  1.020933  0
H  H12  1  0.84930046  0.29963029  0.66631294  1  0.640747  0  0.304182  0.348359  0  0.997252  0
H  H13  1  0.11095107  0.74311428  0.33098689  1  0.637477  0  0.30278  0.351526  0  0.995687  0
H  H14  1  0.31498282  0.83522522  0.23925306  1  0.637713  0  0.302513  0.351253  0  0.995966  0
H  H15  1  0.68488914  0.17035951  0.79518157  1  0.641924  0  0.303668  0.347535  0  0.998209  0
H  H16  1  0.08424284  0.77390506  0.97912274  1  0.61394  0  0.344806  0.376813  0  0.857457  0
H  H17  1  0.83196453  0.14293091  0.22629325  1  0.634037  0  0.307265  0.34786  0  0.997133  0
H  H18  1  0.29914147  0.73112510  0.63819463  1  0.636822  0  0.30721  0.347414  0  0.998244  0
H  H19  1  0.66314086  0.48156181  0.26922211  1  0.610717  0  0.345157  0.376662  0  0.857361  0
H  H20  1  0.29662471  0.14674544  0.34333646  1  0.645794  0  0.301252  0.345314  0  1.008947  0
H  H21  1  0.71553444  0.84608302  0.63954367  1  0.642656  0  0.301563  0.346379  0  1.007663  0
H  H22  1  0.28294706  0.42882937  0.89284443  1  0.45296  0  0.306387  0.2999  0  0.941135  0
H  H23  1  0.28545776  0.37287599  0.00729557  1  0.458356  0  0.311844  0.314965  0  0.919814  0
H  H24  1  0.14934041  0.67599015  0.81586261  1  0.493576  0  0.300036  0.305642  0  0.996805  0
H  H25  1  0.19835549  0.56582248  0.90148987  1  0.49928  0  0.307428  0.309416  0  0.981553  0
H  H26  1  0.89602989  0.39661067  0.92491372  1  0.442371  0  0.305642  0.299349  0  0.943251  0
H  H27  1  0.83577602  0.51077173  0.86764300  1  0.464167  0  0.311739  0.314641  0  0.919537  0
H  H28  1  0.85855416  0.32115897  0.17166298  1  0.501824  0  0.299852  0.30555  0  0.99706  0
H  H29  1  0.83435555  0.40666402  0.06130496  1  0.512641  0  0.30746  0.309648  0  0.981403  0
C  C30  1  0.98979107  0.74375601  0.49371983  1  1.540471  0  0.230429  0.644999  0  4.126066  0
C  C31  1  0.27283409  0.99799918  0.23969120  1  1.535203  0  0.230462  0.64498  0  4.125944  0
C  C32  1  0.98062256  0.28967565  0.50764562  1  1.551384  0  0.232207  0.648533  0  4.12207  0
C  C33  1  0.72169700  0.01192798  0.78506049  1  1.539143  0  0.232486  0.647271  0  4.122824  0
C  C34  1  0.00084678  0.73417819  0.76494207  1  1.367383  0  0.213052  0.626755  0  4.077622  0
C  C35  1  0.72608794  0.99703626  0.50312700  1  1.540425  0  0.231899  0.64959  0  4.112492  0
C  C36  1  0.00008126  0.26951396  0.22974493  1  1.366851  0  0.213499  0.627348  0  4.075471  0
C  C37  1  0.27320818  0.00840315  0.49277328  1  1.519678  0  0.232287  0.650714  0  4.112015  0
C  C38  1  0.26964350  0.73765270  0.50224626  1  1.531053  0  0.228871  0.642926  0  4.13595  0
C  C39  1  0.99295619  0.01251003  0.77589002  1  1.557261  0  0.22892  0.654234  0  4.137554  0
C  C40  1  0.71834062  0.28028474  0.50753684  1  1.546156  0  0.228437  0.653553  0  4.139179  0
C  C41  1  0.99089287  0.00649432  0.23298962  1  1.548112  0  0.229548  0.643611  0  4.135384  0
C  C42  1  0.92334617  0.42669203  0.58094495  1  0.045925  0  -0.018692  -0.096946  0  3.978595  0
C  C43  1  0.03812065  0.61466981  0.41446628  1  0.016434  0  -0.018998  -0.094923  0  3.976798  0
C  C44  1  0.97628635  0.38088278  0.50725394  1  -0.127455  0  -0.019555  -0.166651  0  3.928923  0
C  C45  1  0.98698033  0.65873778  0.48931446  1  -0.171381  0  -0.022503  -0.170331  0  3.936795  0
C  C46  1  0.01364471  0.53013705  0.44878330  1  -0.084436  0  -0.011314  -0.022979  0  4.059115  0
C  C47  1  0.94703430  0.51183318  0.54567052  1  -0.211614  0  -0.011188  -0.022957  0  4.067687  0
C  C48  1  0.43249873  0.91885751  0.11035025  1  0.067908  0  -0.019327  -0.095721  0  3.976964  0
C  C49  1  0.56914534  0.08502627  0.92244900  1  0.091539  0  -0.018426  -0.096925  0  3.977239  0
C  C50  1  0.36499520  0.99359692  0.15459460  1  -0.171887  0  -0.022205  -0.169119  0  3.936482  0
C  C51  1  0.63536589  0.01147584  0.87639376  1  -0.171847  0  -0.019647  -0.166021  0  3.927678  0
C  C52  1  0.49553835  0.04986873  0.00761274  1  -0.182956  0  -0.011574  -0.023261  0  4.06836  0
C  C53  1  0.50717726  0.95314979  0.02576047  1  -0.164419  0  -0.011002  -0.022206  0  4.057884  0
C  C54  1  0.06399075  0.94608750  0.91177220  1  -0.030972  0  -0.017708  -0.098841  0  4.015144  0
C  C55  1  0.93068864  0.08617146  0.08322345  1  0.007128  0  -0.014847  -0.089793  0  3.96856  0
C  C56  1  0.99705716  0.01534510  0.86114735  1  -0.102568  0  -0.023159  -0.167774  0  3.966205  0
C  C57  1  0.99241552  0.01390526  0.13983570  1  -0.139394  0  -0.019977  -0.164448  0  3.935158  0
C  C58  1  0.95873749  0.06028655  0.00025899  1  -0.133248  0  -0.011068  -0.024446  0  4.067033  0
C  C59  1  0.03985907  0.97157077  0.99384003  1  -0.149571  0  -0.017382  -0.044982  0  4.061021  0
C  C60  1  0.40055431  0.58801788  0.58136647  1  0.029569  0  -0.015004  -0.090529  0  3.967845  0
C  C61  1  0.57735935  0.41609858  0.44157022  1  0.016519  0  -0.017957  -0.100297  0  4.014084  0
C  C62  1  0.35387751  0.64452274  0.50957072  1  -0.122812  0  -0.020028  -0.16482  0  3.936667  0
C  C63  1  0.62622221  0.36564128  0.51035216  1  -0.140564  0  -0.022887  -0.167182  0  3.963717  0
C  C64  1  0.49414011  0.49820773  0.46719886  1  -0.184204  0  -0.017062  -0.043753  0  4.060162  0
C  C65  1  0.48094200  0.50485621  0.55549497  1  -0.13652  0  -0.011329  -0.023972  0  4.066985  0
C  C66  1  0.08467102  0.57289771  0.87538050  1  0.501608  0  0.120664  0.278583  0  4.011948  0
C  C67  1  0.94505430  0.59338730  0.84082084  1  0.055187  0  -0.117877  -0.232035  0  4.032948  0
C  C68  1  0.93796673  0.50395454  0.90890016  1  0.361166  0  0.078151  0.233294  0  4.088054  0
C  C69  1  0.99640996  0.45140736  0.97339152  1  -0.007073  0  -0.010358  -0.091794  0  3.887009  0
C  C70  1  0.96711354  0.38032489  0.06853177  1  0.512836  0  0.121044  0.278911  0  4.013901  0
C  C71  1  0.12076862  0.34561071  0.08920725  1  -0.003065  0  -0.117519  -0.231708  0  4.033152  0
C  C72  1  0.14930365  0.41363819  0.99975607  1  0.363969  0  0.078017  0.233012  0  4.0896  0
C  C73  1  0.07918823  0.47793121  0.94684786  1  -0.010331  0  -0.010567  -0.093432  0  3.888493  0
C  C74  1  0.01152117  0.63305537  0.82770082  1  0.039845  0  -0.049241  -0.185851  0  4.026554  0
C  C75  1  0.02779080  0.33246174  0.12870915  1  0.003013  0  -0.049766  -0.185859  0  4.025349  0
C  C76  1  0.42538643  0.06508643  0.41696200  1  0.000477  0  -0.018371  -0.091712  0  3.968839  0
C  C77  1  0.59362138  0.92087160  0.55893458  1  0.002686  0  -0.018528  -0.091184  0  3.9687  0
C  C78  1  0.36893271  0.00265420  0.48400702  1  -0.139811  0  -0.023845  -0.180234  0  3.933257  0
C  C79  1  0.64484280  0.98847591  0.49722789  1  -0.142449  0  -0.024022  -0.181038  0  3.933352  0
C  C80  1  0.51375459  0.94981069  0.52835485  1  -0.152761  0  -0.010854  -0.026768  0  4.062179  0
C  C81  1  0.50747325  0.03394807  0.44530747  1  -0.128828  0  -0.011154  -0.026873  0  4.063396  0
C  C82  1  0.85430421  0.40232325  0.68505257  1  1.564095  0  0.227534  0.577216  0  4.15218  0
C  C83  1  0.10588651  0.64116596  0.31029121  1  1.561571  0  0.222466  0.577528  0  4.155387  0
C  C84  1  0.44228474  0.81474468  0.13675670  1  1.58227  0  0.222204  0.576552  0  4.157898  0
C  C85  1  0.55882032  0.18895592  0.89836532  1  1.592796  0  0.227013  0.576613  0  4.152187  0
C  C86  1  0.15485859  0.86346895  0.87826257  1  1.578776  0  0.235669  0.59407  0  4.127634  0
C  C87  1  0.84811829  0.18295051  0.09126627  1  1.603319  0  0.230156  0.577049  0  4.145574  0
C  C88  1  0.37940846  0.59647393  0.67757399  1  1.592797  0  0.230306  0.577265  0  4.141311  0
C  C89  1  0.60200999  0.38219016  0.35946303  1  1.56851  0  0.236736  0.596915  0  4.124457  0
C  C90  1  0.41838750  0.15126833  0.32520163  1  1.570174  0  0.222465  0.570384  0  4.158746  0
C  C91  1  0.60740189  0.82805213  0.64384270  1  1.561891  0  0.222321  0.571718  0  4.157171  0
S  S92  1  0.05071074  0.44228512  0.39848604  1  0.390154  0  0.139207  0.218375  0  2.820973  0
S  S93  1  0.91114337  0.59819233  0.59713336  1  0.384979  0  0.139166  0.215608  0  2.879257  0
S  S94  1  0.39384385  0.10125307  0.09417638  1  0.386505  0  0.138582  0.214253  0  2.8773  0
S  S95  1  0.60799110  0.90290139  0.93770056  1  0.3908  0  0.138872  0.21781  0  2.820789  0
S  S96  1  0.91035298  0.11312124  0.90778315  1  0.384316  0  0.13704  0.217569  0  2.830724  0
S  S97  1  0.08404322  0.91930087  0.08985322  1  0.337182  0  0.129564  0.205691  0  2.770237  0
S  S98  1  0.40588197  0.59422017  0.41541709  1  0.343837  0  0.129568  0.205875  0  2.772914  0
S  S99  1  0.56930682  0.41251003  0.60785905  1  0.397281  0  0.136623  0.216627  0  2.8334  0
S  S100  1  0.41863591  0.90695618  0.57527560  1  0.42468  0  0.148009  0.239811  0  2.863384  0
S  S101  1  0.59830962  0.08104626  0.40272507  1  0.417585  0  0.148449  0.24069  0  2.864515  0
N  N102  1  0.24177154  0.42408571  0.96499280  1  -1.215384  0  -0.587624  -0.607499  0  3.289261  0
N  N103  1  0.15297756  0.60603507  0.85983372  1  -1.283456  0  -0.579556  -0.584081  0  3.397068  0
N  N104  1  0.87005301  0.46898742  0.91926198  1  -1.205081  0  -0.587396  -0.606673  0  3.288784  0
N  N105  1  0.88081034  0.36547123  0.10187593  1  -1.29913  0  -0.579388  -0.584809  0  3.400062  0
O  O106  1  0.92557410  0.77584358  0.56620366  1  -1.178837  0  -0.339661  -0.596142  0  2.296374  0
O  O107  1  0.23255683  0.07044953  0.27177803  1  -1.178609  0  -0.339531  -0.59579  0  2.296164  0
O  O108  1  0.04970202  0.25341245  0.43921447  1  -1.177389  0  -0.33682  -0.589981  0  2.266587  0
O  O109  1  0.75728224  0.94355227  0.74873527  1  -1.169596  0  -0.336899  -0.589568  0  2.264706  0
O  O110  1  0.06470153  0.77463605  0.73755282  1  -1.18196  0  -0.364951  -0.640474  0  2.264817  0
O  O111  1  0.75803534  0.06744488  0.43831046  1  -1.18003  0  -0.341139  -0.592296  0  2.273407  0
O  O112  1  0.92318502  0.24211421  0.27007553  1  -1.180767  0  -0.364648  -0.640557  0  2.264259  0
O  O113  1  0.23589407  0.94337221  0.56303256  1  -1.17375  0  -0.340759  -0.592661  0  2.272247  0
O  O114  1  0.23360620  0.77024318  0.43495109  1  -1.17482  0  -0.34178  -0.596362  0  2.262775  0
O  O115  1  0.92261490  0.08118390  0.74232470  1  -1.180629  0  -0.358474  -0.615697  0  2.271936  0
O  O116  1  0.75354746  0.24676110  0.57622207  1  -1.174336  0  -0.358381  -0.615608  0  2.274216  0
O  O117  1  0.06152948  0.93912111  0.26569111  1  -1.176294  0  -0.341862  -0.596526  0  2.261082  0
O  O118  1  0.06003774  0.94164094  0.74095058  1  -1.175887  0  -0.358569  -0.610653  0  2.295388  0
O  O119  1  0.75701007  0.24522347  0.43676261  1  -1.174992  0  -0.35875  -0.610913  0  2.294221  0
O  O120  1  0.91706937  0.06969371  0.27667722  1  -1.190349  0  -0.349601  -0.616262  0  2.376874  0
O  O121  1  0.23657339  0.78144885  0.56534427  1  -1.188658  0  -0.3491  -0.615393  0  2.376074  0
O  O122  1  0.92415391  0.78329394  0.73517949  1  -1.176275  0  -0.397238  -0.643612  0  2.328933  0
O  O123  1  0.23032043  0.08087339  0.42986916  1  -1.186532  0  -0.354335  -0.61799  0  2.347341  0
O  O124  1  0.05747873  0.23953763  0.27887907  1  -1.173467  0  -0.397786  -0.643797  0  2.328695  0
O  O125  1  0.75947464  0.93392275  0.57551941  1  -1.197602  0  -0.353694  -0.616802  0  2.345871  0
O  O126  1  0.75650063  0.08236977  0.74651560  1  -1.195469  0  -0.351253  -0.615168  0  2.346755  0
O  O127  1  0.05922628  0.77966005  0.42549695  1  -1.189519  0  -0.354089  -0.616842  0  2.341906  0
O  O128  1  0.23570079  0.92978934  0.27558938  1  -1.195301  0  -0.354496  -0.617365  0  2.342041  0
O  O129  1  0.91382244  0.25122619  0.57801015  1  -1.194234  0  -0.351186  -0.616081  0  2.345205  0
O  O130  1  0.80928580  0.06916886  0.56868949  1  -1.263157  0  -0.691865  -1.070111  0  2.339452  0
O  O131  1  0.05231763  0.07339200  0.56483295  1  -1.231366  0  -0.691879  -1.070537  0  2.339891  0
O  O132  1  0.05214556  0.06622411  0.32605955  1  -1.2437  0  -0.696709  -1.068721  0  2.372817  0
O  O133  1  0.05554966  0.83059526  0.56185019  1  -1.249498  0  -0.696706  -1.067489  0  2.3744  0
O  O134  1  0.12531287  0.96659890  0.46057116  1  -1.198931  0  -0.789316  -1.147174  0  2.126117  0
O  O135  1  0.94758350  0.96488999  0.46202710  1  -1.198448  0  -0.789664  -1.147554  0  2.126145  0
O  O136  1  0.94503794  0.14217647  0.46366283  1  -1.192191  0  -0.797486  -1.144607  0  2.15982  0
O  O137  1  0.94882163  0.96823358  0.63764490  1  -1.192326  0  -0.797073  -1.144973  0  2.161022  0
O  O138  1  0.82027322  0.32980039  0.71932064  1  -1.138692  0  -0.330223  -0.45356  0  2.285455  0
O  O139  1  0.83054099  0.45074603  0.73616642  1  -1.102613  0  -0.276562  -0.450443  0  2.089537  0
O  O140  1  0.13757596  0.71542812  0.27662082  1  -1.142335  0  -0.340849  -0.475457  0  2.305194  0
O  O141  1  0.13005999  0.59419513  0.25769120  1  -1.101423  0  -0.286188  -0.455371  0  2.066447  0
O  O142  1  0.37028900  0.78090514  0.21141767  1  -1.152927  0  -0.340405  -0.474747  0  2.3061  0
O  O143  1  0.51737427  0.76231083  0.08938045  1  -1.107891  0  -0.285692  -0.45444  0  2.067913  0
O  O144  1  0.63103948  0.22324448  0.82568237  1  -1.142826  0  -0.329946  -0.452995  0  2.284718  0
O  O145  1  0.48335934  0.23992373  0.94718045  1  -1.120905  0  -0.276585  -0.450432  0  2.089535  0
O  O146  1  0.14970811  0.77135752  0.92829865  1  -1.087521  0  -0.317262  -0.446112  0  2.204694  0
O  O147  1  0.23016599  0.87703304  0.81273115  1  -1.087984  0  -0.258912  -0.421817  0  2.066346  0
O  O148  1  0.79684393  0.19771355  0.17881412  1  -1.134715  0  -0.325132  -0.448033  0  2.288761  0
O  O149  1  0.82855174  0.24491332  0.01678280  1  -1.108815  0  -0.269664  -0.44068  0  2.084267  0
O  O150  1  0.32770848  0.68395483  0.69251274  1  -1.138372  0  -0.32587  -0.448519  0  2.288238  0
O  O151  1  0.41288122  0.52236009  0.73893919  1  -1.108777  0  -0.269892  -0.440045  0  2.080718  0
O  O152  1  0.65005221  0.43113482  0.26715087  1  -1.090552  0  -0.31775  -0.446437  0  2.204126  0
O  O153  1  0.57761020  0.31712602  0.37367143  1  -1.074535  0  -0.259577  -0.423252  0  2.066948  0
O  O154  1  0.34241980  0.18528573  0.29450222  1  -1.156729  0  -0.342616  -0.472103  0  2.275068  0
O  O155  1  0.48421458  0.18746664  0.27964239  1  -1.094352  0  -0.274301  -0.435961  0  2.074063  0
O  O156  1  0.68076855  0.79668147  0.67718339  1  -1.14876  0  -0.343125  -0.474264  0  2.277883  0
O  O157  1  0.55133018  0.78216399  0.67964398  1  -1.08197  0  -0.274276  -0.436666  0  2.07334  0
