# generated using pymatgen
data_HgH7C11N3Cl2OF2
_symmetry_space_group_name_H-M   'P 1'
_cell_length_a   3.92538525
_cell_length_b   10.73175974
_cell_length_c   31.53800000
_cell_angle_alpha   99.91343115
_cell_angle_beta   90.00000000
_cell_angle_gamma   90.00000000
_symmetry_Int_Tables_number   1
_chemical_formula_structural   HgH7C11N3Cl2OF2
_chemical_formula_sum   'Hg4 H28 C44 N12 Cl8 O4 F8'
_cell_volume   1308.74195956
_cell_formula_units_Z   4
loop_
 _symmetry_equiv_pos_site_id
 _symmetry_equiv_pos_as_xyz
  1  'x, y, z'
loop_
 _atom_site_type_symbol
 _atom_site_label
 _atom_site_symmetry_multiplicity
 _atom_site_fract_x
 _atom_site_fract_y
 _atom_site_fract_z
 _atom_site_occupancy
 _atom_site_hle17_bader_spin_density
 _atom_site_hle17_ddec_charge
 _atom_site_hle17_ddec_spin_density
 _atom_site_hle17_ddec_sum_bond_order
 _atom_site_hle17_magmom
 _atom_site_hse06_10hf_bader_spin_density
 _atom_site_hse06_10hf_ddec_charge
 _atom_site_hse06_10hf_ddec_spin_density
 _atom_site_hse06_10hf_ddec_sum_bond_order
 _atom_site_hse06_10hf_magmom
 _atom_site_hse06_bader_spin_density
 _atom_site_hse06_ddec_charge
 _atom_site_hse06_ddec_spin_density
 _atom_site_hse06_ddec_sum_bond_order
 _atom_site_hse06_magmom
 _atom_site_pbe_bader_charge
 _atom_site_pbe_bader_spin_density
 _atom_site_pbe_cm5_charge
 _atom_site_pbe_ddec_charge
 _atom_site_pbe_ddec_spin_density
 _atom_site_pbe_ddec_sum_bond_order
 _atom_site_pbe_magmom
Hg  Hg0  1  0.06772584  0.81941073  0.76171149  1  0  0.745882  0  2.127815  0  0  0.600818  0  2.625491  0  0  0.649282  0  2.590192  0  0.834551  0  0.474927  0.567277  0  2.649736  0
Hg  Hg1  1  0.56769460  0.18057945  0.73828826  1  0  0.745934  0  2.127811  0  0  0.600854  0  2.625516  0  0  0.649319  0  2.590216  0  0.834532  0  0.474921  0.567314  0  2.649764  0
Hg  Hg2  1  0.93230849  0.18057945  0.23828667  1  0  0.745916  0  2.127817  0  0  0.600848  0  2.625508  0  0  0.649317  0  2.590206  0  0.834519  0  0.47491  0.567311  0  2.649751  0
Hg  Hg3  1  0.43229642  0.81941262  0.26171318  1  0  0.745946  0  2.127765  0  0  0.600848  0  2.625503  0  0  0.649319  0  2.590198  0  0.834479  0  0.474926  0.567317  0  2.649745  0
H  H4  1  0.61201636  0.45360443  0.85496577  1  0  0.08531  0  0.95355  0  0  0.092393  0  1.019028  0  0  0.095528  0  1.017234  0  0.104524  0  0.108607  0.090174  0  1.020428  0
H  H5  1  0.11205270  0.54639805  0.64503089  1  0  0.085418  0  0.953383  0  0  0.092445  0  1.018927  0  0  0.095579  0  1.017133  0  0.104416  0  0.108614  0.09023  0  1.020318  0
H  H6  1  0.38795428  0.54640467  0.14502937  1  0  0.085399  0  0.953289  0  0  0.092386  0  1.018878  0  0  0.095527  0  1.017071  0  0.104327  0  0.108555  0.090168  0  1.020278  0
H  H7  1  0.88798927  0.45359875  0.35497178  1  0  0.085384  0  0.953462  0  0  0.092402  0  1.018991  0  0  0.095541  0  1.01719  0  0.104469  0  0.108569  0.090175  0  1.020411  0
H  H8  1  0.73384389  0.55847105  0.79100260  1  0  0.083258  0  0.956755  0  0  0.086326  0  1.030679  0  0  0.089092  0  1.02828  0  0.145823  0  0.101779  0.084441  0  1.032482  0
H  H9  1  0.23384966  0.44153048  0.70899527  1  0  0.083235  0  0.956786  0  0  0.086294  0  1.030715  0  0  0.08906  0  1.028316  0  0.14593  0  0.10175  0.084409  0  1.03252  0
H  H10  1  0.26614967  0.44154373  0.20899510  1  0  0.083246  0  0.95674  0  0  0.086338  0  1.030653  0  0  0.089106  0  1.028253  0  0.145983  0  0.101776  0.084453  0  1.032457  0
H  H11  1  0.76615665  0.55845592  0.29100615  1  0  0.083253  0  0.956735  0  0  0.086336  0  1.030635  0  0  0.089104  0  1.028234  0  0.146045  0  0.10181  0.084451  0  1.032437  0
H  H12  1  0.23693216  0.85090288  0.87081207  1  0  0.113167  0  0.941997  0  0  0.111432  0  1.01865  0  0  0.115866  0  1.013997  0  0.178999  0  0.117237  0.10815  0  1.022216  0
H  H13  1  0.73692130  0.14909204  0.62918700  1  0  0.113117  0  0.942021  0  0  0.111372  0  1.018723  0  0  0.11581  0  1.014071  0  0.178901  0  0.117208  0.10809  0  1.022291  0
H  H14  1  0.76307160  0.14910055  0.12918876  1  0  0.113223  0  0.94199  0  0  0.111489  0  1.018649  0  0  0.115924  0  1.013997  0  0.179042  0  0.117275  0.108209  0  1.022215  0
H  H15  1  0.26307991  0.85089815  0.37081370  1  0  0.113255  0  0.941973  0  0  0.111494  0  1.01866  0  0  0.115928  0  1.014003  0  0.179107  0  0.117291  0.108212  0  1.022227  0
H  H16  1  0.74949077  0.64004491  0.11323750  1  0  0.112979  0  0.959163  0  0  0.121498  0  1.023023  0  0  0.123859  0  1.021922  0  0.087255  0  0.100423  0.119845  0  1.023902  0
H  H17  1  0.24948634  0.35996324  0.38676425  1  0  0.112942  0  0.959187  0  0  0.121455  0  1.023043  0  0  0.123814  0  1.021944  0  0.087191  0  0.100406  0.119804  0  1.02392  0
H  H18  1  0.25052573  0.35996608  0.88676442  1  0  0.112894  0  0.959196  0  0  0.121423  0  1.023032  0  0  0.123786  0  1.021929  0  0.087157  0  0.100394  0.11977  0  1.023908  0
H  H19  1  0.75052251  0.64003829  0.61323584  1  0  0.112944  0  0.959153  0  0  0.121471  0  1.022991  0  0  0.123833  0  1.02189  0  0.087212  0  0.100407  0.119818  0  1.023872  0
H  H20  1  0.01749128  0.84524712  0.14910209  1  0  0.119829  0  0.959088  0  0  0.125596  0  1.028132  0  0  0.128304  0  1.027222  0  0.075928  0  0.090131  0.12362  0  1.028979  0
H  H21  1  0.51748042  0.15475725  0.35089722  1  0  0.119819  0  0.959027  0  0  0.125568  0  1.028089  0  0  0.128289  0  1.027168  0  0.075976  0  0.090087  0.123593  0  1.02893  0
H  H22  1  0.98253031  0.15476198  0.85089813  1  0  0.119809  0  0.959136  0  0  0.125607  0  1.028146  0  0  0.128304  0  1.027252  0  0.075984  0  0.090108  0.123631  0  1.02899  0
H  H23  1  0.48251315  0.84524049  0.64910202  1  0  0.119851  0  0.959075  0  0  0.125625  0  1.028107  0  0  0.128344  0  1.027185  0  0.076005  0  0.090113  0.123648  0  1.028953  0
H  H24  1  0.28034446  0.93001730  0.02450889  1  0  0.165801  0  0.938665  0  0  0.171064  0  0.998563  0  0  0.175769  0  0.994946  0  0.178985  0  0.12029  0.167685  0  1.001327  0
H  H25  1  0.78033105  0.06998707  0.47549168  1  0  0.165769  0  0.938712  0  0  0.171055  0  0.998583  0  0  0.175751  0  0.994991  0  0.179025  0  0.120277  0.167676  0  1.001346  0
H  H26  1  0.71964147  0.06999275  0.97549075  1  0  0.165778  0  0.938639  0  0  0.171049  0  0.998541  0  0  0.175743  0  0.994954  0  0.178972  0  0.120248  0.167669  0  1.001305  0
H  H27  1  0.21965997  0.93001068  0.52450755  1  0  0.165736  0  0.938698  0  0  0.17101  0  0.998619  0  0  0.175713  0  0.995006  0  0.179058  0  0.120268  0.167631  0  1.001382  0
H  H28  1  0.85778587  0.63105188  0.96841109  1  0  0.303834  0  0.894118  0  0  0.272537  0  0.980297  0  0  0.282034  0  0.970996  0  0.495419  0  0.31245  0.26574  0  0.98707  0
H  H29  1  0.35777125  0.36894681  0.53159074  1  0  0.303894  0  0.893967  0  0  0.272614  0  0.980126  0  0  0.282111  0  0.970825  0  0.49539  0  0.312455  0.265817  0  0.986902  0
H  H30  1  0.14219751  0.36895154  0.03159070  1  0  0.303772  0  0.894171  0  0  0.272445  0  0.980367  0  0  0.281937  0  0.971079  0  0.495406  0  0.312422  0.265651  0  0.987133  0
H  H31  1  0.64221977  0.63104905  0.46840997  1  0  0.303817  0  0.89408  0  0  0.272539  0  0.980232  0  0  0.282036  0  0.97093  0  0.495367  0  0.312436  0.265739  0  0.987016  0
C  C32  1  0.74581469  0.54398024  0.85899921  1  0  0.07152  0  3.704431  0  0  0.048815  0  3.966942  0  0  0.048318  0  3.984695  0  0.509422  0  0.046424  0.048985  0  3.955158  0
C  C33  1  0.24583574  0.45601941  0.64099792  1  0  0.071446  0  3.704648  0  0  0.048783  0  3.967184  0  0  0.048289  0  3.984933  0  0.511977  0  0.046404  0.048946  0  3.955415  0
C  C34  1  0.25415849  0.45602603  0.14099735  1  0  0.071379  0  3.704588  0  0  0.048782  0  3.967095  0  0  0.048284  0  3.984852  0  0.509559  0  0.046403  0.048961  0  3.95529  0
C  C35  1  0.75418839  0.54397456  0.35900427  1  0  0.071482  0  3.704421  0  0  0.048854  0  3.966946  0  0  0.048358  0  3.984698  0  0.509385  0  0.046479  0.049019  0  3.955161  0
C  C36  1  0.81781272  0.60033919  0.82328349  1  0  0.08085  0  3.692127  0  0  0.050631  0  3.947522  0  0  0.054887  0  3.967001  0  0.463605  0  0.042496  0.047664  0  3.934297  0
C  C37  1  0.31782103  0.39965856  0.67671416  1  0  0.080723  0  3.692215  0  0  0.050504  0  3.947574  0  0  0.054757  0  3.96706  0  0.461307  0  0.04242  0.047539  0  3.934343  0
C  C38  1  0.18217830  0.39967086  0.17671393  1  0  0.080675  0  3.692218  0  0  0.050397  0  3.947608  0  0  0.054652  0  3.967093  0  0.464285  0  0.04237  0.04743  0  3.934379  0
C  C39  1  0.68219291  0.60033257  0.32328786  1  0  0.080783  0  3.692168  0  0  0.050536  0  3.947569  0  0  0.054789  0  3.967048  0  0.464725  0  0.042388  0.04757  0  3.934338  0
C  C40  1  0.09255652  0.76299407  0.86718633  1  0  0.095451  0  3.625013  0  0  0.053303  0  3.884072  0  0  0.059449  0  3.89996  0  0.497683  0  0.063587  0.049173  0  3.873587  0
C  C41  1  0.59255330  0.23700178  0.63281216  1  0  0.095553  0  3.62503  0  0  0.053334  0  3.884155  0  0  0.059469  0  3.900058  0  0.497498  0  0.063569  0.049208  0  3.873662  0
C  C42  1  0.90743450  0.23701124  0.13281366  1  0  0.095399  0  3.624929  0  0  0.053189  0  3.884063  0  0  0.059325  0  3.899977  0  0.497693  0  0.063494  0.049062  0  3.873572  0
C  C43  1  0.40745300  0.76298934  0.36718796  1  0  0.095383  0  3.624962  0  0  0.053243  0  3.884042  0  0  0.059386  0  3.899939  0  0.497287  0  0.063507  0.049117  0  3.873546  0
C  C44  1  0.00970096  0.70733417  0.90296805  1  0  0.064716  0  3.723158  0  0  0.072073  0  3.974618  0  0  0.069512  0  3.991994  0  0.510871  0  0.124699  0.073322  0  3.963233  0
C  C45  1  0.50970539  0.29266169  0.59703139  1  0  0.064643  0  3.723221  0  0  0.072072  0  3.974699  0  0  0.069508  0  3.992073  0  0.510953  0  0.124723  0.073324  0  3.963315  0
C  C46  1  0.99027732  0.29266831  0.09703146  1  0  0.064799  0  3.723117  0  0  0.072173  0  3.974592  0  0  0.069609  0  3.991964  0  0.510853  0  0.124757  0.07342  0  3.963213  0
C  C47  1  0.49030092  0.70733133  0.40296916  1  0  0.064805  0  3.723092  0  0  0.07212  0  3.974612  0  0  0.069558  0  3.991982  0  0.511084  0  0.124708  0.073371  0  3.963226  0
C  C48  1  0.11372387  0.77165035  0.94735385  1  0  0.518725  0  3.827338  0  0  0.469087  0  4.116927  0  0  0.498066  0  4.115891  0  1.454986  0  0.244422  0.449692  0  4.117023  0
C  C49  1  0.61372065  0.22834362  0.55264484  1  0  0.518903  0  3.827021  0  0  0.469182  0  4.11674  0  0  0.498168  0  4.115687  0  1.455278  0  0.24444  0.449779  0  4.116849  0
C  C50  1  0.88626206  0.22835686  0.05264594  1  0  0.518751  0  3.827278  0  0  0.46914  0  4.116834  0  0  0.49812  0  4.11579  0  1.454837  0  0.244407  0.449748  0  4.116928  0
C  C51  1  0.38628056  0.77164373  0.44735441  1  0  0.518883  0  3.827268  0  0  0.46928  0  4.116839  0  0  0.498263  0  4.11579  0  1.45495  0  0.244459  0.449882  0  4.116938  0
C  C52  1  0.01294905  0.75196066  0.02343134  1  0  0.189903  0  3.798177  0  0  0.175471  0  4.055353  0  0  0.182672  0  4.075998  0  0.385134  0  0.096722  0.170799  0  4.041326  0
C  C53  1  0.51294838  0.24804087  0.47656844  1  0  0.189987  0  3.798223  0  0  0.175658  0  4.055286  0  0  0.182847  0  4.075941  0  0.385168  0  0.096783  0.170984  0  4.041262  0
C  C54  1  0.98704452  0.24804655  0.97656940  1  0  0.189988  0  3.798224  0  0  0.175735  0  4.055198  0  0  0.182857  0  4.075939  0  0.382876  0  0.09681  0.171063  0  4.041174  0
C  C55  1  0.48704519  0.75195498  0.52343195  1  0  0.189975  0  3.798103  0  0  0.175716  0  4.055119  0  0  0.182852  0  4.075842  0  0.382728  0  0.096811  0.171043  0  4.041095  0
C  C56  1  0.86855424  0.67364839  0.05007861  1  0  0.196472  0  3.757023  0  0  0.172097  0  4.051027  0  0  0.177905  0  4.063188  0  0.340893  0  0.08295  0.167779  0  4.043042  0
C  C57  1  0.36854727  0.32635693  0.44992328  1  0  0.196332  0  3.757316  0  0  0.172021  0  4.051218  0  0  0.177833  0  4.063382  0  0.340448  0  0.082894  0.167704  0  4.043231  0
C  C58  1  0.13146480  0.32635598  0.94992323  1  0  0.196407  0  3.757118  0  0  0.172095  0  4.050989  0  0  0.17793  0  4.06317  0  0.34283  0  0.082921  0.167778  0  4.043002  0
C  C59  1  0.63145904  0.67364272  0.55007733  1  0  0.196294  0  3.757327  0  0  0.171972  0  4.051214  0  0  0.177799  0  4.063392  0  0.34287  0  0.082851  0.167655  0  4.043225  0
C  C60  1  0.86824599  0.70403190  0.09443957  1  0  -0.149549  0  3.820518  0  0  -0.176476  0  4.08955  0  0  -0.179068  0  4.112541  0  0.113572  0  -0.104833  -0.174541  0  4.073813  0
C  C61  1  0.36824921  0.29597531  0.40556243  1  0  -0.149504  0  3.820555  0  0  -0.176354  0  4.089447  0  0  -0.178945  0  4.112444  0  0.113677  0  -0.104765  -0.174419  0  4.073709  0
C  C62  1  0.13177051  0.29597342  0.90556169  1  0  -0.14945  0  3.82041  0  0  -0.176383  0  4.089433  0  0  -0.178964  0  4.112402  0  0.113115  0  -0.10476  -0.174447  0  4.073694  0
C  C63  1  0.63175710  0.70402528  0.59443792  1  0  -0.149517  0  3.820437  0  0  -0.176392  0  4.089359  0  0  -0.178982  0  4.112348  0  0.113622  0  -0.104813  -0.174457  0  4.073625  0
C  C64  1  0.01640349  0.81740818  0.11426999  1  0  -0.179676  0  3.772197  0  0  -0.207615  0  4.03759  0  0  -0.214053  0  4.059935  0  0.090472  0  -0.111472  -0.202786  0  4.022001  0
C  C65  1  0.51639517  0.18259808  0.38573164  1  0  -0.179786  0  3.772125  0  0  -0.207735  0  4.037591  0  0  -0.21419  0  4.059928  0  0.090523  0  -0.111469  -0.202906  0  4.022006  0
C  C66  1  0.98362320  0.18259808  0.88573101  1  0  -0.179805  0  3.772236  0  0  -0.207761  0  4.037666  0  0  -0.214195  0  4.060017  0  0.090897  0  -0.111518  -0.202933  0  4.022085  0
C  C67  1  0.48360349  0.81740156  0.61426802  1  0  -0.179814  0  3.772201  0  0  -0.2078  0  4.037613  0  0  -0.21425  0  4.059953  0  0.090196  0  -0.111489  -0.202972  0  4.022028  0
C  C68  1  0.15878441  0.89453708  0.08789774  1  0  0.327674  0  3.787084  0  0  0.307926  0  4.075148  0  0  0.318998  0  4.086802  0  0.341117  0  0.09313  0.300236  0  4.067106  0
C  C69  1  0.65878629  0.10546635  0.41210310  1  0  0.32775  0  3.787085  0  0  0.307954  0  4.075246  0  0  0.319029  0  4.086904  0  0.341116  0  0.093102  0.300263  0  4.067203  0
C  C70  1  0.84122444  0.10547108  0.91210274  1  0  0.327834  0  3.787038  0  0  0.308067  0  4.075207  0  0  0.319143  0  4.086855  0  0.341388  0  0.093169  0.300376  0  4.067166  0
C  C71  1  0.34120727  0.89453046  0.58789640  1  0  0.327718  0  3.787053  0  0  0.308054  0  4.075083  0  0  0.319128  0  4.086738  0  0.341413  0  0.093134  0.300363  0  4.06704  0
C  C72  1  0.16406797  0.86574085  0.04331522  1  0  -0.242336  0  3.666132  0  0  -0.275757  0  3.926879  0  0  -0.281752  0  3.943892  0  0.113812  0  -0.096058  -0.271877  0  3.915735  0
C  C73  1  0.66406985  0.13426163  0.45668524  1  0  -0.242289  0  3.666065  0  0  -0.275758  0  3.926862  0  0  -0.281751  0  3.943875  0  0.113761  0  -0.096036  -0.271879  0  3.91572  0
C  C74  1  0.83592560  0.13426730  0.95668462  1  0  -0.24226  0  3.666099  0  0  -0.27576  0  3.926934  0  0  -0.281733  0  3.943967  0  0.113918  0  -0.095962  -0.271879  0  3.91579  0
C  C75  1  0.33592372  0.86573517  0.54331457  1  0  -0.242149  0  3.666025  0  0  -0.275723  0  3.926854  0  0  -0.281697  0  3.943886  0  0.113771  0  -0.096015  -0.271843  0  3.915712  0
N  N76  1  0.83707198  0.59794407  0.89876623  1  0  -0.262846  0  3.069174  0  0  -0.2385  0  3.337092  0  0  -0.242357  0  3.350432  0  -1.152185  0  -0.290224  -0.23556  0  3.32828  0
N  N77  1  0.33708793  0.40205462  0.60123179  1  0  -0.262732  0  3.069619  0  0  -0.238389  0  3.337508  0  0  -0.242244  0  3.35085  0  -1.152279  0  -0.290102  -0.235447  0  3.328695  0
N  N78  1  0.16290376  0.40205935  0.10123143  1  0  -0.262701  0  3.069436  0  0  -0.238377  0  3.337345  0  0  -0.24223  0  3.350687  0  -1.152427  0  -0.290096  -0.23544  0  3.328535  0
N  N79  1  0.66293620  0.59794218  0.39877025  1  0  -0.262826  0  3.069437  0  0  -0.238473  0  3.337316  0  0  -0.242329  0  3.350656  0  -1.152587  0  -0.29015  -0.235528  0  3.328504  0
N  N80  1  0.99152816  0.70946820  0.82767485  1  0  -0.270015  0  3.220394  0  0  -0.203217  0  3.486959  0  0  -0.221237  0  3.508381  0  -1.194821  0  -0.299416  -0.190578  0  3.47204  0
N  N81  1  0.49152373  0.29052860  0.67232338  1  0  -0.270011  0  3.220445  0  0  -0.203182  0  3.487014  0  0  -0.221199  0  3.508429  0  -1.194748  0  -0.29937  -0.190539  0  3.472089  0
N  N82  1  0.00846796  0.29054090  0.17232474  1  0  -0.269935  0  3.220414  0  0  -0.203111  0  3.487019  0  0  -0.221124  0  3.508418  0  -1.195388  0  -0.299321  -0.190472  0  3.472101  0
N  N83  1  0.50848003  0.70945874  0.32767683  1  0  -0.270033  0  3.220652  0  0  -0.203219  0  3.487204  0  0  -0.221243  0  3.508632  0  -1.195568  0  -0.299348  -0.190581  0  3.47229  0
N  N84  1  0.98844820  0.71279980  0.97908791  1  0  -0.413587  0  3.382492  0  0  -0.36262  0  3.632483  0  0  -0.384359  0  3.639557  0  -1.259299  0  -0.390813  -0.347828  0  3.627333  0
N  N85  1  0.48843614  0.28719890  0.52091201  1  0  -0.413895  0  3.38241  0  0  -0.362919  0  3.632407  0  0  -0.384654  0  3.639472  0  -1.259538  0  -0.390902  -0.348126  0  3.627263  0
N  N86  1  0.01153517  0.28720552  0.02091240  1  0  -0.413597  0  3.382602  0  0  -0.362626  0  3.63258  0  0  -0.384331  0  3.639663  0  -1.25939  0  -0.390802  -0.347838  0  3.627431  0
N  N87  1  0.51155234  0.71279601  0.47908833  1  0  -0.413786  0  3.382489  0  0  -0.362853  0  3.632411  0  0  -0.384564  0  3.639488  0  -1.259355  0  -0.3909  -0.348062  0  3.627263  0
Cl  Cl88  1  0.46380161  0.96989518  0.79793420  1  0  -0.40118  0  1.207137  0  0  -0.338782  0  1.5276  0  0  -0.359941  0  1.507953  0  -0.439202  0  -0.218689  -0.32444  0  1.541181  0
Cl  Cl89  1  0.96380349  0.03010446  0.70206355  1  0  -0.401213  0  1.207147  0  0  -0.338819  0  1.527619  0  0  -0.359979  0  1.507974  0  -0.43919  0  -0.218703  -0.324498  0  1.541244  0
Cl  Cl90  1  0.53619960  0.03010257  0.20206440  1  0  -0.401214  0  1.207169  0  0  -0.338825  0  1.527639  0  0  -0.359986  0  1.507988  0  -0.439198  0  -0.218696  -0.324501  0  1.541264  0
Cl  Cl91  1  0.03619772  0.96989140  0.29793620  1  0  -0.40121  0  1.20713  0  0  -0.338808  0  1.527585  0  0  -0.359967  0  1.507936  0  -0.439198  0  -0.218703  -0.324482  0  1.5412  0
Cl  Cl92  1  0.71033283  0.67447419  0.71602813  1  0  -0.434925  0  1.067312  0  0  -0.368855  0  1.356294  0  0  -0.388572  0  1.33835  0  -0.480934  0  -0.236892  -0.355666  0  1.369051  0
Cl  Cl93  1  0.21033604  0.32552450  0.78397148  1  0  -0.434955  0  1.067313  0  0  -0.368866  0  1.356271  0  0  -0.388583  0  1.338324  0  -0.480924  0  -0.236895  -0.355683  0  1.369044  0
Cl  Cl94  1  0.28967603  0.32552261  0.28397010  1  0  -0.434915  0  1.06728  0  0  -0.368848  0  1.356252  0  0  -0.388569  0  1.338309  0  -0.480889  0  -0.236873  -0.355653  0  1.369007  0
Cl  Cl95  1  0.78966007  0.67447514  0.21602755  1  0  -0.434952  0  1.06734  0  0  -0.368858  0  1.356288  0  0  -0.388578  0  1.338341  0  -0.480863  0  -0.236895  -0.355686  0  1.369083  0
O  O96  1  0.29421571  0.86737165  0.95257336  1  0  -0.497406  0  1.919887  0  0  -0.458417  0  2.136424  0  0  -0.477083  0  2.131783  0  -1.113612  0  -0.274791  -0.445419  0  2.139187  0
O  O97  1  0.79421249  0.13262326  0.54742476  1  0  -0.497433  0  1.919718  0  0  -0.458453  0  2.136358  0  0  -0.47712  0  2.131712  0  -1.113716  0  -0.274811  -0.445451  0  2.139125  0
O  O98  1  0.70575748  0.13263272  0.04742658  1  0  -0.497492  0  1.919665  0  0  -0.458534  0  2.136221  0  0  -0.477201  0  2.131581  0  -1.113474  0  -0.274846  -0.445535  0  2.138983  0
O  O99  1  0.20576834  0.86736597  0.45257366  1  0  -0.497514  0  1.919757  0  0  -0.458549  0  2.1363  0  0  -0.47722  0  2.131657  0  -1.113485  0  -0.274809  -0.445548  0  2.139064  0
F  F100  1  0.71706847  0.56347033  0.03054241  1  0  -0.203605  0  1.237883  0  0  -0.145919  0  1.404155  0  0  -0.154853  0  1.395094  0  -0.634528  0  -0.099715  -0.139407  0  1.410336  0
F  F101  1  0.21706150  0.43653026  0.46946048  1  0  -0.20336  0  1.237814  0  0  -0.14587  0  1.404216  0  0  -0.154803  0  1.395155  0  -0.634316  0  -0.099694  -0.139357  0  1.410394  0
F  F102  1  0.28295057  0.43653309  0.96946096  1  0  -0.203442  0  1.237735  0  0  -0.145974  0  1.404156  0  0  -0.154908  0  1.395089  0  -0.63444  0  -0.099746  -0.139462  0  1.410336  0
F  F103  1  0.78294736  0.56347128  0.53053993  1  0  -0.203363  0  1.237852  0  0  -0.145869  0  1.404247  0  0  -0.154802  0  1.395183  0  -0.634389  0  -0.099674  -0.139356  0  1.410426  0
F  F104  1  0.30134112  0.00623562  0.10692944  1  0  -0.220323  0  1.258371  0  0  -0.15489  0  1.423644  0  0  -0.166246  0  1.415976  0  -0.648423  0  -0.097368  -0.146449  0  1.428749  0
F  F105  1  0.80132517  0.99376686  0.39307102  1  0  -0.220308  0  1.258447  0  0  -0.154844  0  1.423725  0  0  -0.166199  0  1.416056  0  -0.648364  0  -0.097317  -0.146402  0  1.428829  0
F  F106  1  0.69866263  0.99377443  0.89306924  1  0  -0.220361  0  1.258322  0  0  -0.154981  0  1.423684  0  0  -0.166336  0  1.416013  0  -0.648486  0  -0.0974  -0.146541  0  1.42879  0
F  F107  1  0.19865057  0.00622805  0.60692900  1  0  -0.220345  0  1.258335  0  0  -0.154933  0  1.423602  0  0  -0.166291  0  1.415934  0  -0.64831  0  -0.097352  -0.146492  0  1.428707  0
