# generated using pymatgen
data_CdH18C26(NO2)2
_symmetry_space_group_name_H-M   'P 1'
_cell_length_a   13.99658352
_cell_length_b   16.52491615
_cell_length_c   16.05497264
_cell_angle_alpha   107.09353121
_cell_angle_beta   89.97991653
_cell_angle_gamma   115.00230616
_symmetry_Int_Tables_number   1
_chemical_formula_structural   CdH18C26(NO2)2
_chemical_formula_sum   'Cd4 H72 C104 N8 O16'
_cell_volume   3183.68727279
_cell_formula_units_Z   4
loop_
 _symmetry_equiv_pos_site_id
 _symmetry_equiv_pos_as_xyz
  1  'x, y, z'
loop_
 _atom_site_type_symbol
 _atom_site_label
 _atom_site_symmetry_multiplicity
 _atom_site_fract_x
 _atom_site_fract_y
 _atom_site_fract_z
 _atom_site_occupancy
 _atom_site_pbe_bader_charge
 _atom_site_pbe_bader_spin_density
 _atom_site_pbe_cm5_charge
 _atom_site_pbe_ddec_charge
 _atom_site_pbe_ddec_spin_density
 _atom_site_pbe_ddec_sum_bond_order
 _atom_site_pbe_magmom
Cd  Cd0  1  0.04711663  0.55528084  0.90791086  1  1.276813  0  0.772166  0.870614  0  2.194519  0
Cd  Cd1  1  0.49234085  0.44485048  0.59222947  1  1.2768  0  0.772355  0.871028  0  2.194519  0
Cd  Cd2  1  0.95288206  0.44471427  0.09208309  1  1.276752  0  0.772179  0.870655  0  2.194442  0
Cd  Cd3  1  0.50765322  0.55514969  0.40777154  1  1.276842  0  0.772346  0.871018  0  2.194441  0
H  H4  1  0.25538494  0.32360530  0.48279740  1  0.086009  0  0.11739  0.089357  0  1.003418  0
H  H5  1  0.35888785  0.56371641  0.21834090  1  0.102448  0  0.11165  0.127707  0  1.006034  0
H  H6  1  0.06892249  0.32337450  0.98243404  1  0.131011  0  0.117607  0.089691  0  1.003153  0
H  H7  1  0.75456447  0.67861619  0.01839429  1  0.082067  0  0.109408  0.116267  0  0.995235  0
H  H8  1  0.06532757  0.76060678  0.31085969  1  0.070685  0  0.100557  0.105289  0  1.004693  0
H  H9  1  0.31710458  0.97320324  0.60219022  1  0.057616  0  0.099673  0.097607  0  1.008885  0
H  H10  1  0.38599058  0.24038639  0.44827258  1  0.173234  0  0.100143  0.115261  0  1.080524  0
H  H11  1  0.75229855  0.30523478  0.43621616  1  0.08616  0  0.107332  0.115673  0  1.005248  0
H  H12  1  0.30517751  0.23940806  0.18931546  1  0.07546  0  0.100695  0.105658  0  1.004656  0
H  H13  1  0.93466513  0.23938636  0.68914055  1  0.07119  0  0.100569  0.105325  0  1.004778  0
H  H14  1  0.68483740  0.86454650  0.13335494  1  0.052986  0  0.097038  0.094115  0  1.016916  0
H  H15  1  0.38617318  0.28126521  0.82305638  1  0.067706  0  0.096127  0.093531  0  1.031046  0
H  H16  1  0.44634388  0.69494338  0.06401908  1  0.104059  0  0.107513  0.115406  0  1.004578  0
H  H17  1  0.73580569  0.11898920  0.06001417  1  0.065933  0  0.103569  0.10869  0  1.00684  0
H  H18  1  0.65611378  0.97345460  0.10281214  1  0.092585  0  0.099707  0.09756  0  1.0092  0
H  H19  1  0.31516461  0.13544669  0.86664780  1  0.052985  0  0.097037  0.094127  0  1.016985  0
H  H20  1  0.64111438  0.43628867  0.78166026  1  0.102512  0  0.11162  0.127688  0  1.006036  0
H  H21  1  0.36361282  0.45634999  0.82559073  1  0.114932  0  0.110786  0.128692  0  1.019421  0
H  H22  1  0.24543342  0.32139020  0.98160226  1  0.082087  0  0.109486  0.116345  0  0.995422  0
H  H23  1  0.41195722  0.67045751  0.54460423  1  0.108593  0  0.1201  0.094508  0  0.991185  0
H  H24  1  0.90749796  0.54399083  0.67448165  1  0.112978  0  0.110929  0.128395  0  1.019589  0
H  H25  1  0.92314460  0.67837721  0.51821838  1  0.086925  0  0.10946  0.116465  0  0.994338  0
H  H26  1  0.74461551  0.67639621  0.51720087  1  0.086471  0  0.117374  0.08935  0  1.0034  0
H  H27  1  0.17956067  0.86400243  0.63291845  1  0.055401  0  0.097123  0.093916  0  1.017267  0
H  H28  1  0.82095877  0.55849348  0.18115446  1  0.105386  0  0.116378  0.091931  0  1.003909  0
H  H29  1  0.17532795  0.55581815  0.20869918  1  0.106026  0  0.118477  0.091512  0  0.993816  0
H  H30  1  0.20871193  0.06375185  0.13908749  1  0.043955  0  0.0998  0.098683  0  1.008421  0
H  H31  1  0.29547723  0.06716344  0.39826955  1  0.050202  0  0.098482  0.095825  0  1.018382  0
H  H32  1  0.52315931  0.49553791  0.83209171  1  0.159525  0  0.109585  0.128003  0  1.044951  0
H  H33  1  0.63639413  0.54365738  0.17441919  1  0.11474  0  0.11084  0.128704  0  1.019406  0
H  H34  1  0.61943700  0.44392009  0.29095542  1  0.122808  0  0.118359  0.091419  0  0.994125  0
H  H35  1  0.97202902  0.49521276  0.33200284  1  0.156375  0  0.109732  0.127814  0  1.044407  0
H  H36  1  0.61383097  0.71873511  0.17695215  1  0.067486  0  0.096179  0.093618  0  1.030977  0
H  H37  1  0.06263279  0.64586403  0.51619819  1  0.050481  0  0.100728  0.095742  0  1.015962  0
H  H38  1  0.70451291  0.93284605  0.60174034  1  0.050431  0  0.09849  0.095848  0  1.018255  0
H  H39  1  0.14491635  0.93634062  0.36121028  1  0.057929  0  0.099648  0.098455  0  1.008133  0
H  H40  1  0.26227301  0.44118616  0.31885869  1  0.12425  0  0.116341  0.092019  0  1.00314  0
H  H41  1  0.07686407  0.32162644  0.48178175  1  0.086977  0  0.109454  0.116539  0  0.994299  0
H  H42  1  0.41733738  0.35390974  0.98364439  1  0.070942  0  0.100378  0.095376  0  1.016474  0
H  H43  1  0.38057314  0.55607793  0.70904372  1  0.122801  0  0.118301  0.091359  0  0.994105  0
H  H44  1  0.14511916  0.75942332  0.05184996  1  0.167085  0  0.100182  0.115394  0  1.081585  0
H  H45  1  0.47683646  0.50446710  0.16790632  1  0.159618  0  0.109617  0.127995  0  1.0451  0
H  H46  1  0.68289443  0.02680110  0.39780886  1  0.058225  0  0.099672  0.097641  0  1.008918  0
H  H47  1  0.82467208  0.44418681  0.79129634  1  0.106433  0  0.118476  0.091521  0  0.993843  0
H  H48  1  0.26419944  0.88100023  0.93997692  1  0.066066  0  0.103581  0.108782  0  1.006744  0
H  H49  1  0.24771204  0.69475843  0.56378784  1  0.083644  0  0.107335  0.11566  0  1.005414  0
H  H50  1  0.79508795  0.43600244  0.28154028  1  0.120154  0  0.111558  0.127755  0  1.005265  0
H  H51  1  0.85488200  0.24058390  0.94815306  1  0.167234  0  0.100184  0.115391  0  1.081678  0
H  H52  1  0.61671622  0.88100396  0.44021887  1  0.070431  0  0.10377  0.108856  0  1.006375  0
H  H53  1  0.79127474  0.93624209  0.86091734  1  0.044215  0  0.099802  0.09868  0  1.008504  0
H  H54  1  0.38327637  0.11900183  0.55978250  1  0.070333  0  0.103767  0.108835  0  1.006465  0
H  H55  1  0.58266997  0.64609414  0.01636640  1  0.070866  0  0.100379  0.095329  0  1.016478  0
H  H56  1  0.09250251  0.45601215  0.32551954  1  0.112964  0  0.110911  0.128433  0  1.01963  0
H  H57  1  0.22814908  0.93266023  0.10185876  1  0.060527  0  0.098579  0.095946  0  1.018195  0
H  H58  1  0.93108363  0.67663550  0.01756791  1  0.13135  0  0.117619  0.089681  0  1.003106  0
H  H59  1  0.10460640  0.71844209  0.67696674  1  0.063626  0  0.096369  0.093473  0  1.031283  0
H  H60  1  0.93737056  0.35413041  0.48379744  1  0.050481  0  0.100712  0.095662  0  1.015962  0
H  H61  1  0.20492362  0.56399844  0.71846155  1  0.120285  0  0.111578  0.127752  0  1.005263  0
H  H62  1  0.55365975  0.30506593  0.93598329  1  0.104242  0  0.107486  0.115354  0  1.004638  0
H  H63  1  0.61398987  0.75962227  0.55173148  1  0.173308  0  0.100134  0.115159  0  1.080712  0
H  H64  1  0.34388319  0.02653993  0.89718788  1  0.092627  0  0.099716  0.097643  0  1.009234  0
H  H65  1  0.73770789  0.55879907  0.68113245  1  0.124369  0  0.116377  0.092016  0  1.003265  0
H  H66  1  0.17904924  0.44150599  0.81884697  1  0.10549  0  0.116415  0.091955  0  1.003899  0
H  H67  1  0.82044543  0.13599893  0.36707293  1  0.055387  0  0.097149  0.093962  0  1.01729  0
H  H68  1  0.89539507  0.28155573  0.32302300  1  0.063777  0  0.096312  0.093443  0  1.031321  0
H  H69  1  0.58804408  0.32952423  0.45538840  1  0.109618  0  0.120139  0.09453  0  0.991072  0
H  H70  1  0.74228010  0.32947000  0.95525691  1  0.079097  0  0.120133  0.094915  0  0.991631  0
H  H71  1  0.85508173  0.06365327  0.63879204  1  0.057941  0  0.09961  0.098432  0  1.00796  0
H  H72  1  0.77185427  0.06734994  0.89815070  1  0.059645  0  0.09858  0.095911  0  1.018243  0
H  H73  1  0.69480122  0.76058429  0.81068020  1  0.075703  0  0.100651  0.105715  0  1.004649  0
H  H74  1  0.02797782  0.50478724  0.66799064  1  0.156513  0  0.109737  0.127836  0  1.044279  0
H  H75  1  0.25771819  0.67053148  0.04473949  1  0.079036  0  0.120153  0.094895  0  0.991722  0
C  C76  1  0.12590626  0.44393983  0.60074223  1  0.052117  0  0.011845  0.15697  0  4.008814  0
C  C77  1  0.25506477  0.49674277  0.37158091  1  0.441377  0  0.041251  0.082277  0  3.978717  0
C  C78  1  0.36784440  0.12133046  0.62679295  1  -0.009857  0  -0.085676  -0.088648  0  3.987412  0
C  C79  1  0.14661776  0.89768933  0.29362516  1  -0.08463  0  -0.093123  -0.135946  0  3.9879  0
C  C80  1  0.13084040  0.70439954  0.83791149  1  1.568578  0  0.187841  0.552408  0  4.250114  0
C  C81  1  0.13543223  0.37535617  0.03361889  1  0.434463  0  0.046126  0.095853  0  3.964112  0
C  C82  1  0.75930957  0.62438264  0.46607627  1  0.521775  0  0.046207  0.095928  0  3.963918  0
C  C83  1  0.78619135  0.49028882  0.33452793  1  -0.071452  0  -0.076549  -0.172298  0  3.914318  0
C  C84  1  0.84447626  0.42131873  0.55464033  1  -0.009506  0  0.009238  0.154473  0  4.016838  0
C  C85  1  0.71481429  0.37504665  0.00195457  1  0.50389  0  0.049213  0.104706  0  3.954508  0
C  C86  1  0.75244104  0.36199638  0.49220875  1  -0.061557  0  -0.083136  -0.182667  0  3.929948  0
C  C87  1  0.34466272  0.50592595  0.87606899  1  -0.044  0  -0.080871  -0.176891  0  3.907515  0
C  C88  1  0.31043767  0.04322675  0.73743745  1  0.006541  0  -0.005972  0.072731  0  3.996348  0
C  C89  1  0.80503220  0.49469822  0.83987706  1  0.466248  0  0.046263  0.091055  0  3.966194  0
C  C90  1  0.33909584  0.62484707  0.49785395  1  0.519046  0  0.049366  0.10577  0  3.954487  0
C  C91  1  0.75837139  0.50292971  0.12841372  1  0.487186  0  0.041109  0.082814  0  3.978369  0
C  C92  1  0.68935151  0.49439080  0.33964878  1  0.469218  0  0.046347  0.092228  0  3.964372  0
C  C93  1  0.24912900  0.10230081  0.20661872  1  -0.033658  0  -0.094247  -0.137526  0  3.988529  0
C  C94  1  0.24756376  0.63800095  0.50779082  1  -0.057799  0  -0.083167  -0.182689  0  3.930081  0
C  C95  1  0.73306577  0.04360946  0.23793364  1  -0.049257  0  -0.005474  0.073506  0  3.995113  0
C  C96  1  0.24652079  0.87853920  0.87290020  1  0.011327  0  -0.085032  -0.088446  0  3.988475  0
C  C97  1  0.31065541  0.50560648  0.66034891  1  0.469285  0  0.046399  0.092233  0  3.964251  0
C  C98  1  0.42278370  0.57888365  0.94555321  1  -0.016513  0  0.009792  0.154253  0  4.016574  0
C  C99  1  0.62973217  0.78716743  0.22444098  1  -0.132416  0  -0.091454  -0.10064  0  4.013422  0
C  C100  1  0.69789684  0.79958097  0.76567915  1  0.01453  0  -0.08775  -0.090293  0  3.995187  0
C  C101  1  0.42595879  0.45245235  0.10703028  1  -0.013107  0  -0.075011  -0.105896  0  3.924872  0
C  C102  1  0.02698669  0.45275689  0.60711168  1  -0.025741  0  -0.075228  -0.106269  0  3.923963  0
C  C103  1  0.66824729  0.86853296  0.20050205  1  0.011917  0  -0.095646  -0.140894  0  3.993589  0
C  C104  1  0.05247649  0.64308456  0.14882217  1  1.541361  0  0.191274  0.553947  0  4.230737  0
C  C105  1  0.10128429  0.79957384  0.26585563  1  0.006093  0  -0.088548  -0.090554  0  3.995073  0
C  C106  1  0.20000753  0.86812065  0.70013476  1  -0.058951  0  -0.096499  -0.141577  0  3.994083  0
C  C107  1  0.75459147  0.94795434  0.73513212  1  0.013689  0  -0.004316  0.073452  0  4.001006  0
C  C108  1  0.85337782  0.10230528  0.70637862  1  -0.084499  0  -0.093132  -0.135902  0  3.987478  0
C  C109  1  0.06024436  0.59370360  0.45461820  1  -0.085665  0  -0.081769  -0.124322  0  3.962518  0
C  C110  1  0.68955430  0.95676637  0.26256154  1  0.006782  0  -0.005963  0.072871  0  3.996333  0
C  C111  1  0.82089620  0.20873810  0.18890548  1  -0.041988  0  -0.022108  -0.028143  0  3.975326  0
C  C112  1  0.26692762  0.95638935  0.76206947  1  -0.049036  0  -0.005505  0.073584  0  3.994949  0
C  C113  1  0.70445377  0.89581950  0.64790105  1  -0.024919  0  -0.092279  -0.128536  0  3.977918  0
C  C114  1  0.28519191  0.62495921  0.99805056  1  0.503476  0  0.049238  0.104851  0  3.954463  0
C  C115  1  0.19324242  0.94788979  0.23534460  1  -0.099981  0  -0.004614  0.072358  0  4.000296  0
C  C116  1  0.65193736  0.79776870  0.61976362  1  -0.094166  0  -0.093524  -0.105533  0  3.986376  0
C  C117  1  0.79999111  0.13188010  0.29986080  1  -0.059349  0  -0.096576  -0.141649  0  3.994056  0
C  C118  1  0.68174331  0.55636348  0.89937092  1  -0.083618  0  0.012047  0.154911  0  4.010582  0
C  C119  1  0.83908863  0.49429427  0.62407919  1  -0.018712  0  -0.080884  -0.176585  0  3.907572  0
C  C120  1  0.85860038  0.62472339  0.46619353  1  -0.087218  0  -0.080822  -0.17832  0  3.937741  0
C  C121  1  0.87410346  0.55606594  0.39925851  1  0.051832  0  0.011746  0.156782  0  4.009065  0
C  C122  1  0.57721955  0.42112491  0.05444645  1  -0.016826  0  0.009825  0.154293  0  4.01657  0
C  C123  1  0.63215965  0.87867395  0.37320989  1  -0.009994  0  -0.085655  -0.088703  0  3.987535  0
C  C124  1  0.35248000  0.25147842  0.32145500  1  -0.03479  0  -0.028023  -0.046315  0  4.002144  0
C  C125  1  0.80675205  0.05211261  0.76466202  1  -0.10004  0  -0.004501  0.072506  0  3.99999  0
C  C126  1  0.86457740  0.62465370  0.96637678  1  0.433724  0  0.046107  0.095824  0  3.9639  0
C  C127  1  0.85459601  0.20237483  0.88010460  1  -0.131709  0  -0.093753  -0.106348  0  3.988262  0
C  C128  1  0.61011015  0.36181584  0.99198800  1  -0.029344  0  -0.083296  -0.181362  0  3.928716  0
C  C129  1  0.65533709  0.49407713  0.12393720  1  -0.043595  0  -0.080912  -0.176989  0  3.907398  0
C  C130  1  0.89871408  0.20042350  0.73414457  1  0.005741  0  -0.088613  -0.090688  0  3.995023  0
C  C131  1  0.24068986  0.37561680  0.53392391  1  0.522186  0  0.04619  0.095966  0  3.964086  0
C  C132  1  0.93976432  0.40629292  0.54537678  1  -0.08561  0  -0.081703  -0.124271  0  3.962195  0
C  C133  1  0.33175322  0.13147011  0.79950352  1  0.011793  0  -0.09564  -0.140848  0  3.993583  0
C  C134  1  0.57327461  0.70432969  0.33775700  1  1.5561  0  0.187754  0.552949  0  4.251441  0
C  C135  1  0.33024169  0.04016963  0.65087804  1  -0.069052  0  -0.092599  -0.133599  0  3.991175  0
C  C136  1  0.42672514  0.29567184  0.66224190  1  1.556253  0  0.187681  0.552814  0  4.251597  0
C  C137  1  0.14541169  0.79762688  0.11990307  1  -0.131551  0  -0.093774  -0.106358  0  3.988311  0
C  C138  1  0.76564839  0.62501586  0.96636366  1  0.02467  0  -0.08073  -0.177339  0  3.937194  0
C  C139  1  0.57404272  0.54755699  0.89297334  1  -0.012853  0  -0.074909  -0.105769  0  3.924759  0
C  C140  1  0.29552534  0.10418791  0.35211013  1  -0.024496  0  -0.092237  -0.128483  0  3.978054  0
C  C141  1  0.94751682  0.35691407  0.85117280  1  1.541083  0  0.191208  0.553715  0  4.231026  0
C  C142  1  0.19497038  0.50530470  0.16012162  1  0.466846  0  0.046396  0.091273  0  3.966163  0
C  C143  1  0.74493250  0.50325237  0.62841430  1  0.44113  0  0.041031  0.08209  0  3.978854  0
C  C144  1  0.70409478  0.49056967  0.83468930  1  0.029978  0  -0.076973  -0.170586  0  3.91465  0
C  C145  1  0.80887166  0.10429339  0.85195113  1  -0.010087  0  -0.09177  -0.127587  0  3.97656  0
C  C146  1  0.30208405  0.20041286  0.23432004  1  0.014705  0  -0.087849  -0.090297  0  3.994913  0
C  C147  1  0.40966033  0.35682740  0.35130114  1  1.491724  0  0.191029  0.553587  0  4.230924  0
C  C148  1  0.21381765  0.50971406  0.66546887  1  -0.071647  0  -0.076612  -0.172321  0  3.914179  0
C  C149  1  0.59033439  0.64317264  0.64869360  1  1.492155  0  0.191013  0.553506  0  4.231  0
C  C150  1  0.34804560  0.20223784  0.38023983  1  -0.0937  0  -0.093513  -0.105689  0  3.986471  0
C  C151  1  0.31826102  0.44364436  0.10062792  1  -0.083451  0  0.012073  0.15498  0  4.010386  0
C  C152  1  0.38989744  0.63818993  0.00801273  1  -0.029461  0  -0.083333  -0.181485  0  3.928819  0
C  C153  1  0.61213840  0.79136833  0.31119715  1  0.007977  0  -0.021897  -0.028648  0  3.976484  0
C  C154  1  0.37027696  0.21283428  0.77556670  1  -0.132687  0  -0.0914  -0.100517  0  4.01335  0
C  C155  1  0.66975349  0.95982990  0.34912590  1  -0.069786  0  -0.092609  -0.13362  0  3.991296  0
C  C156  1  0.46690304  0.40604606  0.04525543  1  -0.099634  0  -0.081797  -0.124309  0  3.960861  0
C  C157  1  0.17911675  0.79125410  0.81108453  1  -0.042178  0  -0.022079  -0.02815  0  3.975504  0
C  C158  1  0.23435668  0.37498631  0.03363293  1  0.024606  0  -0.080871  -0.17746  0  3.937429  0
C  C159  1  0.16090592  0.50569543  0.37592443  1  -0.018264  0  -0.080954  -0.176751  0  3.907654  0
C  C160  1  0.15722715  0.78689411  0.72429721  1  -0.054898  0  -0.091166  -0.100188  0  4.012274  0
C  C161  1  0.53310279  0.59396194  0.95475092  1  -0.099567  0  -0.081841  -0.124325  0  3.960868  0
C  C162  1  0.89944225  0.25155643  0.82131403  1  -0.0171  0  -0.027692  -0.046047  0  4.002543  0
C  C163  1  0.29590956  0.50944106  0.16531348  1  0.029779  0  -0.077122  -0.170749  0  3.914631  0
C  C164  1  0.71001639  0.04042345  0.15135846  1  -0.071148  0  -0.09232  -0.133318  0  3.990715  0
C  C165  1  0.75347469  0.12145237  0.12709212  1  0.011166  0  -0.084979  -0.08843  0  3.988552  0
C  C166  1  0.19113168  0.89571248  0.14805399  1  -0.010851  0  -0.091715  -0.127591  0  3.976442  0
C  C167  1  0.75085375  0.89769244  0.79338654  1  -0.034301  0  -0.094303  -0.137576  0  3.988995  0
C  C168  1  0.28998023  0.95957611  0.84864673  1  -0.07129  0  -0.092286  -0.133434  0  3.990376  0
C  C169  1  0.64750725  0.74852097  0.67854205  1  -0.034496  0  -0.027925  -0.046227  0  4.001898  0
C  C170  1  0.10055572  0.74844441  0.17868529  1  -0.016946  0  -0.027722  -0.046107  0  4.002678  0
C  C171  1  0.14140116  0.37527601  0.53380414  1  -0.087253  0  -0.080906  -0.178568  0  3.937739  0
C  C172  1  0.97302017  0.54724028  0.39288100  1  -0.025072  0  -0.075171  -0.106244  0  3.924001  0
C  C173  1  0.15552290  0.57867447  0.44536305  1  -0.010127  0  0.009271  0.15448  0  4.017147  0
C  C174  1  0.84278004  0.21310516  0.27569482  1  -0.054599  0  -0.091051  -0.100111  0  4.012146  0
C  C175  1  0.86917543  0.29559412  0.16208080  1  1.568688  0  0.187777  0.552542  0  4.249582  0
C  C176  1  0.24163237  0.49707269  0.87159353  1  0.48703  0  0.041032  0.082658  0  3.978662  0
C  C177  1  0.66090404  0.37514043  0.50214531  1  0.518547  0  0.049381  0.105797  0  3.954189  0
C  C178  1  0.24539735  0.05204391  0.26487705  1  0.013079  0  -0.004257  0.073595  0  4.001166  0
C  C179  1  0.38786388  0.20863254  0.68880406  1  0.007928  0  -0.021904  -0.028697  0  3.976334  0
N  N180  1  0.34340224  0.55552797  0.43076659  1  -1.23141  0  -0.330904  -0.239496  0  3.50207  0
N  N181  1  0.88433979  0.56054770  0.90452811  1  -1.229258  0  -0.329653  -0.232985  0  3.510753  0
N  N182  1  0.32436020  0.43975207  0.59576534  1  -1.226967  0  -0.329904  -0.233428  0  3.510448  0
N  N183  1  0.21184143  0.55575726  0.93085246  1  -1.244898  0  -0.331018  -0.23996  0  3.501237  0
N  N184  1  0.78815983  0.44424587  0.06915562  1  -1.245523  0  -0.331023  -0.239932  0  3.501124  0
N  N185  1  0.11566667  0.43946012  0.09547009  1  -1.229624  0  -0.329661  -0.233109  0  3.510866  0
N  N186  1  0.65659295  0.44446013  0.56922785  1  -1.230772  0  -0.330864  -0.239531  0  3.501812  0
N  N187  1  0.67564316  0.56024668  0.40423526  1  -1.227  0  -0.32997  -0.233514  0  3.51034  0
O  O188  1  0.55068911  0.62490260  0.27985821  1  -1.19574  0  -0.33561  -0.582451  0  2.204441  0
O  O189  1  0.05049134  0.59826591  0.06796295  1  -1.198035  0  -0.339961  -0.590077  0  2.346106  0
O  O190  1  0.54764246  0.59835459  0.56785901  1  -1.199137  0  -0.339683  -0.589652  0  2.346526  0
O  O191  1  0.43549277  0.28592121  0.58095844  1  -1.171312  0  -0.334704  -0.560356  0  2.25385  0
O  O192  1  0.41512608  0.40022167  0.29638334  1  -1.171014  0  -0.330836  -0.553808  0  2.169776  0
O  O193  1  0.14924295  0.71431606  0.91923558  1  -1.172547  0  -0.334548  -0.560267  0  2.254629  0
O  O194  1  0.07394957  0.62490139  0.78015914  1  -1.195623  0  -0.336044  -0.582266  0  2.202432  0
O  O195  1  0.92603940  0.37510145  0.21983516  1  -1.195801  0  -0.335978  -0.582326  0  2.202378  0
O  O196  1  0.85079044  0.28566556  0.08075202  1  -1.172554  0  -0.334547  -0.560322  0  2.254272  0
O  O197  1  0.44931490  0.37510173  0.72014086  1  -1.195777  0  -0.335584  -0.582408  0  2.204492  0
O  O198  1  0.56450167  0.71407684  0.41904196  1  -1.171247  0  -0.334747  -0.560422  0  2.253671  0
O  O199  1  0.58487083  0.59977132  0.70361001  1  -1.171213  0  -0.330889  -0.553851  0  2.169603  0
O  O200  1  0.01439395  0.59966259  0.20366117  1  -1.16969  0  -0.330927  -0.553869  0  2.17061  0
O  O201  1  0.45234406  0.40165048  0.43214153  1  -1.19896  0  -0.339733  -0.58974  0  2.346312  0
O  O202  1  0.98559866  0.40033180  0.79633196  1  -1.169532  0  -0.330852  -0.553752  0  2.170622  0
O  O203  1  0.94951058  0.40173281  0.93203577  1  -1.197824  0  -0.339988  -0.590018  0  2.346293  0
