# generated using pymatgen
data_AlH5C15N2O5
_symmetry_space_group_name_H-M   'P 1'
_cell_length_a   6.71341597
_cell_length_b   19.67588518
_cell_length_c   20.76282633
_cell_angle_alpha   101.78652814
_cell_angle_beta   93.07157279
_cell_angle_gamma   92.84609885
_symmetry_Int_Tables_number   1
_chemical_formula_structural   AlH5C15N2O5
_chemical_formula_sum   'Al4 H20 C60 N8 O20'
_cell_volume   2675.77130801
_cell_formula_units_Z   4
loop_
 _symmetry_equiv_pos_site_id
 _symmetry_equiv_pos_as_xyz
  1  'x, y, z'
loop_
 _atom_site_type_symbol
 _atom_site_label
 _atom_site_symmetry_multiplicity
 _atom_site_fract_x
 _atom_site_fract_y
 _atom_site_fract_z
 _atom_site_occupancy
 _atom_site_pbe_bader_charge
 _atom_site_pbe_bader_spin_density
 _atom_site_pbe_cm5_charge
 _atom_site_pbe_ddec_charge
 _atom_site_pbe_ddec_spin_density
 _atom_site_pbe_ddec_sum_bond_order
 _atom_site_pbe_magmom
Al  Al0  1  0.75646068  0.24986498  0.75026163  1  2.500006  0  0.406102  1.643954  0  2.573949  0
Al  Al1  1  0.24354611  0.75012336  0.24972810  1  2.500007  0  0.406112  1.644109  0  2.573657  0
Al  Al2  1  0.25650456  0.25052036  0.75012253  1  2.503328  0  0.405078  1.641423  0  2.575846  0
Al  Al3  1  0.74350216  0.74946809  0.24986524  1  2.503408  0  0.40518  1.64144  0  2.57575  0
H  H4  1  0.22350866  0.56360913  0.11572968  1  0.141011  0  0.117488  0.126199  0  0.994348  0
H  H5  1  0.77649511  0.43637357  0.88426488  1  0.141011  0  0.117469  0.12624  0  0.994546  0
H  H6  1  0.26784558  0.93747988  0.38567420  1  0.11726  0  0.117802  0.12711  0  0.993006  0
H  H7  1  0.73218534  0.06251190  0.61431841  1  0.117175  0  0.117696  0.126972  0  0.992737  0
H  H8  1  0.05772600  0.56497733  0.61390139  1  0.107022  0  0.124914  0.125986  0  0.9543  0
H  H9  1  0.94214284  0.43506223  0.38613268  1  0.110649  0  0.124786  0.125891  0  0.953907  0
H  H10  1  0.51560463  0.93565776  0.88642335  1  0.116419  0  0.124848  0.126281  0  0.953542  0
H  H11  1  0.48447015  0.06433991  0.11357787  1  0.116483  0  0.124758  0.12622  0  0.953751  0
H  H12  1  0.66330774  0.63475391  0.05483470  1  0.128518  0  0.123734  0.134296  0  0.972554  0
H  H13  1  0.33671279  0.36524177  0.94515531  1  0.128175  0  0.123743  0.134182  0  0.972665  0
H  H14  1  0.82688738  0.86283928  0.44297752  1  0.13921  0  0.123567  0.134552  0  0.971198  0
H  H15  1  0.17312842  0.13715104  0.55701139  1  0.139213  0  0.123619  0.13459  0  0.971047  0
H  H16  1  0.67345875  0.43557053  0.48588163  1  0.15746  0  0.108825  0.119894  0  1.049419  0
H  H17  1  0.32643300  0.56447571  0.51415875  1  0.158626  0  0.108875  0.120023  0  1.049081  0
H  H18  1  0.19611123  0.06419753  0.01022481  1  0.165337  0  0.109105  0.11933  0  1.044184  0
H  H19  1  0.80395772  0.93580279  0.98977732  1  0.165155  0  0.10917  0.11941  0  1.044168  0
H  H20  1  0.51844522  0.33831694  0.74447384  1  0.617762  0  0.357532  0.437748  0  0.842  0
H  H21  1  0.48156021  0.66166945  0.25552126  1  0.617507  0  0.35746  0.437547  0  0.842085  0
H  H22  1  0.99759131  0.16236372  0.75679292  1  0.630109  0  0.356908  0.436504  0  0.843667  0
H  H23  1  0.00241697  0.83762627  0.24319488  1  0.63062  0  0.356858  0.436471  0  0.843426  0
C  C24  1  0.51420410  0.17552129  0.82849732  1  1.657628  0  0.279952  0.721153  0  4.15182  0
C  C25  1  0.48578616  0.82446262  0.17149407  1  1.657825  0  0.280073  0.721272  0  4.151342  0
C  C26  1  0.99702618  0.32482573  0.67190844  1  1.649309  0  0.280466  0.719708  0  4.152511  0
C  C27  1  0.00297118  0.67517652  0.32809255  1  1.650056  0  0.280527  0.719601  0  4.152592  0
C  C28  1  0.47081106  0.15953302  0.65276169  1  1.595924  0  0.274486  0.644728  0  4.090976  0
C  C29  1  0.52920641  0.84046018  0.34722874  1  1.596541  0  0.274462  0.644612  0  4.090813  0
C  C30  1  0.04167349  0.34099566  0.84765569  1  1.595775  0  0.273786  0.644714  0  4.091987  0
C  C31  1  0.95833961  0.65899757  0.15233762  1  1.595245  0  0.273873  0.64477  0  4.092  0
C  C32  1  0.94591404  0.60382311  0.09078263  1  0.01617  0  -0.000749  -0.018133  0  3.960005  0
C  C33  1  0.05409755  0.39617040  0.90920967  1  0.015752  0  -0.000564  -0.01794  0  3.96031  0
C  C34  1  0.54462884  0.89555498  0.40879726  1  0.024118  0  -0.000738  -0.018456  0  3.960733  0
C  C35  1  0.45538843  0.10443444  0.59119215  1  0.024264  0  -0.000874  -0.018958  0  3.961467  0
C  C36  1  0.23300823  0.45333044  0.01187424  1  0.105728  0  0.013418  0.017909  0  4.057085  0
C  C37  1  0.76698972  0.54665747  0.98811878  1  0.111132  0  0.01334  0.018012  0  4.05711  0
C  C38  1  0.26885342  0.04807242  0.48965737  1  0.088798  0  0.014632  0.020068  0  4.062502  0
C  C39  1  0.73114587  0.95191652  0.51033077  1  0.089108  0  0.014804  0.020478  0  4.061988  0
C  C40  1  0.22008269  0.40177263  0.95505116  1  0.02379  0  -0.052691  -0.096731  0  3.894112  0
C  C41  1  0.77993007  0.59821662  0.04493769  1  0.018824  0  -0.0526  -0.096825  0  3.894294  0
C  C42  1  0.28723106  0.09976616  0.54634003  1  -0.006255  0  -0.052068  -0.096165  0  3.893251  0
C  C43  1  0.71278620  0.90022235  0.45364987  1  -0.006311  0  -0.052172  -0.096503  0  3.892945  0
C  C44  1  0.90426140  0.44229956  0.92008113  1  -0.034341  0  -0.057213  -0.107211  0  3.88513  0
C  C45  1  0.09574079  0.55768525  0.07990899  1  -0.034858  0  -0.057183  -0.107082  0  3.88487  0
C  C46  1  0.60246032  0.05738544  0.57932839  1  0.004965  0  -0.056865  -0.107913  0  3.882007  0
C  C47  1  0.39754639  0.94260249  0.42065937  1  0.004425  0  -0.056964  -0.108154  0  3.881957  0
C  C48  1  0.91691287  0.49686666  0.97627882  1  0.014368  0  0.016389  0.056352  0  3.95618  0
C  C49  1  0.08308054  0.50311923  0.02371460  1  -0.036794  0  0.016271  0.056329  0  3.956587  0
C  C50  1  0.58436515  0.00272354  0.52316170  1  0.019341  0  0.015927  0.056144  0  3.955245  0
C  C51  1  0.41564931  0.99726534  0.47683258  1  -0.031411  0  0.015868  0.056005  0  3.955062  0
C  C52  1  0.03344241  0.53621843  0.56299612  1  -0.009943  0  -0.046087  -0.078685  0  3.579272  0
C  C53  1  0.96644453  0.46382050  0.43704364  1  -0.012843  0  -0.045961  -0.078453  0  3.579156  0
C  C54  1  0.50971824  0.96415061  0.93719913  1  -0.020225  0  -0.045306  -0.078233  0  3.576333  0
C  C55  1  0.49036700  0.03584682  0.06280275  1  -0.020699  0  -0.04509  -0.078126  0  3.576557  0
C  C56  1  0.85474209  0.54621438  0.51448082  1  0.117478  0  0.027068  0.045531  0  3.747623  0
C  C57  1  0.14514480  0.45383014  0.48555161  1  0.115886  0  0.0268  0.044222  0  3.749561  0
C  C58  1  0.33711302  0.95374005  0.98312961  1  0.134147  0  0.025498  0.041926  0  3.750741  0
C  C59  1  0.66295448  0.04625751  0.01687640  1  0.134328  0  0.025657  0.042239  0  3.751002  0
C  C60  1  0.00319832  0.63012793  0.37479899  1  0.176004  0  -0.027652  -0.176652  0  3.949195  0
C  C61  1  0.99678389  0.36989059  0.62521759  1  0.175481  0  -0.027817  -0.177051  0  3.949273  0
C  C62  1  0.49051538  0.86933530  0.12467396  1  0.00865  0  -0.027711  -0.177699  0  3.949304  0
C  C63  1  0.50949620  0.13065862  0.87531785  1  0.007876  0  -0.027506  -0.177636  0  3.949367  0
C  C64  1  0.18206403  0.53525876  0.50791527  1  -0.02078  0  -0.053317  -0.087468  0  3.565548  0
C  C65  1  0.81782274  0.46478271  0.49211714  1  -0.022093  0  -0.053254  -0.087155  0  3.5647  0
C  C66  1  0.66966807  0.96489145  0.99439617  1  -0.033787  0  -0.052636  -0.084154  0  3.565934  0
C  C67  1  0.33039904  0.03510650  0.00559952  1  -0.03321  0  -0.052477  -0.084121  0  3.565735  0
C  C68  1  0.00729010  0.54528158  0.45756720  1  0.102094  0  0.026517  0.115837  0  3.780693  0
C  C69  1  0.99261490  0.45476191  0.54247141  1  0.103041  0  0.026871  0.116596  0  3.779999  0
C  C70  1  0.50137249  0.95438717  0.04219311  1  0.110265  0  0.026744  0.116073  0  3.780683  0
C  C71  1  0.49867696  0.04561295  0.95780673  1  0.110288  0  0.026595  0.115962  0  3.780552  0
C  C72  1  0.00818248  0.59109787  0.41331652  1  -0.366963  0  -0.020944  -0.034625  0  4.068975  0
C  C73  1  0.99176039  0.40893236  0.58671228  1  -0.365839  0  -0.020805  -0.034425  0  4.068754  0
C  C74  1  0.49825661  0.90841688  0.08626267  1  -0.210719  0  -0.020698  -0.03396  0  4.069627  0
C  C75  1  0.50179116  0.09158198  0.91373370  1  -0.209937  0  -0.020764  -0.033869  0  4.069127  0
C  C76  1  0.39931212  0.45796899  0.05863222  1  0.838833  0  0.180343  0.237413  0  4.034813  0
C  C77  1  0.60068903  0.54202283  0.94136236  1  0.838604  0  0.180135  0.237078  0  4.034841  0
C  C78  1  0.09977295  0.04430039  0.44418992  1  0.842535  0  0.17945  0.236139  0  4.038089  0
C  C79  1  0.90023677  0.95568729  0.55579887  1  0.844774  0  0.179291  0.235704  0  4.038098  0
C  C80  1  0.70900513  0.59604748  0.52911299  1  0.800593  0  0.182322  0.226038  0  4.0084  0
C  C81  1  0.29089689  0.40399851  0.47092314  1  0.799851  0  0.182721  0.227019  0  4.008927  0
C  C82  1  0.17151944  0.90426619  0.96635484  1  0.809854  0  0.182134  0.226659  0  4.008403  0
C  C83  1  0.82854772  0.09573237  0.03364135  1  0.809695  0  0.18198  0.226007  0  4.008038  0
N  N84  1  0.53608709  0.46262898  0.09690792  1  -1.14552  0  -0.315479  -0.367215  0  2.695398  0
N  N85  1  0.46391570  0.53736765  0.90308524  1  -1.145503  0  -0.315344  -0.367016  0  2.695325  0
N  N86  1  0.96036855  0.04039364  0.40708665  1  -1.145655  0  -0.315265  -0.36691  0  2.697874  0
N  N87  1  0.03964254  0.95958938  0.59290409  1  -1.148235  0  -0.315106  -0.366635  0  2.698128  0
N  N88  1  0.59014725  0.63756228  0.54076213  1  -1.099669  0  -0.303554  -0.353604  0  2.736821  0
N  N89  1  0.40975038  0.36248486  0.45927492  1  -1.097866  0  -0.303746  -0.354009  0  2.737089  0
N  N90  1  0.03572325  0.86322919  0.95341298  1  -1.124914  0  -0.303886  -0.354359  0  2.733978  0
N  N91  1  0.96434851  0.13676996  0.04658574  1  -1.125444  0  -0.303851  -0.353953  0  2.733562  0
O  O92  1  0.30913031  0.18682343  0.67037577  1  -1.247188  0  -0.230747  -0.583403  0  2.335357  0
O  O93  1  0.69087034  0.81316491  0.32960944  1  -1.247555  0  -0.230848  -0.583427  0  2.335544  0
O  O94  1  0.87008463  0.32625939  0.81731434  1  -1.26017  0  -0.234757  -0.596521  0  2.349504  0
O  O95  1  0.12992225  0.67372763  0.18267882  1  -1.260197  0  -0.234792  -0.59656  0  2.349553  0
O  O96  1  0.68538574  0.19936850  0.81698209  1  -1.227362  0  -0.225185  -0.577608  0  2.27015  0
O  O97  1  0.31461488  0.80061802  0.18300409  1  -1.227585  0  -0.225302  -0.577636  0  2.270266  0
O  O98  1  0.16654405  0.31448204  0.69759729  1  -1.232724  0  -0.225113  -0.583401  0  2.280672  0
O  O99  1  0.83345563  0.68551108  0.30239629  1  -1.232893  0  -0.225165  -0.583401  0  2.280774  0
O  O100  1  0.64266936  0.17358098  0.68308717  1  -1.261554  0  -0.235077  -0.595519  0  2.34046  0
O  O101  1  0.35733896  0.82641003  0.31690064  1  -1.261548  0  -0.235081  -0.595596  0  2.340211  0
O  O102  1  0.20430037  0.31437477  0.83010576  1  -1.25196  0  -0.230737  -0.583013  0  2.327455  0
O  O103  1  0.79572144  0.68561707  0.16988277  1  -1.251513  0  -0.230658  -0.582852  0  2.327625  0
O  O104  1  0.82691447  0.30031615  0.68365603  1  -1.22852  0  -0.224434  -0.575484  0  2.274868  0
O  O105  1  0.17309750  0.69968073  0.31634269  1  -1.228561  0  -0.224407  -0.575459  0  2.274816  0
O  O106  1  0.34572937  0.18631072  0.80241044  1  -1.231688  0  -0.224423  -0.583305  0  2.285495  0
O  O107  1  0.65428017  0.81367410  0.19757686  1  -1.231747  0  -0.224342  -0.583302  0  2.28536  0
O  O108  1  0.51369301  0.29253036  0.75504407  1  -1.418724  0  -0.446125  -0.99231  0  2.180462  0
O  O109  1  0.48631061  0.70745752  0.24494118  1  -1.418356  0  -0.446078  -0.992144  0  2.180599  0
O  O110  1  0.99991463  0.20783826  0.74553250  1  -1.430346  0  -0.44594  -0.990796  0  2.180323  0
O  O111  1  0.00008902  0.79214810  0.25445520  1  -1.430837  0  -0.445882  -0.99085  0  2.180163  0
