# generated using pymatgen
data_CoH6C5O4
_symmetry_space_group_name_H-M   'P 1'
_cell_length_a   4.81574917
_cell_length_b   9.36058826
_cell_length_c   13.64994449
_cell_angle_alpha   89.51255952
_cell_angle_beta   90.00025080
_cell_angle_gamma   89.99957137
_symmetry_Int_Tables_number   1
_chemical_formula_structural   CoH6C5O4
_chemical_formula_sum   'Co4 H24 C20 O16'
_cell_volume   615.29327658
_cell_formula_units_Z   4
loop_
 _symmetry_equiv_pos_site_id
 _symmetry_equiv_pos_as_xyz
  1  'x, y, z'
loop_
 _atom_site_type_symbol
 _atom_site_label
 _atom_site_symmetry_multiplicity
 _atom_site_fract_x
 _atom_site_fract_y
 _atom_site_fract_z
 _atom_site_occupancy
 _atom_site_hle17_ddec_charge
 _atom_site_hle17_ddec_spin_density
 _atom_site_hle17_ddec_sum_bond_order
 _atom_site_hle17_magmom
 _atom_site_hse06_10hf_ddec_charge
 _atom_site_hse06_10hf_ddec_spin_density
 _atom_site_hse06_10hf_ddec_sum_bond_order
 _atom_site_hse06_10hf_magmom
 _atom_site_hse06_ddec_charge
 _atom_site_hse06_ddec_spin_density
 _atom_site_hse06_ddec_sum_bond_order
 _atom_site_hse06_magmom
 _atom_site_pbe_cm5_charge
 _atom_site_pbe_ddec_charge
 _atom_site_pbe_ddec_spin_density
 _atom_site_pbe_ddec_sum_bond_order
 _atom_site_pbe_magmom
Co  Co0  1  0.02096505  0.99906082  0.24710141  1  1.098522  2.81795  1.851527  2.548  1.069091  2.831597  2.283381  2.616  1.153535  2.874676  2.205684  2.7  0.666942  0.992846  2.789189  2.353652  2.535
Co  Co1  1  0.97903769  0.49906475  0.24710193  1  1.098646  2.817951  1.851595  2.548  1.069095  2.831595  2.283468  2.616  1.153541  2.874678  2.20577  2.7  0.666934  0.99284  2.78919  2.353774  2.535
Co  Co2  1  0.97904239  0.00093919  0.75289993  1  1.098599  2.817933  1.851568  2.548  1.069125  2.831595  2.28338  2.616  1.153567  2.874673  2.205684  2.7  0.666946  0.992868  2.789184  2.353669  2.535
Co  Co3  1  0.02096768  0.50093739  0.75289941  1  1.098507  2.81795  1.851464  2.548  1.069125  2.831613  2.283242  2.616  1.153568  2.874688  2.205541  2.7  0.666896  0.992883  2.789198  2.353516  2.535
H  H4  1  0.25384770  0.75993919  0.11467043  1  0.118403  -0.000217  0.930311  0.0  0.130836  0.000111  0.994668  0.0  0.133265  -2.2e-05  0.993412  0.0  0.107674  0.129254  0.000244  0.995275  0.001
H  H5  1  0.74616103  0.25993444  0.11466765  1  0.118386  -0.000217  0.930297  0.0  0.13083  0.000111  0.994644  0.0  0.133255  -2.2e-05  0.993392  0.0  0.107669  0.129255  0.000245  0.995242  0.001
H  H6  1  0.74615144  0.24005975  0.88533092  1  0.118401  -0.000216  0.930294  0.0  0.130844  0.000111  0.99463  0.0  0.13327  -2.2e-05  0.993378  0.0  0.107667  0.129266  0.000245  0.995239  0.001
H  H7  1  0.25384434  0.74006236  0.88533369  1  0.118423  -0.000215  0.930365  0.0  0.130868  0.000111  0.994687  0.0  0.133297  -2.2e-05  0.993429  0.0  0.107676  0.129289  0.000245  0.995289  0.001
H  H8  1  0.23762644  0.90202382  0.03158401  1  0.119003  -0.000713  0.93176  0.0  0.133839  -0.000198  0.992622  0.0  0.136397  -0.000256  0.992019  0.0  0.106349  0.131729  -0.000179  0.993541  0.0
H  H9  1  0.76237917  0.40201904  0.03157907  1  0.119045  -0.000712  0.931743  0.0  0.133857  -0.000198  0.992621  0.0  0.136421  -0.000256  0.992017  0.0  0.106362  0.131748  -0.000178  0.993543  0.0
H  H10  1  0.76238100  0.09797936  0.96841953  1  0.119062  -0.000713  0.931763  0.0  0.133894  -0.000198  0.992611  0.0  0.136457  -0.000256  0.992007  0.0  0.106357  0.131784  -0.000179  0.99353  0.0
H  H11  1  0.23762619  0.59798207  0.96841935  1  0.119059  -0.000712  0.931828  0.0  0.133875  -0.000198  0.992685  0.0  0.136437  -0.000256  0.99208  0.0  0.106355  0.131766  -0.000179  0.993609  0.0
H  H12  1  0.70509486  0.82293306  0.95938398  1  0.068773  0.0  0.929575  0.0  0.087129  4.5e-05  0.989473  0.0  0.087593  -3.1e-05  0.990003  0.0  0.092379  0.086779  0.000136  0.98933  0.0
H  H13  1  0.29489856  0.32293641  0.95938490  1  0.06871  1e-06  0.929581  0.0  0.087099  4.5e-05  0.989502  0.0  0.087559  -3.1e-05  0.99003  0.0  0.092401  0.086753  0.000136  0.989359  0.0
H  H14  1  0.29490220  0.17706588  0.04061736  1  0.06873  3e-06  0.929545  0.0  0.087132  4.5e-05  0.989437  0.0  0.087595  -3.1e-05  0.989964  0.0  0.092385  0.086781  0.000136  0.989296  0.0
H  H15  1  0.70510057  0.67706362  0.04061425  1  0.068732  3e-06  0.929654  0.0  0.087094  4.5e-05  0.989559  0.0  0.087551  -3.1e-05  0.990089  0.0  0.09239  0.086747  0.000136  0.989413  0.0
H  H16  1  0.43435356  0.10226722  0.37921805  1  0.122683  0.000243  0.93314  0.0  0.134197  0.000661  0.999062  0.001  0.13659  0.000435  0.997898  0.001  0.109321  0.132613  0.000868  0.999631  0.001
H  H17  1  0.56564414  0.60227402  0.37921691  1  0.122628  0.000243  0.933155  0.0  0.134164  0.000661  0.999052  0.001  0.136566  0.000436  0.997892  0.001  0.109301  0.13258  0.000869  0.999625  0.001
H  H18  1  0.56564973  0.89773281  0.62078110  1  0.122657  0.000244  0.933147  0.0  0.134189  0.000661  0.999069  0.001  0.13658  0.000435  0.997912  0.001  0.109332  0.132603  0.000868  0.999639  0.001
H  H19  1  0.43434254  0.39772707  0.62078297  1  0.122648  0.000243  0.933051  0.0  0.134202  0.000661  0.998956  0.001  0.136603  0.000435  0.997799  0.001  0.109326  0.132619  0.000869  0.99953  0.001
H  H20  1  0.14970059  0.09461282  0.45932095  1  0.118714  -0.000325  0.9418  0.0  0.13176  2.2e-05  1.005297  0.0  0.134623  -7.1e-05  1.004001  0.0  0.105729  0.129524  0.000249  1.006331  0.0
H  H21  1  0.85029823  0.59461851  0.45932099  1  0.118721  -0.000324  0.941715  0.0  0.131763  2.2e-05  1.005224  0.0  0.134636  -7e-05  1.003935  0.0  0.10572  0.129526  0.000249  1.006266  0.0
H  H22  1  0.85029855  0.90538721  0.54067820  1  0.118702  -0.000326  0.941745  0.0  0.131759  2.2e-05  1.005263  0.0  0.134623  -7.1e-05  1.003971  0.0  0.105729  0.129521  0.000249  1.006301  0.0
H  H23  1  0.14969261  0.40538259  0.54067816  1  0.118686  -0.000328  0.94179  0.0  0.131774  2.2e-05  1.005279  0.0  0.134648  -7.1e-05  1.003991  0.0  0.105728  0.129539  0.000249  1.006321  0.0
H  H24  1  0.60081412  0.17265034  0.53746703  1  0.071309  -0.000115  0.927635  0.0  0.090859  -0.000134  0.984133  0.0  0.090994  -0.000166  0.985469  0.0  0.094514  0.090773  -6.7e-05  0.983289  0.0
H  H25  1  0.39918246  0.67265881  0.53746930  1  0.071306  -0.000116  0.927694  0.0  0.090912  -0.000134  0.984114  0.0  0.091046  -0.000166  0.985448  0.0  0.09454  0.090828  -6.7e-05  0.983276  0.0
H  H26  1  0.39917256  0.82735182  0.46253285  1  0.071274  -0.000116  0.927695  0.0  0.090822  -0.000134  0.984194  0.0  0.090954  -0.000166  0.985527  0.0  0.094526  0.090735  -6.7e-05  0.983355  0.0
H  H27  1  0.60082083  0.32734121  0.46253058  1  0.071288  -0.000116  0.927692  0.0  0.090894  -0.000134  0.984114  0.0  0.09103  -0.000166  0.98545  0.0  0.094533  0.090811  -6.7e-05  0.983274  0.0
C  C28  1  0.53998077  0.92431674  0.14329445  1  0.730931  -0.012773  3.764505  -0.011  0.692928  0.003571  4.063245  0.003  0.733068  0.002751  4.055542  0.003  0.229507  0.662652  0.003404  4.067042  0.002
C  C29  1  0.46002592  0.42431734  0.14329343  1  0.730887  -0.012771  3.764387  -0.011  0.69269  0.003572  4.063382  0.003  0.73283  0.002752  4.055686  0.003  0.229437  0.662415  0.003405  4.067174  0.002
C  C30  1  0.46002668  0.07568221  0.85670616  1  0.730942  -0.012772  3.76436  -0.011  0.692764  0.003572  4.063337  0.003  0.732909  0.002752  4.055629  0.003  0.229504  0.662487  0.003405  4.067132  0.002
C  C31  1  0.53997945  0.57568374  0.85670718  1  0.731087  -0.01277  3.764447  -0.011  0.69298  0.00357  4.063319  0.003  0.733125  0.00275  4.05561  0.003  0.229499  0.662707  0.003402  4.067124  0.002
C  C32  1  0.38567685  0.83289632  0.07124387  1  -0.288888  0.0034  3.673526  0.006  -0.325681  0.002033  3.918623  0.003  -0.334033  0.001076  3.927728  0.002  -0.164184  -0.31938  0.003145  3.912574  0.005
C  C33  1  0.61432819  0.33289950  0.07124602  1  -0.288864  0.003397  3.673445  0.006  -0.325634  0.002032  3.918656  0.003  -0.33399  0.001076  3.927771  0.002  -0.16416  -0.319327  0.003145  3.912597  0.005
C  C34  1  0.61432852  0.16710048  0.92875674  1  -0.288953  0.003395  3.673543  0.006  -0.3257  0.002032  3.918702  0.003  -0.334059  0.001075  3.927817  0.002  -0.164164  -0.319392  0.003145  3.912636  0.005
C  C35  1  0.38567095  0.66710259  0.92875899  1  -0.289026  0.003396  3.673851  0.006  -0.325721  0.002032  3.918838  0.003  -0.33408  0.001076  3.927946  0.002  -0.164152  -0.319418  0.003145  3.912783  0.005
C  C36  1  0.56726039  0.74999627  0.99999943  1  -0.042462  0.000268  3.689779  0.0  -0.083757  0.000651  3.945383  0.001  -0.081768  0.00034  3.958977  0.0  -0.166664  -0.085291  0.001044  3.936427  0.001
C  C37  1  0.43274083  0.24999910  0.99999983  1  -0.042354  0.00027  3.689374  0.0  -0.083756  0.000651  3.945147  0.001  -0.081755  0.000341  3.958713  0.0  -0.166673  -0.08529  0.001045  3.936197  0.001
C  C38  1  0.13100796  0.25965789  0.35255533  1  0.719494  -0.014173  3.773544  -0.012  0.683399  0.002408  4.069279  0.001  0.722495  0.001914  4.063044  0.001  0.226518  0.654342  0.002223  4.071602  0.0
C  C39  1  0.86899750  0.75966884  0.35255613  1  0.719754  -0.014176  3.772835  -0.012  0.683459  0.002409  4.068859  0.001  0.722563  0.001914  4.062628  0.001  0.226525  0.654401  0.002224  4.071176  0.0
C  C40  1  0.86898910  0.74034322  0.64744309  1  0.719723  -0.014182  3.773171  -0.012  0.683587  0.002407  4.068985  0.001  0.722686  0.001913  4.062751  0.001  0.226548  0.654529  0.002221  4.071308  0.0
C  C41  1  0.13099126  0.24033338  0.64743935  1  0.719888  -0.014173  3.773173  -0.012  0.683712  0.002408  4.069043  0.001  0.722818  0.001914  4.062811  0.001  0.226659  0.654656  0.002224  4.071367  0.0
C  C42  1  0.29552968  0.16927188  0.42371096  1  -0.295333  0.004324  3.673182  0.006  -0.33295  0.003524  3.918891  0.004  -0.340797  0.002352  3.926668  0.003  -0.164943  -0.32699  0.00457  3.913494  0.005
C  C43  1  0.70446968  0.66927921  0.42371077  1  -0.295375  0.004322  3.672972  0.006  -0.332976  0.003524  3.918761  0.004  -0.340874  0.002351  3.926596  0.003  -0.16492  -0.327011  0.00457  3.913368  0.005
C  C44  1  0.70446946  0.83072923  0.57628672  1  -0.295234  0.004322  3.673031  0.006  -0.332913  0.003524  3.918847  0.004  -0.340772  0.002351  3.92664  0.003  -0.164945  -0.326956  0.004569  3.913453  0.005
C  C45  1  0.29552323  0.33072406  0.57628618  1  -0.295282  0.004326  3.672795  0.006  -0.333036  0.003525  3.918714  0.004  -0.340937  0.002352  3.92656  0.003  -0.164992  -0.327079  0.00457  3.91333  0.005
C  C46  1  0.46480541  0.24999870  0.49999980  1  -0.029685  0.00016  3.663953  0.0  -0.067572  0.00076  3.913164  0.001  -0.065414  0.000457  3.925876  0.001  -0.160977  -0.069248  0.00105  3.904705  0.001
C  C47  1  0.53518958  0.75000452  0.50000081  1  -0.029711  0.000168  3.664102  0.0  -0.067592  0.00076  3.913306  0.001  -0.065422  0.000458  3.926007  0.001  -0.161029  -0.069283  0.00105  3.904862  0.001
O  O48  1  0.99749204  0.20070058  0.28235847  1  -0.651815  0.047237  2.082736  0.08  -0.624321  0.038638  2.374194  0.057  -0.663685  0.029767  2.355954  0.044  -0.316187  -0.590736  0.048334  2.385696  0.072
O  O49  1  0.00249264  0.70070740  0.28235792  1  -0.652006  0.047236  2.082567  0.08  -0.624404  0.038637  2.374082  0.057  -0.663769  0.029766  2.355835  0.044  -0.316232  -0.5908  0.048335  2.385533  0.072
O  O50  1  0.00250295  0.79929624  0.71764141  1  -0.651982  0.047239  2.082635  0.08  -0.624495  0.038638  2.374171  0.057  -0.663839  0.029767  2.355874  0.044  -0.316246  -0.590892  0.048337  2.385621  0.072
O  O51  1  0.99749196  0.29928947  0.71763830  1  -0.652076  0.047234  2.082618  0.08  -0.624551  0.038634  2.374099  0.057  -0.663907  0.029764  2.355833  0.044  -0.316284  -0.590958  0.048333  2.385578  0.072
O  O52  1  0.12651552  0.39545043  0.36167594  1  -0.6159  0.053564  2.065161  0.092  -0.579225  0.039147  2.340196  0.061  -0.619637  0.028972  2.326842  0.045  -0.304987  -0.54681  0.048794  2.349253  0.075
O  O53  1  0.87349431  0.89545812  0.36168041  1  -0.61591  0.053564  2.064843  0.092  -0.579149  0.039145  2.339934  0.061  -0.619557  0.028973  2.326576  0.045  -0.304963  -0.546737  0.048793  2.348978  0.075
O  O54  1  0.87348569  0.60454744  0.63832468  1  -0.615988  0.053571  2.065035  0.092  -0.579275  0.039149  2.340039  0.061  -0.61969  0.028974  2.326684  0.045  -0.30497  -0.546867  0.048798  2.349096  0.075
O  O55  1  0.12650483  0.10454616  0.63832094  1  -0.616056  0.053564  2.065223  0.092  -0.579287  0.039144  2.340213  0.061  -0.619699  0.028971  2.326859  0.045  -0.305003  -0.546872  0.048791  2.349255  0.075
O  O56  1  0.80270400  0.93875565  0.13383815  1  -0.623685  0.053385  2.078637  0.091  -0.587493  0.039043  2.36258  0.06  -0.628188  0.028618  2.348197  0.043  -0.306393  -0.554054  0.049703  2.371622  0.076
O  O57  1  0.19729197  0.43875405  0.13383818  1  -0.623932  0.053391  2.078778  0.091  -0.587431  0.039047  2.362527  0.06  -0.628137  0.02862  2.348169  0.043  -0.30637  -0.553986  0.049705  2.371563  0.076
O  O58  1  0.19729721  0.06123469  0.86616686  1  -0.623883  0.05339  2.078631  0.091  -0.587467  0.039044  2.362454  0.06  -0.628192  0.028619  2.348122  0.043  -0.306457  -0.554028  0.049705  2.371493  0.076
O  O59  1  0.80270094  0.56123741  0.86616316  1  -0.623785  0.053384  2.078614  0.091  -0.587566  0.039042  2.362587  0.06  -0.628269  0.028617  2.348215  0.043  -0.306417  -0.554127  0.049701  2.371633  0.076
O  O60  1  0.41147116  0.98575621  0.21334041  1  -0.656073  0.048  2.106416  0.081  -0.628712  0.038826  2.403444  0.057  -0.668624  0.029583  2.38505  0.043  -0.318412  -0.595293  0.048336  2.415468  0.072
O  O61  1  0.58855005  0.48576491  0.21333593  1  -0.655998  0.048003  2.106331  0.081  -0.628576  0.038828  2.403401  0.057  -0.66848  0.029584  2.384998  0.043  -0.318376  -0.595154  0.048338  2.415429  0.072
O  O62  1  0.58854044  0.01424058  0.78666167  1  -0.655978  0.048001  2.106392  0.081  -0.628589  0.038825  2.403495  0.057  -0.668481  0.029584  2.38506  0.043  -0.318372  -0.595174  0.048336  2.415524  0.072
O  O63  1  0.41148024  0.51425015  0.78665736  1  -0.656087  0.048001  2.10634  0.081  -0.62872  0.038825  2.403421  0.057  -0.668638  0.029583  2.385034  0.043  -0.318405  -0.595296  0.048336  2.415443  0.072
