# generated using pymatgen
data_SrH6(C3N2)2
_symmetry_space_group_name_H-M   'P 1'
_cell_length_a   7.10242131
_cell_length_b   7.10240931
_cell_length_c   7.43272344
_cell_angle_alpha   94.76327442
_cell_angle_beta   94.76696592
_cell_angle_gamma   92.37669597
_symmetry_Int_Tables_number   1
_chemical_formula_structural   SrH6(C3N2)2
_chemical_formula_sum   'Sr2 H12 C12 N8'
_cell_volume   371.90924437
_cell_formula_units_Z   2
loop_
 _symmetry_equiv_pos_site_id
 _symmetry_equiv_pos_as_xyz
  1  'x, y, z'
loop_
 _atom_site_type_symbol
 _atom_site_label
 _atom_site_symmetry_multiplicity
 _atom_site_fract_x
 _atom_site_fract_y
 _atom_site_fract_z
 _atom_site_occupancy
 _atom_site_hle17_bader_spin_density
 _atom_site_hle17_ddec_charge
 _atom_site_hle17_ddec_spin_density
 _atom_site_hle17_ddec_sum_bond_order
 _atom_site_hle17_magmom
 _atom_site_hse06_10hf_bader_spin_density
 _atom_site_hse06_10hf_ddec_charge
 _atom_site_hse06_10hf_ddec_spin_density
 _atom_site_hse06_10hf_ddec_sum_bond_order
 _atom_site_hse06_10hf_magmom
 _atom_site_hse06_bader_spin_density
 _atom_site_hse06_ddec_charge
 _atom_site_hse06_ddec_spin_density
 _atom_site_hse06_ddec_sum_bond_order
 _atom_site_hse06_magmom
 _atom_site_pbe_bader_spin_density
 _atom_site_pbe_cm5_charge
 _atom_site_pbe_ddec_charge
 _atom_site_pbe_ddec_spin_density
 _atom_site_pbe_ddec_sum_bond_order
 _atom_site_pbe_magmom
Sr  Sr0  1  0.39248479  0.60751749  0.75000124  1  0  1.484208  0  1.180327  0  0  1.31563  0  1.532921  0  0  1.349875  0  1.504922  0  0  1.009403  1.291469  0  1.551895  0
Sr  Sr1  1  0.60752038  0.39248498  0.25000897  1  0  1.484269  0  1.18016  0  0  1.315638  0  1.532846  0  0  1.349879  0  1.504853  0  0  1.009398  1.291475  0  1.551815  0
H  H2  1  0.35862342  0.88473139  0.24864456  1  0  0.055075  0  0.949123  0  0  0.066317  0  1.016277  0  0  0.068165  0  1.013795  0  0  0.1249  0.064963  0  1.018016  0
H  H3  1  0.11525905  0.64139984  0.25137211  1  0  0.055079  0  0.949129  0  0  0.066401  0  1.01619  0  0  0.06825  0  1.013707  0  0  0.124919  0.065046  0  1.01793  0
H  H4  1  0.64135939  0.11525999  0.75135626  1  0  0.055185  0  0.949138  0  0  0.066407  0  1.016279  0  0  0.068256  0  1.013796  0  0  0.124942  0.065054  0  1.018016  0
H  H5  1  0.88472785  0.35860857  0.74866188  1  0  0.055158  0  0.949256  0  0  0.066339  0  1.016435  0  0  0.068184  0  1.013961  0  0  0.124964  0.064991  0  1.018162  0
H  H6  1  0.89508221  0.03878930  0.09637417  1  0  0.081418  0  0.990696  0  0  0.092591  0  1.053317  0  0  0.09484  0  1.052394  0  0  0.111428  0.090984  0  1.054012  0
H  H7  1  0.96125538  0.10491086  0.40363634  1  0  0.081488  0  0.990397  0  0  0.092634  0  1.053071  0  0  0.094886  0  1.052142  0  0  0.111419  0.091031  0  1.053766  0
H  H8  1  0.10488165  0.96123754  0.90361786  1  0  0.081395  0  0.990517  0  0  0.092475  0  1.053248  0  0  0.09473  0  1.052315  0  0  0.111381  0.090871  0  1.053948  0
H  H9  1  0.03878547  0.89505797  0.59634293  1  0  0.081479  0  0.990339  0  0  0.092591  0  1.053051  0  0  0.09484  0  1.052126  0  0  0.111431  0.090986  0  1.053752  0
H  H10  1  0.81032357  0.66554159  0.97704322  1  0  0.083521  0  1.007227  0  0  0.092615  0  1.071972  0  0  0.094893  0  1.071704  0  0  0.115317  0.090937  0  1.0723  0
H  H11  1  0.33451040  0.18967793  0.52293992  1  0  0.083614  0  1.007208  0  0  0.092619  0  1.072021  0  0  0.094892  0  1.07176  0  0  0.115374  0.090939  0  1.07235  0
H  H12  1  0.18966860  0.33448068  0.02295915  1  0  0.083561  0  1.007174  0  0  0.092639  0  1.071918  0  0  0.094912  0  1.071654  0  0  0.115344  0.090964  0  1.072244  0
H  H13  1  0.66551832  0.81031287  0.47704782  1  0  0.083731  0  1.007108  0  0  0.092728  0  1.071919  0  0  0.095008  0  1.071651  0  0  0.115367  0.09105  0  1.072246  0
C  C14  1  0.49458355  0.87443388  0.19190812  1  0  0.225151  0  3.825278  0  0  0.177621  0  4.101635  0  0  0.190251  0  4.114891  0  0  0.123348  0.169498  0  4.092173  0
C  C15  1  0.12556800  0.50543515  0.30810121  1  0  0.224996  0  3.825286  0  0  0.177416  0  4.101635  0  0  0.190045  0  4.114899  0  0  0.123317  0.16929  0  4.092165  0
C  C16  1  0.50540660  0.12556283  0.80809050  1  0  0.224962  0  3.825136  0  0  0.177462  0  4.101479  0  0  0.19009  0  4.114733  0  0  0.123311  0.169337  0  4.092021  0
C  C17  1  0.87443886  0.49454650  0.69191769  1  0  0.224944  0  3.825072  0  0  0.177505  0  4.101342  0  0  0.190133  0  4.114606  0  0  0.123294  0.169379  0  4.091883  0
C  C18  1  0.77008704  0.95108291  0.11280462  1  0  -0.012391  0  3.823029  0  0  -0.039748  0  4.084253  0  0  -0.038463  0  4.10491  0  0  -0.013525  -0.040562  0  4.070227  0
C  C19  1  0.04894481  0.22992493  0.38721296  1  0  -0.012416  0  3.822657  0  0  -0.039762  0  4.083868  0  0  -0.038469  0  4.104523  0  0  -0.013437  -0.040585  0  4.069837  0
C  C20  1  0.22989011  0.04893358  0.88718617  1  0  -0.012072  0  3.822673  0  0  -0.039329  0  4.083881  0  0  -0.038045  0  4.104528  0  0  -0.013296  -0.040153  0  4.069869  0
C  C21  1  0.95107444  0.77005333  0.61277259  1  0  -0.01229  0  3.822916  0  0  -0.039608  0  4.084145  0  0  -0.038319  0  4.104814  0  0  -0.013471  -0.040427  0  4.070115  0
C  C22  1  0.72707868  0.76427751  0.05304626  1  0  -0.07841  0  3.868555  0  0  -0.098305  0  4.121202  0  0  -0.099259  0  4.144932  0  0  -0.033159  -0.097582  0  4.105057  0
C  C23  1  0.23576397  0.27292117  0.44695156  1  0  -0.078639  0  3.868269  0  0  -0.098478  0  4.121014  0  0  -0.099407  0  4.14468  0  0  -0.033339  -0.097776  0  4.10494  0
C  C24  1  0.27290419  0.23574153  0.94694215  1  0  -0.078692  0  3.868621  0  0  -0.098545  0  4.121204  0  0  -0.099511  0  4.14498  0  0  -0.033303  -0.09782  0  4.105061  0
C  C25  1  0.76426323  0.72706825  0.55303607  1  0  -0.07874  0  3.868343  0  0  -0.098564  0  4.121042  0  0  -0.099505  0  4.144728  0  0  -0.033292  -0.097837  0  4.104899  0
N  N26  1  0.54881549  0.71357409  0.10325686  1  0  -0.601251  0  3.261533  0  0  -0.520634  0  3.525387  0  0  -0.53987  0  3.54291  0  0  -0.497498  -0.507431  0  3.512956  0
N  N27  1  0.28645113  0.45120643  0.39674937  1  0  -0.601095  0  3.261169  0  0  -0.520463  0  3.524982  0  0  -0.539697  0  3.542505  0  0  -0.497511  -0.507263  0  3.512557  0
N  N28  1  0.45117294  0.28643425  0.89674753  1  0  -0.601039  0  3.261322  0  0  -0.520418  0  3.525151  0  0  -0.539658  0  3.542673  0  0  -0.497511  -0.507217  0  3.512727  0
N  N29  1  0.71355945  0.54879435  0.60325828  1  0  -0.60114  0  3.261058  0  0  -0.520512  0  3.524815  0  0  -0.539751  0  3.542343  0  0  -0.497524  -0.507312  0  3.512394  0
N  N30  1  0.62199899  0.02158052  0.20247639  1  0  -0.49532  0  3.151321  0  0  -0.428338  0  3.419625  0  0  -0.445579  0  3.436309  0  0  -0.435504  -0.416596  0  3.407933  0
N  N31  1  0.97843298  0.37801058  0.29754855  1  0  -0.49511  0  3.151379  0  0  -0.428191  0  3.419818  0  0  -0.44541  0  3.436446  0  0  -0.435472  -0.416454  0  3.408153  0
N  N32  1  0.37797120  0.97843103  0.79752472  1  0  -0.495381  0  3.151358  0  0  -0.428392  0  3.419599  0  0  -0.445628  0  3.436279  0  0  -0.43552  -0.416648  0  3.407905  0
N  N33  1  0.02158759  0.62197422  0.70245617  1  0  -0.49525  0  3.151243  0  0  -0.428338  0  3.419606  0  0  -0.44556  0  3.436235  0  0  -0.435494  -0.416601  0  3.407939  0
