# generated using pymatgen
data_TlH4C7NO4
_symmetry_space_group_name_H-M   'P 1'
_cell_length_a   5.86610829
_cell_length_b   6.98395913
_cell_length_c   18.49042240
_cell_angle_alpha   89.99907768
_cell_angle_beta   90.00122128
_cell_angle_gamma   94.84436966
_symmetry_Int_Tables_number   1
_chemical_formula_structural   TlH4C7NO4
_chemical_formula_sum   'Tl4 H16 C28 N4 O16'
_cell_volume   754.82176840
_cell_formula_units_Z   4
loop_
 _symmetry_equiv_pos_site_id
 _symmetry_equiv_pos_as_xyz
  1  'x, y, z'
loop_
 _atom_site_type_symbol
 _atom_site_label
 _atom_site_symmetry_multiplicity
 _atom_site_fract_x
 _atom_site_fract_y
 _atom_site_fract_z
 _atom_site_occupancy
 _atom_site_hle17_bader_spin_density
 _atom_site_hle17_ddec_charge
 _atom_site_hle17_ddec_spin_density
 _atom_site_hle17_ddec_sum_bond_order
 _atom_site_hle17_magmom
 _atom_site_hse06_10hf_bader_spin_density
 _atom_site_hse06_10hf_ddec_charge
 _atom_site_hse06_10hf_ddec_spin_density
 _atom_site_hse06_10hf_ddec_sum_bond_order
 _atom_site_hse06_10hf_magmom
 _atom_site_hse06_bader_spin_density
 _atom_site_hse06_ddec_charge
 _atom_site_hse06_ddec_spin_density
 _atom_site_hse06_ddec_sum_bond_order
 _atom_site_hse06_magmom
 _atom_site_pbe_bader_spin_density
 _atom_site_pbe_cm5_charge
 _atom_site_pbe_ddec_charge
 _atom_site_pbe_ddec_spin_density
 _atom_site_pbe_ddec_sum_bond_order
 _atom_site_pbe_magmom
Tl  Tl0  1  0.58853343  0.96292553  0.87838741  1  0  0.813568  0  0.82638  0  0  0.696062  0  1.128954  0  0  0.728505  0  1.104794  0  0  0.392194  0.671614  0  1.146688  0
Tl  Tl1  1  0.41147501  0.53705814  0.37838450  1  0  0.813574  0  0.8264  0  0  0.696079  0  1.128944  0  0  0.728531  0  1.104791  0  0  0.392195  0.671629  0  1.146675  0
Tl  Tl2  1  0.41146745  0.03707370  0.12161297  1  0  0.813563  0  0.826373  0  0  0.696069  0  1.128941  0  0  0.728513  0  1.104779  0  0  0.392184  0.671613  0  1.146667  0
Tl  Tl3  1  0.58854324  0.46294380  0.62161427  1  0  0.813605  0  0.826356  0  0  0.696115  0  1.128887  0  0  0.728563  0  1.104729  0  0  0.392202  0.671656  0  1.14661  0
H  H4  1  0.41071646  0.42168626  0.76787457  1  0  0.10582  0  0.978121  0  0  0.115175  0  1.043611  0  0  0.118229  0  1.042113  0  0  0.109436  0.113022  0  1.044737  0
H  H5  1  0.58927317  0.07825528  0.26787817  1  0  0.105617  0  0.978321  0  0  0.115134  0  1.043645  0  0  0.118182  0  1.042139  0  0  0.109437  0.112986  0  1.044764  0
H  H6  1  0.58929635  0.57831285  0.23212474  1  0  0.105812  0  0.978162  0  0  0.115162  0  1.043678  0  0  0.118212  0  1.042183  0  0  0.109431  0.113024  0  1.044768  0
H  H7  1  0.41071206  0.92174122  0.73212438  1  0  0.105629  0  0.978396  0  0  0.115154  0  1.043727  0  0  0.118205  0  1.042233  0  0  0.109423  0.113008  0  1.044847  0
H  H8  1  0.60447647  0.48526090  0.88624638  1  0  0.113992  0  0.947245  0  0  0.118748  0  1.014366  0  0  0.122898  0  1.011134  0  0  0.112398  0.11567  0  1.016951  0
H  H9  1  0.39550243  0.01473225  0.38624946  1  0  0.113982  0  0.947113  0  0  0.118776  0  1.014219  0  0  0.122931  0  1.010979  0  0  0.112404  0.1157  0  1.016798  0
H  H10  1  0.39552540  0.51474694  0.11375563  1  0  0.113975  0  0.947321  0  0  0.118781  0  1.014381  0  0  0.12293  0  1.011149  0  0  0.112433  0.115702  0  1.016964  0
H  H11  1  0.60448847  0.98525412  0.61375579  1  0  0.113888  0  0.947307  0  0  0.118737  0  1.014349  0  0  0.122893  0  1.0111  0  0  0.112401  0.115659  0  1.016936  0
H  H12  1  0.38381035  0.38460435  0.00009983  1  0  0.105427  0  0.984599  0  0  0.114197  0  1.050617  0  0  0.117212  0  1.049056  0  0  0.110565  0.11197  0  1.051915  0
H  H13  1  0.61615032  0.11544424  0.50010267  1  0  0.10548  0  0.984357  0  0  0.114247  0  1.050428  0  0  0.117267  0  1.048855  0  0  0.110588  0.112045  0  1.051702  0
H  H14  1  0.61617993  0.61540649  0.99990055  1  0  0.10548  0  0.984573  0  0  0.114234  0  1.050617  0  0  0.117262  0  1.049038  0  0  0.110588  0.112007  0  1.051917  0
H  H15  1  0.38385139  0.88456217  0.49989933  1  0  0.105491  0  0.984335  0  0  0.114213  0  1.05043  0  0  0.117266  0  1.048816  0  0  0.110572  0.111983  0  1.051731  0
H  H16  1  0.03838934  0.26342405  0.63777060  1  0  0.400231  0  0.905743  0  0  0.366826  0  0.985725  0  0  0.38111  0  0.966823  0  0  0.293581  0.356836  0  0.995874  0
H  H17  1  0.96159270  0.23656864  0.13777445  1  0  0.400236  0  0.905707  0  0  0.366757  0  0.985826  0  0  0.381041  0  0.966919  0  0  0.293573  0.356768  0  0.995975  0
H  H18  1  0.96162137  0.73658659  0.36222654  1  0  0.400288  0  0.90575  0  0  0.366889  0  0.985712  0  0  0.381175  0  0.96675  0  0  0.293581  0.356897  0  0.995865  0
H  H19  1  0.03839853  0.76342061  0.86222864  1  0  0.400188  0  0.90564  0  0  0.366737  0  0.985712  0  0  0.381022  0  0.966905  0  0  0.293576  0.356744  0  0.995862  0
C  C20  1  0.32255155  0.38169705  0.81788470  1  0  -0.089714  0  3.687718  0  0  -0.112629  0  3.927234  0  0  -0.114797  0  3.947579  0  0  -0.06677  -0.111038  0  3.913497  0
C  C21  1  0.67742739  0.11827574  0.31788523  1  0  -0.089348  0  3.687251  0  0  -0.112349  0  3.926666  0  0  -0.114496  0  3.947002  0  0  -0.066645  -0.110761  0  3.912928  0
C  C22  1  0.67744851  0.61829499  0.18211623  1  0  -0.089743  0  3.687657  0  0  -0.112614  0  3.92709  0  0  -0.114783  0  3.947427  0  0  -0.066736  -0.111026  0  3.913364  0
C  C23  1  0.32256393  0.88172933  0.68211624  1  0  -0.089522  0  3.687662  0  0  -0.112502  0  3.926988  0  0  -0.114673  0  3.94734  0  0  -0.066711  -0.110916  0  3.913255  0
C  C24  1  0.42978411  0.41814877  0.88424027  1  0  -0.035106  0  3.721557  0  0  -0.044981  0  3.971173  0  0  -0.045844  0  3.989624  0  0  -0.064327  -0.044366  0  3.95885  0
C  C25  1  0.57019884  0.08185161  0.38423619  1  0  -0.035232  0  3.721472  0  0  -0.045164  0  3.971114  0  0  -0.046027  0  3.989556  0  0  -0.06446  -0.044542  0  3.958788  0
C  C26  1  0.57020656  0.58185055  0.11576336  1  0  -0.035173  0  3.721615  0  0  -0.045093  0  3.971234  0  0  -0.045959  0  3.989688  0  0  -0.064424  -0.044472  0  3.958912  0
C  C27  1  0.42980594  0.91815189  0.61576636  1  0  -0.0351  0  3.721657  0  0  -0.045091  0  3.971294  0  0  -0.045949  0  3.989744  0  0  -0.064467  -0.044472  0  3.958969  0
C  C28  1  0.10075387  0.28996841  0.81678335  1  0  0.086524  0  3.741985  0  0  0.094673  0  3.984122  0  0  0.093511  0  4.003182  0  0  0.114456  0.095173  0  3.971357  0
C  C29  1  0.89923238  0.21002449  0.31678652  1  0  0.086353  0  3.741942  0  0  0.094533  0  3.984053  0  0  0.093342  0  4.003161  0  0  0.114443  0.095027  0  3.971292  0
C  C30  1  0.89926388  0.71002922  0.18322245  1  0  0.086638  0  3.741918  0  0  0.094736  0  3.9842  0  0  0.093592  0  4.003211  0  0  0.114464  0.095245  0  3.971444  0
C  C31  1  0.10075911  0.78998202  0.68321116  1  0  0.086416  0  3.741738  0  0  0.094533  0  3.983873  0  0  0.093365  0  4.002957  0  0  0.114452  0.095037  0  3.971112  0
C  C32  1  0.08566500  0.27809185  0.94126617  1  0  0.104161  0  3.725738  0  0  0.109805  0  3.97335  0  0  0.110037  0  3.99099  0  0  0.118564  0.109357  0  3.96148  0
C  C33  1  0.91431189  0.22191502  0.44126610  1  0  0.104606  0  3.725233  0  0  0.109946  0  3.973246  0  0  0.110175  0  3.99088  0  0  0.118527  0.109496  0  3.961383  0
C  C34  1  0.91434918  0.72190437  0.05872610  1  0  0.104174  0  3.725526  0  0  0.109719  0  3.973299  0  0  0.109943  0  3.990947  0  0  0.118489  0.109273  0  3.961435  0
C  C35  1  0.08568592  0.77808712  0.55873375  1  0  0.104576  0  3.725486  0  0  0.109928  0  3.973425  0  0  0.110157  0  3.991071  0  0  0.118523  0.109476  0  3.961558  0
C  C36  1  0.95224511  0.22599858  0.00993963  1  0  0.634751  0  3.883757  0  0  0.579624  0  4.183497  0  0  0.61317  0  4.176724  0  0  0.217355  0.556881  0  4.187182  0
C  C37  1  0.04775016  0.27400182  0.50994063  1  0  0.634483  0  3.884106  0  0  0.579467  0  4.183825  0  0  0.613018  0  4.177047  0  0  0.217315  0.556729  0  4.1875  0
C  C38  1  0.04775463  0.77399059  0.99006184  1  0  0.634693  0  3.883688  0  0  0.579567  0  4.183495  0  0  0.613115  0  4.176724  0  0  0.217383  0.55682  0  4.187181  0
C  C39  1  0.95226144  0.72600162  0.49005543  1  0  0.634526  0  3.884566  0  0  0.579575  0  4.184147  0  0  0.613121  0  4.177366  0  0  0.217352  0.556824  0  4.187835  0
C  C40  1  0.98332067  0.24207287  0.74573572  1  0  0.63503  0  3.828029  0  0  0.583354  0  4.12626  0  0  0.616743  0  4.117751  0  0  0.231031  0.560674  0  4.131401  0
C  C41  1  0.01664687  0.25793160  0.24573734  1  0  0.63482  0  3.828084  0  0  0.583112  0  4.126355  0  0  0.616509  0  4.11784  0  0  0.23087  0.560434  0  4.13149  0
C  C42  1  0.01668972  0.75793490  0.25425493  1  0  0.635017  0  3.82802  0  0  0.58324  0  4.126438  0  0  0.616635  0  4.117906  0  0  0.230939  0.560531  0  4.131607  0
C  C43  1  0.98333781  0.74207497  0.75427224  1  0  0.634806  0  3.828401  0  0  0.58318  0  4.126569  0  0  0.616565  0  4.118057  0  0  0.230875  0.560483  0  4.131734  0
C  C44  1  0.30937497  0.36405549  0.94677144  1  0  -0.094094  0  3.691516  0  0  -0.120794  0  3.937894  0  0  -0.122933  0  3.957277  0  0  -0.069351  -0.119198  0  3.924843  0
C  C45  1  0.69061506  0.13597261  0.44677139  1  0  -0.094271  0  3.691122  0  0  -0.120908  0  3.937631  0  0  -0.123057  0  3.95704  0  0  -0.06928  -0.119339  0  3.924572  0
C  C46  1  0.69062267  0.63594520  0.05322840  1  0  -0.094036  0  3.691024  0  0  -0.120715  0  3.937472  0  0  -0.12286  0  3.95685  0  0  -0.069271  -0.119128  0  3.924432  0
C  C47  1  0.30938972  0.86403089  0.55323278  1  0  -0.094274  0  3.691022  0  0  -0.120862  0  3.937532  0  0  -0.123052  0  3.956941  0  0  -0.069268  -0.119264  0  3.924483  0
N  N48  1  0.98415711  0.23978668  0.87737955  1  0  -0.321677  0  3.142809  0  0  -0.279932  0  3.393015  0  0  -0.290282  0  3.410717  0  0  -0.285345  -0.272337  0  3.380847  0
N  N49  1  0.01581081  0.26020692  0.37737413  1  0  -0.32167  0  3.143072  0  0  -0.279821  0  3.393296  0  0  -0.290158  0  3.411004  0  0  -0.285355  -0.272221  0  3.381121  0
N  N50  1  0.01584758  0.76020100  0.12262029  1  0  -0.321579  0  3.14248  0  0  -0.279783  0  3.392739  0  0  -0.290135  0  3.410437  0  0  -0.285218  -0.272187  0  3.380564  0
N  N51  1  0.98418238  0.73979957  0.62262139  1  0  -0.321678  0  3.14324  0  0  -0.279835  0  3.393484  0  0  -0.290176  0  3.411186  0  0  -0.285356  -0.272234  0  3.381308  0
O  O52  1  0.11167872  0.30011838  0.68983438  1  0  -0.600749  0  2.176162  0  0  -0.543594  0  2.411004  0  0  -0.570762  0  2.398934  0  0  -0.322093  -0.524437  0  2.416576  0
O  O53  1  0.88828887  0.19987099  0.18983107  1  0  -0.600639  0  2.176156  0  0  -0.543451  0  2.411122  0  0  -0.570613  0  2.399026  0  0  -0.322061  -0.524302  0  2.416721  0
O  O54  1  0.88831594  0.69990104  0.31017142  1  0  -0.60085  0  2.175723  0  0  -0.543605  0  2.410514  0  0  -0.570798  0  2.398453  0  0  -0.322055  -0.52448  0  2.4162  0
O  O55  1  0.11168467  0.80011267  0.81016121  1  0  -0.600422  0  2.176513  0  0  -0.543266  0  2.411401  0  0  -0.570435  0  2.399408  0  0  -0.321958  -0.524135  0  2.417054  0
O  O56  1  0.75421662  0.14251828  0.00589570  1  0  -0.636994  0  1.985409  0  0  -0.570866  0  2.223858  0  0  -0.599347  0  2.219491  0  0  -0.298144  -0.550603  0  2.2262  0
O  O57  1  0.24577288  0.35747946  0.50589713  1  0  -0.636909  0  1.985549  0  0  -0.570787  0  2.223938  0  0  -0.599255  0  2.219549  0  0  -0.29809  -0.550523  0  2.226272  0
O  O58  1  0.24577972  0.85747092  0.99410468  1  0  -0.637011  0  1.985353  0  0  -0.570867  0  2.223805  0  0  -0.59933  0  2.219402  0  0  -0.29816  -0.5506  0  2.22614  0
O  O59  1  0.75423679  0.64253695  0.49410109  1  0  -0.636971  0  1.985766  0  0  -0.570836  0  2.224069  0  0  -0.59933  0  2.219744  0  0  -0.298097  -0.550565  0  2.226406  0
O  O60  1  0.78984517  0.15739111  0.74130566  1  0  -0.580531  0  1.951099  0  0  -0.530562  0  2.178025  0  0  -0.5542  0  2.173105  0  0  -0.282347  -0.513956  0  2.180872  0
O  O61  1  0.21010840  0.34264387  0.24130768  1  0  -0.580481  0  1.951121  0  0  -0.530483  0  2.17802  0  0  -0.554112  0  2.173082  0  0  -0.282256  -0.513879  0  2.180864  0
O  O62  1  0.21016181  0.84261669  0.25869202  1  0  -0.580533  0  1.951094  0  0  -0.530512  0  2.178045  0  0  -0.554182  0  2.173185  0  0  -0.282337  -0.513895  0  2.180902  0
O  O63  1  0.78988149  0.65737848  0.75869109  1  0  -0.580602  0  1.951357  0  0  -0.530608  0  2.178157  0  0  -0.554255  0  2.173251  0  0  -0.282316  -0.513992  0  2.181015  0
O  O64  1  0.05883149  0.27571695  0.06880416  1  0  -0.640662  0  2.053641  0  0  -0.575145  0  2.289046  0  0  -0.603292  0  2.280755  0  0  -0.311208  -0.555286  0  2.293275  0
O  O65  1  0.94116685  0.22426387  0.56879921  1  0  -0.640564  0  2.053947  0  0  -0.575111  0  2.289272  0  0  -0.603254  0  2.280977  0  0  -0.311192  -0.555255  0  2.293502  0
O  O66  1  0.94116451  0.72426937  0.93119893  1  0  -0.640644  0  2.05357  0  0  -0.575112  0  2.2889  0  0  -0.603258  0  2.280637  0  0  -0.311236  -0.555248  0  2.293131  0
O  O67  1  0.05885218  0.77571504  0.43119902  1  0  -0.640638  0  2.054313  0  0  -0.575203  0  2.289567  0  0  -0.603342  0  2.28126  0  0  -0.311263  -0.555335  0  2.2938  0
