# generated using pymatgen
data_CuH14C15S2IF2
_symmetry_space_group_name_H-M   'P 1'
_cell_length_a   7.40200959
_cell_length_b   15.65699784
_cell_length_c   15.95171086
_cell_angle_alpha   118.59244259
_cell_angle_beta   89.99964789
_cell_angle_gamma   89.99993947
_symmetry_Int_Tables_number   1
_chemical_formula_structural   CuH14C15S2IF2
_chemical_formula_sum   'Cu4 H56 C60 S8 I4 F8'
_cell_volume   1623.23996431
_cell_formula_units_Z   4
loop_
 _symmetry_equiv_pos_site_id
 _symmetry_equiv_pos_as_xyz
  1  'x, y, z'
loop_
 _atom_site_type_symbol
 _atom_site_label
 _atom_site_symmetry_multiplicity
 _atom_site_fract_x
 _atom_site_fract_y
 _atom_site_fract_z
 _atom_site_occupancy
 _atom_site_hle17_bader_spin_density
 _atom_site_hle17_ddec_charge
 _atom_site_hle17_ddec_spin_density
 _atom_site_hle17_ddec_sum_bond_order
 _atom_site_hle17_magmom
 _atom_site_hse06_10hf_bader_spin_density
 _atom_site_hse06_10hf_ddec_charge
 _atom_site_hse06_10hf_ddec_spin_density
 _atom_site_hse06_10hf_ddec_sum_bond_order
 _atom_site_hse06_10hf_magmom
 _atom_site_hse06_bader_spin_density
 _atom_site_hse06_ddec_charge
 _atom_site_hse06_ddec_spin_density
 _atom_site_hse06_ddec_sum_bond_order
 _atom_site_hse06_magmom
 _atom_site_pbe_bader_spin_density
 _atom_site_pbe_cm5_charge
 _atom_site_pbe_ddec_charge
 _atom_site_pbe_ddec_spin_density
 _atom_site_pbe_ddec_sum_bond_order
 _atom_site_pbe_magmom
Cu  Cu0  1  0.02724086  0.52445102  0.59058404  1  0  0.135599  0  2.355832  0  0  0.066859  0  2.847946  0  0  0.073991  0  2.800626  0  0  0.231155  0.063894  0  2.878337  0
Cu  Cu1  1  0.52723959  0.97554987  0.40941541  1  0  0.135569  0  2.355888  0  0  0.066816  0  2.847981  0  0  0.07396  0  2.800684  0  0  0.231148  0.063847  0  2.878401  0
Cu  Cu2  1  0.97275966  0.47555069  0.40941869  1  0  0.135572  0  2.355866  0  0  0.066834  0  2.847966  0  0  0.073968  0  2.800647  0  0  0.23114  0.063855  0  2.878384  0
Cu  Cu3  1  0.47276227  0.02444817  0.59058123  1  0  0.135615  0  2.355846  0  0  0.066873  0  2.847937  0  0  0.073999  0  2.800621  0  0  0.231161  0.06391  0  2.878329  0
H  H4  1  0.57270644  0.49511013  0.56496470  1  0  0.090704  0  0.942477  0  0  0.107491  0  1.006535  0  0  0.108508  0  1.006309  0  0  0.092058  0.106609  0  1.006936  0
H  H5  1  0.07270845  0.00488536  0.43503355  1  0  0.09076  0  0.942538  0  0  0.107535  0  1.006588  0  0  0.108552  0  1.006362  0  0  0.092096  0.10665  0  1.007  0
H  H6  1  0.42728867  0.50489375  0.43503716  1  0  0.090791  0  0.942483  0  0  0.107497  0  1.006639  0  0  0.108515  0  1.006413  0  0  0.092063  0.106615  0  1.007036  0
H  H7  1  0.92729342  0.99511197  0.56496464  1  0  0.090726  0  0.942522  0  0  0.107516  0  1.006583  0  0  0.108532  0  1.006358  0  0  0.092079  0.106637  0  1.006982  0
H  H8  1  0.68565302  0.38775113  0.54681750  1  0  0.090224  0  0.956648  0  0  0.102254  0  1.025041  0  0  0.104289  0  1.024218  0  0  0.08554  0.100676  0  1.025819  0
H  H9  1  0.18565863  0.11224263  0.45318151  1  0  0.090276  0  0.95657  0  0  0.102277  0  1.02499  0  0  0.104312  0  1.024168  0  0  0.085546  0.100699  0  1.025768  0
H  H10  1  0.31434209  0.61224910  0.45318141  1  0  0.0902  0  0.956794  0  0  0.102237  0  1.025157  0  0  0.104272  0  1.024337  0  0  0.085535  0.10066  0  1.025928  0
H  H11  1  0.81434594  0.88775469  0.54681543  1  0  0.090293  0  0.956702  0  0  0.102327  0  1.025086  0  0  0.104363  0  1.024262  0  0  0.085568  0.10075  0  1.025861  0
H  H12  1  0.15333792  0.77867573  0.72076057  1  0  0.097  0  0.963927  0  0  0.108807  0  1.023396  0  0  0.111813  0  1.021867  0  0  0.094379  0.106565  0  1.024606  0
H  H13  1  0.65332945  0.72133067  0.27924171  1  0  0.096901  0  0.96403  0  0  0.108706  0  1.023516  0  0  0.111728  0  1.021949  0  0  0.094358  0.106466  0  1.024707  0
H  H14  1  0.84667205  0.22133330  0.27925120  1  0  0.09696  0  0.964031  0  0  0.10876  0  1.02353  0  0  0.11176  0  1.022  0  0  0.094432  0.106519  0  1.024745  0
H  H15  1  0.34666296  0.27866662  0.72075208  1  0  0.096996  0  0.964089  0  0  0.108801  0  1.023569  0  0  0.111819  0  1.021996  0  0  0.094435  0.10656  0  1.024758  0
H  H16  1  0.78218787  0.59378732  0.88469024  1  0  0.100146  0  0.953171  0  0  0.108031  0  1.018409  0  0  0.110603  0  1.017633  0  0  0.099898  0.106068  0  1.01925  0
H  H17  1  0.28219329  0.90621220  0.11530722  1  0  0.100182  0  0.953199  0  0  0.108045  0  1.018452  0  0  0.110641  0  1.017634  0  0  0.099927  0.106154  0  1.019088  0
H  H18  1  0.21780859  0.40621435  0.11530809  1  0  0.100125  0  0.953063  0  0  0.107987  0  1.01833  0  0  0.110565  0  1.017542  0  0  0.099916  0.106024  0  1.019161  0
H  H19  1  0.71782208  0.09378658  0.88469164  1  0  0.100231  0  0.953159  0  0  0.108097  0  1.01839  0  0  0.110661  0  1.017633  0  0  0.099938  0.106134  0  1.019248  0
H  H20  1  0.45535299  0.55706702  0.78670943  1  0  0.092055  0  0.947117  0  0  0.102319  0  1.016045  0  0  0.103509  0  1.016022  0  0  0.092886  0.10129  0  1.016463  0
H  H21  1  0.95535439  0.94293571  0.21329028  1  0  0.092073  0  0.947101  0  0  0.102288  0  1.016085  0  0  0.103597  0  1.01586  0  0  0.092871  0.101439  0  1.016116  0
H  H22  1  0.54464617  0.44293465  0.21328890  1  0  0.092117  0  0.946894  0  0  0.102336  0  1.01587  0  0  0.10354  0  1.015835  0  0  0.092883  0.101292  0  1.016303  0
H  H23  1  0.04464882  0.05706381  0.78671081  1  0  0.092094  0  0.946938  0  0  0.102328  0  1.015902  0  0  0.103526  0  1.015876  0  0  0.092888  0.101306  0  1.016317  0
H  H24  1  0.25155458  0.48663788  0.75312866  1  0  0.096892  0  0.931053  0  0  0.114984  0  0.986383  0  0  0.115583  0  0.987569  0  0  0.098748  0.114487  0  0.985648  0
H  H25  1  0.75155912  0.01336734  0.24687359  1  0  0.096841  0  0.931046  0  0  0.114965  0  0.986351  0  0  0.115546  0  0.987578  0  0  0.098732  0.114499  0  0.985568  0
H  H26  1  0.74844864  0.51336820  0.24687672  1  0  0.096897  0  0.931122  0  0  0.114996  0  0.98642  0  0  0.115597  0  0.98761  0  0  0.098733  0.114501  0  0.985682  0
H  H27  1  0.24844815  0.98662779  0.75312171  1  0  0.096842  0  0.931169  0  0  0.114946  0  0.986475  0  0  0.115543  0  0.987676  0  0  0.098707  0.114451  0  0.985747  0
H  H28  1  0.89773687  0.33087834  0.62305592  1  0  0.097029  0  0.97987  0  0  0.105359  0  1.045001  0  0  0.108738  0  1.042877  0  0  0.08826  0.102769  0  1.046726  0
H  H29  1  0.39773797  0.16911781  0.37694484  1  0  0.097019  0  0.979869  0  0  0.105358  0  1.045005  0  0  0.108749  0  1.042879  0  0  0.08828  0.102767  0  1.046739  0
H  H30  1  0.10226364  0.66912189  0.37694236  1  0  0.097126  0  0.979817  0  0  0.105409  0  1.04499  0  0  0.108807  0  1.042851  0  0  0.088283  0.102821  0  1.046711  0
H  H31  1  0.60225714  0.83088028  0.62305809  1  0  0.097052  0  0.979829  0  0  0.105403  0  1.04495  0  0  0.108763  0  1.042858  0  0  0.088269  0.102809  0  1.046679  0
H  H32  1  0.51309633  0.38153494  0.67605373  1  0  0.080187  0  0.947297  0  0  0.099603  0  1.005419  0  0  0.099607  0  1.007667  0  0  0.087126  0.099564  0  1.003881  0
H  H33  1  0.01310228  0.11846653  0.32394997  1  0  0.080086  0  0.947306  0  0  0.099509  0  1.005439  0  0  0.099501  0  1.00771  0  0  0.087078  0.099471  0  1.003914  0
H  H34  1  0.48690013  0.61846675  0.32394648  1  0  0.080241  0  0.947249  0  0  0.099638  0  1.005398  0  0  0.09964  0  1.007646  0  0  0.087113  0.099599  0  1.003859  0
H  H35  1  0.98689958  0.88153152  0.67604793  1  0  0.080129  0  0.947373  0  0  0.09955  0  1.005504  0  0  0.099545  0  1.007764  0  0  0.087113  0.099511  0  1.003969  0
H  H36  1  0.36570044  0.38294309  0.59020078  1  0  0.078073  0  0.978208  0  0  0.093054  0  1.045854  0  0  0.094611  0  1.045633  0  0  0.074833  0.09183  0  1.046092  0
H  H37  1  0.86570531  0.11705751  0.40980276  1  0  0.07807  0  0.978181  0  0  0.093018  0  1.045858  0  0  0.094572  0  1.045638  0  0  0.074804  0.091786  0  1.046109  0
H  H38  1  0.63429332  0.61706152  0.40980204  1  0  0.078077  0  0.978163  0  0  0.093052  0  1.045829  0  0  0.094608  0  1.045605  0  0  0.074835  0.091832  0  1.046062  0
H  H39  1  0.13429520  0.88293981  0.59019481  1  0  0.078024  0  0.978153  0  0  0.092979  0  1.045845  0  0  0.094535  0  1.045618  0  0  0.074789  0.091755  0  1.046082  0
H  H40  1  0.04470723  0.75743106  0.01804651  1  0  0.127403  0  0.963963  0  0  0.132632  0  1.030346  0  0  0.136699  0  1.027374  0  0  0.10273  0.129044  0  1.033244  0
H  H41  1  0.54472589  0.74256324  0.98194921  1  0  0.127515  0  0.963895  0  0  0.132742  0  1.030264  0  0  0.136811  0  1.027357  0  0  0.102782  0.12906  0  1.033467  0
H  H42  1  0.95528383  0.24256412  0.98195570  1  0  0.127393  0  0.963863  0  0  0.13267  0  1.030192  0  0  0.136741  0  1.027255  0  0  0.102748  0.128983  0  1.033399  0
H  H43  1  0.45528138  0.25743477  0.01804429  1  0  0.127395  0  0.96388  0  0  0.132629  0  1.030251  0  0  0.1367  0  1.02731  0  0  0.102737  0.128937  0  1.033457  0
H  H44  1  0.96182569  0.24428104  0.71703322  1  0  0.114528  0  0.96863  0  0  0.116303  0  1.043406  0  0  0.120101  0  1.041551  0  0  0.097324  0.113448  0  1.045179  0
H  H45  1  0.46184136  0.25571642  0.28297048  1  0  0.114511  0  0.968616  0  0  0.116319  0  1.04331  0  0  0.120119  0  1.041449  0  0  0.09731  0.113465  0  1.045085  0
H  H46  1  0.03817077  0.75572065  0.28296700  1  0  0.114513  0  0.968605  0  0  0.116313  0  1.043337  0  0  0.120113  0  1.041479  0  0  0.097315  0.11346  0  1.045111  0
H  H47  1  0.53816050  0.74428386  0.71703473  1  0  0.114515  0  0.968582  0  0  0.1163  0  1.043335  0  0  0.120097  0  1.041481  0  0  0.097318  0.113449  0  1.045115  0
H  H48  1  0.18970418  0.61994404  0.87974837  1  0  0.100412  0  0.968833  0  0  0.107444  0  1.034862  0  0  0.110622  0  1.033013  0  0  0.10048  0.104781  0  1.036901  0
H  H49  1  0.68970830  0.88005498  0.12024850  1  0  0.100388  0  0.968847  0  0  0.107418  0  1.03488  0  0  0.110782  0  1.032731  0  0  0.100512  0.105062  0  1.036367  0
H  H50  1  0.81028958  0.38005404  0.12025268  1  0  0.100414  0  0.968774  0  0  0.107449  0  1.034792  0  0  0.110638  0  1.032917  0  0  0.100505  0.104781  0  1.036824  0
H  H51  1  0.31030978  0.11994012  0.87974428  1  0  0.100411  0  0.968768  0  0  0.107454  0  1.034781  0  0  0.110637  0  1.032918  0  0  0.100483  0.104788  0  1.036814  0
H  H52  1  0.00633623  0.91685681  0.86167154  1  0  0.12436  0  0.958672  0  0  0.131823  0  1.022444  0  0  0.135063  0  1.021138  0  0  0.10289  0.129076  0  1.024042  0
H  H53  1  0.50633260  0.58314708  0.13833312  1  0  0.124249  0  0.958663  0  0  0.131769  0  1.022378  0  0  0.135021  0  1.021098  0  0  0.10284  0.128933  0  1.024244  0
H  H54  1  0.99365888  0.08314569  0.13833845  1  0  0.124303  0  0.95869  0  0  0.131782  0  1.022447  0  0  0.135242  0  1.020863  0  0  0.102856  0.129361  0  1.023664  0
H  H55  1  0.49364494  0.41685531  0.86166428  1  0  0.124288  0  0.958685  0  0  0.131702  0  1.022514  0  0  0.134953  0  1.021237  0  0  0.102823  0.128868  0  1.024375  0
H  H56  1  0.85080520  0.50716963  0.97804872  1  0  0.124601  0  0.949051  0  0  0.129846  0  1.016787  0  0  0.133509  0  1.01463  0  0  0.105025  0.12674  0  1.019645  0
H  H57  1  0.35081708  0.99283192  0.02195136  1  0  0.124581  0  0.949021  0  0  0.129785  0  1.016792  0  0  0.133422  0  1.014705  0  0  0.104968  0.126709  0  1.019606  0
H  H58  1  0.14919127  0.49283423  0.02195125  1  0  0.12457  0  0.948998  0  0  0.129775  0  1.016781  0  0  0.133439  0  1.014623  0  0  0.104994  0.126672  0  1.019634  0
H  H59  1  0.64920235  0.00716832  0.97804944  1  0  0.124523  0  0.949097  0  0  0.129794  0  1.016807  0  0  0.133571  0  1.014442  0  0  0.105026  0.126875  0  1.019188  0
C  C60  1  0.61749138  0.45362805  0.60065805  1  0  -0.139771  0  3.628897  0  0  -0.176057  0  3.888921  0  0  -0.176335  0  3.900153  0  0  -0.154923  -0.175778  0  3.881193  0
C  C61  1  0.11749648  0.04636660  0.39933968  1  0  -0.139849  0  3.628989  0  0  -0.176114  0  3.889012  0  0  -0.176399  0  3.900254  0  0  -0.154919  -0.175833  0  3.881293  0
C  C62  1  0.38250373  0.54637729  0.39934448  1  0  -0.139845  0  3.629073  0  0  -0.176076  0  3.889041  0  0  -0.176356  0  3.900271  0  0  -0.154932  -0.17582  0  3.88138  0
C  C63  1  0.88250674  0.95362490  0.60065455  1  0  -0.139936  0  3.62903  0  0  -0.176255  0  3.889092  0  0  -0.176536  0  3.900317  0  0  -0.154964  -0.17599  0  3.88139  0
C  C64  1  0.01807986  0.84259171  0.94551977  1  0  0.305729  0  3.780575  0  0  0.290787  0  4.063701  0  0  0.302275  0  4.073162  0  0  0.088632  0.282952  0  4.057148  0
C  C65  1  0.51808395  0.65740631  0.05448026  1  0  0.305578  0  3.780473  0  0  0.290757  0  4.063469  0  0  0.301543  0  4.073983  0  0  0.0886  0.281556  0  4.058611  0
C  C66  1  0.98191526  0.15740712  0.05448539  1  0  0.30566  0  3.780476  0  0  0.290927  0  4.063361  0  0  0.301727  0  4.07386  0  0  0.088673  0.281786  0  4.058342  0
C  C67  1  0.48190306  0.34259462  0.94551584  1  0  0.305817  0  3.780329  0  0  0.29096  0  4.063342  0  0  0.30176  0  4.073834  0  0  0.088664  0.281753  0  4.05847  0
C  C68  1  0.18025592  0.68983756  0.79023535  1  0  0.021904  0  3.766488  0  0  0.039492  0  4.023921  0  0  0.039308  0  4.046652  0  0  -0.018809  0.03911  0  4.0092  0
C  C69  1  0.68025494  0.81016583  0.20976232  1  0  0.021756  0  3.766754  0  0  0.039412  0  4.024095  0  0  0.039248  0  4.046787  0  0  -0.018899  0.03903  0  4.009342  0
C  C70  1  0.81974054  0.31016488  0.20976835  1  0  0.021781  0  3.766618  0  0  0.039436  0  4.023933  0  0  0.039282  0  4.046577  0  0  -0.018793  0.039053  0  4.009141  0
C  C71  1  0.31974828  0.18982927  0.79022982  1  0  0.021841  0  3.766427  0  0  0.039481  0  4.023804  0  0  0.039345  0  4.046419  0  0  -0.01882  0.039098  0  4.008984  0
C  C72  1  0.13016271  0.77422986  0.78600984  1  0  -0.086259  0  3.762987  0  0  -0.10498  0  4.013064  0  0  -0.105963  0  4.03332  0  0  -0.095521  -0.104523  0  3.999917  0
C  C73  1  0.63015509  0.72577589  0.21399408  1  0  -0.086088  0  3.763022  0  0  -0.104835  0  4.013077  0  0  -0.105676  0  4.033177  0  0  -0.09544  -0.104387  0  3.999914  0
C  C74  1  0.86985537  0.22577918  0.21400255  1  0  -0.08603  0  3.762917  0  0  -0.104769  0  4.012967  0  0  -0.10566  0  4.033172  0  0  -0.095533  -0.104314  0  3.99983  0
C  C75  1  0.36984002  0.27422286  0.78600101  1  0  -0.086161  0  3.763064  0  0  -0.104909  0  4.013114  0  0  -0.105724  0  4.03318  0  0  -0.095516  -0.104461  0  3.999935  0
C  C76  1  0.82440105  0.51784958  0.84805750  1  0  -0.082783  0  3.760723  0  0  -0.104161  0  4.015951  0  0  -0.104633  0  4.036888  0  0  -0.091742  -0.103915  0  4.00214  0
C  C77  1  0.32440043  0.98214984  0.15194042  1  0  -0.082789  0  3.760823  0  0  -0.104154  0  4.016046  0  0  -0.104565  0  4.036901  0  0  -0.091712  -0.103751  0  4.0019  0
C  C78  1  0.17560351  0.48215570  0.15193874  1  0  -0.082702  0  3.760495  0  0  -0.104038  0  4.015741  0  0  -0.104503  0  4.036662  0  0  -0.091692  -0.103795  0  4.001925  0
C  C79  1  0.67560684  0.01784896  0.84806033  1  0  -0.082976  0  3.760794  0  0  -0.104331  0  4.016055  0  0  -0.104841  0  4.037057  0  0  -0.091788  -0.104081  0  4.002265  0
C  C80  1  0.36380397  0.51340914  0.72707549  1  0  -0.140664  0  3.624834  0  0  -0.177319  0  3.890283  0  0  -0.177367  0  3.901616  0  0  -0.151326  -0.177288  0  3.882559  0
C  C81  1  0.86380719  0.98659311  0.27292551  1  0  -0.14064  0  3.624881  0  0  -0.177284  0  3.890324  0  0  -0.177355  0  3.901728  0  0  -0.151306  -0.177164  0  3.882374  0
C  C82  1  0.63620195  0.48659621  0.27292955  1  0  -0.140755  0  3.624844  0  0  -0.177342  0  3.890224  0  0  -0.177407  0  3.901566  0  0  -0.15129  -0.1773  0  3.882502  0
C  C83  1  0.13620143  0.01340129  0.72706945  1  0  -0.140785  0  3.624912  0  0  -0.177398  0  3.890316  0  0  -0.177474  0  3.901685  0  0  -0.151319  -0.177378  0  3.882605  0
C  C84  1  0.83705914  0.46815477  0.74824965  1  0  0.012474  0  3.763371  0  0  0.034743  0  4.014699  0  0  0.032661  0  4.039053  0  0  -0.020956  0.035822  0  3.998217  0
C  C85  1  0.33705407  0.03184515  0.25175115  1  0  0.01248  0  3.763157  0  0  0.034768  0  4.014463  0  0  0.032652  0  4.038898  0  0  -0.020959  0.035852  0  3.99803  0
C  C86  1  0.16295894  0.53185420  0.25175519  1  0  0.012497  0  3.763207  0  0  0.034725  0  4.014582  0  0  0.032643  0  4.038941  0  0  -0.021029  0.035811  0  3.998091  0
C  C87  1  0.66294915  0.96815073  0.74824700  1  0  0.012566  0  3.763241  0  0  0.03481  0  4.014597  0  0  0.032713  0  4.038982  0  0  -0.020964  0.035891  0  3.998139  0
C  C88  1  0.88786468  0.36982608  0.70072779  1  0  -0.076032  0  3.744127  0  0  -0.091826  0  3.982906  0  0  -0.091407  0  4.002476  0  0  -0.090983  -0.092089  0  3.969918  0
C  C89  1  0.38787228  0.13017299  0.29927310  1  0  -0.076038  0  3.744185  0  0  -0.091859  0  3.982978  0  0  -0.09148  0  4.002563  0  0  -0.091023  -0.092125  0  3.970031  0
C  C90  1  0.11213989  0.63017561  0.29927306  1  0  -0.076218  0  3.744359  0  0  -0.09196  0  3.983168  0  0  -0.091562  0  4.002723  0  0  -0.09098  -0.092229  0  3.970179  0
C  C91  1  0.61213094  0.86982727  0.70072896  1  0  -0.076128  0  3.74416  0  0  -0.091938  0  3.982948  0  0  -0.091527  0  4.002539  0  0  -0.091015  -0.092195  0  3.96998  0
C  C92  1  0.46196847  0.42789612  0.64684533  1  0  -0.110573  0  3.718149  0  0  -0.145245  0  3.963473  0  0  -0.147486  0  3.979267  0  0  -0.177166  -0.143483  0  3.952463  0
C  C93  1  0.96197148  0.07210132  0.35315647  1  0  -0.110483  0  3.71815  0  0  -0.14511  0  3.963437  0  0  -0.147378  0  3.979279  0  0  -0.177112  -0.143337  0  3.952471  0
C  C94  1  0.53803069  0.57210921  0.35315720  1  0  -0.110609  0  3.718159  0  0  -0.145287  0  3.963497  0  0  -0.147522  0  3.97929  0  0  -0.177163  -0.143527  0  3.952475  0
C  C95  1  0.03803038  0.92789091  0.64683999  1  0  -0.110322  0  3.718098  0  0  -0.14502  0  3.96351  0  0  -0.147242  0  3.979286  0  0  -0.177089  -0.14326  0  3.952507  0
C  C96  1  0.06955105  0.76126456  0.95272007  1  0  -0.186864  0  3.763728  0  0  -0.211855  0  4.023489  0  0  -0.215949  0  4.041141  0  0  -0.105594  -0.209298  0  4.012399  0
C  C97  1  0.56957263  0.73872967  0.04727493  1  0  -0.187011  0  3.763656  0  0  -0.212033  0  4.023348  0  0  -0.2163  0  4.04139  0  0  -0.105635  -0.209958  0  4.01355  0
C  C98  1  0.93042515  0.23872770  0.04727954  1  0  -0.186943  0  3.76367  0  0  -0.212045  0  4.023361  0  0  -0.21629  0  4.041348  0  0  -0.105635  -0.209987  0  4.013583  0
C  C99  1  0.43043329  0.26126908  0.95272017  1  0  -0.186979  0  3.763548  0  0  -0.211991  0  4.02329  0  0  -0.216204  0  4.041226  0  0  -0.10565  -0.209945  0  4.01349  0
C  C100  1  0.92562305  0.32117341  0.75249914  1  0  -0.175443  0  3.759416  0  0  -0.195936  0  4.011702  0  0  -0.201357  0  4.031185  0  0  -0.10076  -0.192913  0  4.000057  0
C  C101  1  0.42563799  0.17882342  0.24750436  1  0  -0.175426  0  3.75954  0  0  -0.195893  0  4.011814  0  0  -0.201334  0  4.03134  0  0  -0.100753  -0.192877  0  4.00022  0
C  C102  1  0.07436396  0.67882611  0.24750195  1  0  -0.175477  0  3.759489  0  0  -0.195952  0  4.011745  0  0  -0.201373  0  4.031229  0  0  -0.100816  -0.192933  0  4.00011  0
C  C103  1  0.57436387  0.82117685  0.75249959  1  0  -0.175455  0  3.759429  0  0  -0.195926  0  4.011678  0  0  -0.201373  0  4.031203  0  0  -0.100783  -0.192906  0  4.000083  0
C  C104  1  0.15135511  0.68401278  0.87410602  1  0  -0.08682  0  3.753331  0  0  -0.108602  0  4.008801  0  0  -0.109857  0  4.030057  0  0  -0.094706  -0.108088  0  3.995386  0
C  C105  1  0.65137144  0.81598488  0.12589096  1  0  -0.086516  0  3.753203  0  0  -0.108315  0  4.008639  0  0  -0.109414  0  4.029689  0  0  -0.094607  -0.107682  0  3.994795  0
C  C106  1  0.84862244  0.31598384  0.12589498  1  0  -0.086651  0  3.753283  0  0  -0.108446  0  4.008744  0  0  -0.109572  0  4.029881  0  0  -0.094674  -0.10794  0  3.995326  0
C  C107  1  0.34863988  0.18401241  0.87410346  1  0  -0.086628  0  3.753037  0  0  -0.10842  0  4.008497  0  0  -0.109542  0  4.02963  0  0  -0.094626  -0.107909  0  3.995062  0
C  C108  1  0.04765884  0.85129977  0.86384373  1  0  -0.176194  0  3.756268  0  0  -0.201873  0  4.014408  0  0  -0.205677  0  4.032835  0  0  -0.103926  -0.199631  0  4.002975  0
C  C109  1  0.54764701  0.64870546  0.13616019  1  0  -0.176144  0  3.756133  0  0  -0.201916  0  4.014255  0  0  -0.205831  0  4.032949  0  0  -0.104  -0.200151  0  4.004055  0
C  C110  1  0.95235924  0.14870636  0.13616795  1  0  -0.176299  0  3.756313  0  0  -0.202071  0  4.01444  0  0  -0.205903  0  4.032882  0  0  -0.104016  -0.200071  0  4.003457  0
C  C111  1  0.45233865  0.35129548  0.86383655  1  0  -0.176282  0  3.756402  0  0  -0.201936  0  4.014547  0  0  -0.205846  0  4.033233  0  0  -0.103965  -0.200175  0  4.004334  0
C  C112  1  0.91392822  0.37298978  0.85144597  1  0  0.306382  0  3.784832  0  0  0.29292  0  4.064467  0  0  0.303818  0  4.076035  0  0  0.093155  0.283815  0  4.058775  0
C  C113  1  0.41394053  0.12700995  0.14855515  1  0  0.306436  0  3.785053  0  0  0.292975  0  4.064693  0  0  0.30383  0  4.076371  0  0  0.093234  0.283857  0  4.059088  0
C  C114  1  0.08605879  0.62701117  0.14855265  1  0  0.306508  0  3.78503  0  0  0.29302  0  4.064693  0  0  0.303915  0  4.076269  0  0  0.093244  0.283901  0  4.059019  0
C  C115  1  0.58606134  0.87299103  0.85144724  1  0  0.306483  0  3.784819  0  0  0.29304  0  4.064448  0  0  0.303936  0  4.076033  0  0  0.093241  0.283984  0  4.058634  0
C  C116  1  0.86414537  0.47032376  0.90071476  1  0  -0.186522  0  3.76854  0  0  -0.216257  0  4.036059  0  0  -0.220546  0  4.053529  0  0  -0.105394  -0.214406  0  4.026786  0
C  C117  1  0.36415853  0.02967465  0.09928652  1  0  -0.186546  0  3.768734  0  0  -0.216248  0  4.036304  0  0  -0.220532  0  4.053784  0  0  -0.105393  -0.214294  0  4.026812  0
C  C118  1  0.13584569  0.52967865  0.09928580  1  0  -0.18658  0  3.768957  0  0  -0.216284  0  4.036517  0  0  -0.220569  0  4.053976  0  0  -0.105426  -0.214429  0  4.027241  0
C  C119  1  0.63585685  0.97032416  0.90071612  1  0  -0.186425  0  3.768673  0  0  -0.216173  0  4.0362  0  0  -0.220361  0  4.053491  0  0  -0.105409  -0.214115  0  4.026405  0
S  S120  1  0.78514250  0.53370361  0.68608732  1  0  0.036948  0  2.780793  0  0  0.045844  0  3.187089  0  0  0.046405  0  3.178816  0  0  -0.024091  0.045164  0  3.19273  0
S  S121  1  0.28514247  0.96629227  0.31390907  1  0  0.03689  0  2.780926  0  0  0.045773  0  3.187213  0  0  0.046286  0  3.178981  0  0  -0.024155  0.045099  0  3.192857  0
S  S122  1  0.21485531  0.46629807  0.31391163  1  0  0.03696  0  2.780796  0  0  0.045884  0  3.187077  0  0  0.046446  0  3.178803  0  0  -0.024081  0.04521  0  3.192714  0
S  S123  1  0.71485129  0.03370067  0.68608458  1  0  0.036944  0  2.78085  0  0  0.045872  0  3.187169  0  0  0.046434  0  3.178891  0  0  -0.024114  0.045192  0  3.192814  0
S  S124  1  0.27424876  0.59426006  0.68483978  1  0  0.058906  0  2.81509  0  0  0.071273  0  3.230503  0  0  0.072053  0  3.218962  0  0  -0.010925  0.07011  0  3.238695  0
S  S125  1  0.77425159  0.90574095  0.31515964  1  0  0.058949  0  2.815081  0  0  0.071302  0  3.230462  0  0  0.072034  0  3.218972  0  0  -0.01089  0.070141  0  3.238675  0
S  S126  1  0.72574500  0.40574239  0.31516454  1  0  0.058936  0  2.815063  0  0  0.071274  0  3.23042  0  0  0.072056  0  3.218887  0  0  -0.010921  0.070113  0  3.238602  0
S  S127  1  0.22575298  0.09425490  0.68483536  1  0  0.058928  0  2.815105  0  0  0.071271  0  3.230506  0  0  0.072062  0  3.218965  0  0  -0.010932  0.07011  0  3.238696  0
I  I128  1  0.07864146  0.34525458  0.46057493  1  0  -0.388179  0  1.471414  0  0  -0.335794  0  1.858114  0  0  -0.352795  0  1.826928  0  0  -0.19412  -0.323669  0  1.878636  0
I  I129  1  0.57863913  0.15474523  0.53942280  1  0  -0.388198  0  1.471434  0  0  -0.335773  0  1.858092  0  0  -0.352777  0  1.826906  0  0  -0.194118  -0.323654  0  1.878615  0
I  I130  1  0.92136041  0.65474784  0.53942562  1  0  -0.388187  0  1.471365  0  0  -0.335783  0  1.858042  0  0  -0.352782  0  1.826857  0  0  -0.194115  -0.323659  0  1.878563  0
I  I131  1  0.42136679  0.84524989  0.46057187  1  0  -0.388192  0  1.471344  0  0  -0.335769  0  1.858006  0  0  -0.35277  0  1.826815  0  0  -0.194105  -0.323647  0  1.878526  0
F  F132  1  0.93459375  0.91740201  0.02256025  1  0  -0.23273  0  1.214341  0  0  -0.171258  0  1.378091  0  0  -0.182505  0  1.369794  0  0  -0.098032  -0.163669  0  1.384091  0
F  F133  1  0.43461004  0.58259499  0.97743999  1  0  -0.232691  0  1.214326  0  0  -0.171274  0  1.37806  0  0  -0.182035  0  1.369878  0  0  -0.098023  -0.158602  0  1.377934  0
F  F134  1  0.06538920  0.08259394  0.97744607  1  0  -0.232681  0  1.214251  0  0  -0.171329  0  1.377993  0  0  -0.182118  0  1.369789  0  0  -0.098068  -0.158525  0  1.377621  0
F  F135  1  0.56537426  0.41740813  0.02255775  1  0  -0.232736  0  1.214166  0  0  -0.171353  0  1.377948  0  0  -0.18211  0  1.369763  0  0  -0.098045  -0.158658  0  1.377812  0
F  F136  1  0.95096246  0.32575723  0.90286811  1  0  -0.222691  0  1.214734  0  0  -0.160651  0  1.372015  0  0  -0.171832  0  1.364527  0  0  -0.096122  -0.147542  0  1.371281  0
F  F137  1  0.45098752  0.17424099  0.09713659  1  0  -0.222683  0  1.214857  0  0  -0.160703  0  1.372197  0  0  -0.171911  0  1.364736  0  0  -0.096143  -0.147554  0  1.371441  0
F  F138  1  0.04903265  0.67424518  0.09713244  1  0  -0.222708  0  1.214726  0  0  -0.160688  0  1.372044  0  0  -0.171891  0  1.364561  0  0  -0.096126  -0.147547  0  1.371275  0
F  F139  1  0.54903056  0.82576001  0.90286832  1  0  -0.222705  0  1.214799  0  0  -0.160715  0  1.372126  0  0  -0.171927  0  1.364635  0  0  -0.096133  -0.147515  0  1.3712  0
