# generated using pymatgen
data_Cu2H16C13N4O7
_symmetry_space_group_name_H-M   'P 1'
_cell_length_a   9.70225910
_cell_length_b   9.83977993
_cell_length_c   9.99247451
_cell_angle_alpha   84.18550862
_cell_angle_beta   73.76873074
_cell_angle_gamma   79.04218700
_symmetry_Int_Tables_number   1
_chemical_formula_structural   Cu2H16C13N4O7
_chemical_formula_sum   'Cu4 H32 C26 N8 O14'
_cell_volume   898.06366754
_cell_formula_units_Z   2
loop_
 _symmetry_equiv_pos_site_id
 _symmetry_equiv_pos_as_xyz
  1  'x, y, z'
loop_
 _atom_site_type_symbol
 _atom_site_label
 _atom_site_symmetry_multiplicity
 _atom_site_fract_x
 _atom_site_fract_y
 _atom_site_fract_z
 _atom_site_occupancy
 _atom_site_pbe_cm5_charge
 _atom_site_pbe_ddec_charge
 _atom_site_pbe_ddec_spin_density
 _atom_site_pbe_ddec_sum_bond_order
 _atom_site_pbe_magmom
Cu  Cu0  1  0.15927127  0.05293296  0.93133036  1  0.699156  0.702976  -0.002303  2.256317  -0.003
Cu  Cu1  1  0.84093459  0.94708299  0.06781759  1  0.716743  0.732331  -0.646017  2.247461  -0.489
Cu  Cu2  1  0.52655772  0.63405598  0.07651758  1  0.699142  0.706409  0.002576  2.248089  0.004
Cu  Cu3  1  0.47297020  0.36585245  0.92429446  1  0.716188  0.735337  0.646247  2.240164  0.49
H  H4  1  0.07441681  0.21415779  0.74849885  1  0.29238  0.293526  2e-06  0.977119  0.0
H  H5  1  0.92628149  0.78573734  0.25060428  1  0.292589  0.294567  -0.000313  0.977173  0.0
H  H6  1  0.97192066  0.09251091  0.80386231  1  0.287308  0.277321  -4.6e-05  1.015358  0.0
H  H7  1  0.02815580  0.90767423  0.19555656  1  0.287731  0.276861  -0.00086  1.015114  0.0
H  H8  1  0.52559638  0.40541495  0.19731847  1  0.287978  0.280589  6.9e-05  1.005685  0.0
H  H9  1  0.47447961  0.59449086  0.80304718  1  0.288426  0.28013  0.000904  1.00526  0.0
H  H10  1  0.62352422  0.48887599  0.26161443  1  0.29242  0.290656  3.3e-05  0.976905  0.0
H  H11  1  0.37602677  0.51151748  0.73914394  1  0.292312  0.291001  0.000354  0.977736  0.0
H  H12  1  0.11188491  0.08941384  0.55113722  1  0.101476  0.068729  -2e-06  0.963004  0.0
H  H13  1  0.88821068  0.91063037  0.44810766  1  0.101845  0.069561  -0.004764  0.963442  -0.005
H  H14  1  0.11539378  0.93156341  0.65474562  1  0.108879  0.08641  -0.000101  0.964715  0.0
H  H15  1  0.88444980  0.06845709  0.34465386  1  0.108992  0.086968  -0.0  0.964372  0.0
H  H16  1  0.34778754  0.11367954  0.61698571  1  0.099158  0.102325  -4e-05  0.972108  0.0
H  H17  1  0.65173919  0.88653970  0.38296722  1  0.098769  0.102104  0.000113  0.972666  0.0
H  H18  1  0.36128249  0.99064916  0.49488500  1  0.095672  0.088258  -0.00012  1.018546  0.0
H  H19  1  0.63885815  0.00970144  0.50482589  1  0.095601  0.088087  0.000281  1.018536  0.0
H  H20  1  0.35322629  0.79968905  0.67413691  1  0.104122  0.0785  0.000145  1.002387  0.0
H  H21  1  0.64675797  0.20030048  0.32574641  1  0.103702  0.078029  -0.000287  1.001577  0.0
H  H22  1  0.50151014  0.88635328  0.65965658  1  0.103095  0.078315  1.3e-05  0.983237  0.0
H  H23  1  0.49836690  0.11422705  0.33962287  1  0.102681  0.07753  -0.003129  0.983473  -0.004
H  H24  1  0.18073073  0.74664681  0.33288312  1  0.107575  0.087967  -0.000169  0.978119  0.0
H  H25  1  0.81911372  0.25314494  0.66740414  1  0.106959  0.087323  0.000359  0.977612  0.0
H  H26  1  0.27123093  0.88112034  0.35288005  1  0.101699  0.076312  -1e-06  0.981576  0.0
H  H27  1  0.72892133  0.11835693  0.64804806  1  0.100976  0.075528  0.003008  0.981354  0.003
H  H28  1  0.47729919  0.70596219  0.39851591  1  0.092606  0.088325  0.000104  0.991921  0.0
H  H29  1  0.52276227  0.29336936  0.60158403  1  0.092548  0.088393  -0.000122  0.992508  0.0
H  H30  1  0.30815452  0.67781424  0.51380723  1  0.096786  0.1045  3.4e-05  1.025291  0.0
H  H31  1  0.69196293  0.32183886  0.48649437  1  0.096705  0.104378  -0.000166  1.024621  0.0
H  H32  1  0.41909941  0.45219343  0.44878384  1  0.099498  0.065821  -8e-06  0.994071  0.0
H  H33  1  0.58069195  0.54730600  0.55177003  1  0.09953  0.066011  0.004771  0.993863  0.006
H  H34  1  0.30419005  0.50235021  0.33624874  1  0.110768  0.091483  5.4e-05  0.960912  0.0
H  H35  1  0.69562537  0.49709899  0.66422083  1  0.11073  0.091274  0.000151  0.961311  0.0
C  C36  1  0.14979692  0.03357567  0.63919535  1  -0.069016  0.035653  -6.5e-05  3.897122  0.0
C  C37  1  0.85010402  0.96640991  0.36017857  1  -0.06795  0.036409  -0.001396  3.894217  0.001
C  C38  1  0.31544454  0.01493553  0.60516184  1  -0.161595  -0.205769  -0.000188  3.943975  0.0
C  C39  1  0.68436030  0.98513135  0.39462221  1  -0.161824  -0.205982  -0.003805  3.943902  -0.005
C  C40  1  0.38184254  0.89822212  0.69261289  1  -0.065659  0.001331  6.3e-05  3.944214  0.0
C  C41  1  0.61816545  0.10178169  0.30703814  1  -0.066899  0.002007  -0.001728  3.946905  0.0
C  C42  1  0.38920383  0.84000467  0.92939146  1  0.214769  0.354424  -7.6e-05  4.195172  0.0
C  C43  1  0.61106388  0.16008241  0.07080965  1  0.213864  0.357357  -0.000722  4.182673  -0.002
C  C44  1  0.31424226  0.86392892  0.08024806  1  0.214554  0.352774  9.6e-05  4.198506  0.0
C  C45  1  0.68584003  0.13640855  0.91964722  1  0.213356  0.355184  0.000518  4.186762  0.002
C  C46  1  0.28903032  0.77526041  0.31714442  1  -0.064485  0.006095  -7.1e-05  3.935865  0.0
C  C47  1  0.71076691  0.22450751  0.68329049  1  -0.065166  0.007537  0.001863  3.936967  0.0
C  C48  1  0.37274497  0.67383331  0.40432120  1  -0.16599  -0.213444  0.000155  3.93976  0.0
C  C49  1  0.62716867  0.32567848  0.59590387  1  -0.166006  -0.213527  0.003729  3.939985  0.005
C  C50  1  0.40066729  0.52450803  0.36141921  1  -0.068481  0.041183  5.5e-05  3.879486  0.0
C  C51  1  0.59909629  0.47499119  0.63907925  1  -0.068393  0.041747  0.001461  3.877384  -0.001
C  C52  1  0.18744646  0.44169745  0.08327695  1  0.099533  0.176112  0.001126  4.095108  -0.002
C  C53  1  0.81222850  0.55876164  0.91619309  1  0.100044  0.177125  0.001174  4.09407  0.001
C  C54  1  0.17388830  0.31872025  0.02254310  1  0.079439  0.14554  0.002296  4.237665  0.003
C  C55  1  0.82614629  0.68129714  0.97756296  1  0.078661  0.144553  -0.002226  4.24018  -0.003
C  C56  1  0.03072325  0.28353200  0.08796978  1  0.098499  0.176231  -0.001171  4.091489  -0.001
C  C57  1  0.96952254  0.71603614  0.91266030  1  0.098003  0.174436  -0.001109  4.096886  0.002
C  C58  1  0.94795354  0.38947750  0.18868879  1  0.1106  0.182264  0.000473  4.127948  0.001
C  C59  1  0.05223169  0.61053430  0.81165908  1  0.109867  0.181897  -0.005118  4.129498  -0.006
C  C60  1  0.04779093  0.49087166  0.18546241  1  0.110979  0.182685  0.005161  4.135711  0.006
C  C61  1  0.95220450  0.50952418  0.81422405  1  0.111069  0.182316  -0.000445  4.134414  -0.001
N  N62  1  0.07850720  0.10875656  0.76767602  1  -0.647263  -0.564668  -0.000275  3.446598  -0.001
N  N63  1  0.92171485  0.89123993  0.23167811  1  -0.64773  -0.568091  -0.065364  3.443689  -0.08
N  N64  1  0.32963149  0.92025409  0.84120563  1  -0.394462  -0.356351  -0.00062  3.524387  -0.001
N  N65  1  0.67072580  0.07910111  0.15867714  1  -0.399636  -0.367903  -0.058038  3.529343  -0.073
N  N66  1  0.36260100  0.77367937  0.16863881  1  -0.390115  -0.356553  0.000626  3.518953  0.001
N  N67  1  0.63665427  0.22668619  0.83158409  1  -0.395502  -0.368839  0.058429  3.523155  0.073
N  N68  1  0.52558449  0.49815802  0.23741013  1  -0.649156  -0.569308  0.000332  3.456135  0.001
N  N69  1  0.47416210  0.50181870  0.76313606  1  -0.648512  -0.571266  0.065132  3.453813  0.08
O  O70  1  0.20645375  0.96489730  0.10895753  1  -0.307436  -0.466574  -0.000235  2.341189  -0.001
O  O71  1  0.79427995  0.03565997  0.88989463  1  -0.314656  -0.480788  -0.042112  2.335515  -0.057
O  O72  1  0.49848104  0.74075219  0.89992814  1  -0.306352  -0.463581  0.0002  2.344566  0.0
O  O73  1  0.50171173  0.25972387  0.10115773  1  -0.31398  -0.478106  0.04056  2.340329  0.055
O  O74  1  0.30289816  0.49418775  0.04924313  1  -0.280246  -0.394371  0.047495  2.379466  0.065
O  O75  1  0.69673968  0.50657338  0.94927206  1  -0.277267  -0.390185  0.000708  2.379087  0.002
O  O76  1  0.27121857  0.25319448  0.92794335  1  -0.296909  -0.451874  0.000731  2.319166  0.002
O  O77  1  0.72918534  0.74713104  0.07217041  1  -0.296584  -0.451216  -0.000629  2.319123  -0.001
O  O78  1  0.98912570  0.17819930  0.05874224  1  -0.280898  -0.391465  -0.000646  2.374239  -0.002
O  O79  1  0.01119224  0.82104707  0.94270693  1  -0.282612  -0.393865  -0.047321  2.377184  -0.064
O  O80  1  0.82094834  0.39454026  0.26328486  1  -0.27947  -0.397981  0.000365  2.217755  0.0
O  O81  1  0.17929660  0.60541978  0.73708747  1  -0.280199  -0.398868  -0.002203  2.217648  -0.002
O  O82  1  0.01746860  0.59424661  0.25664254  1  -0.283302  -0.394937  0.002373  2.187603  0.003
O  O83  1  0.98236933  0.40630351  0.74293542  1  -0.282231  -0.393183  -0.000328  2.186108  0.0
