# generated using pymatgen
data_Ni2H31C15(N2Cl)3
_symmetry_space_group_name_H-M   'P 1'
_cell_length_a   11.08253775
_cell_length_b   11.08453229
_cell_length_c   11.84685160
_cell_angle_alpha   107.99544465
_cell_angle_beta   110.97858958
_cell_angle_gamma   106.61588259
_symmetry_Int_Tables_number   1
_chemical_formula_structural   Ni2H31C15(N2Cl)3
_chemical_formula_sum   'Ni4 H62 C30 N12 Cl6'
_cell_volume   1156.36501804
_cell_formula_units_Z   2
loop_
 _symmetry_equiv_pos_site_id
 _symmetry_equiv_pos_as_xyz
  1  'x, y, z'
loop_
 _atom_site_type_symbol
 _atom_site_label
 _atom_site_symmetry_multiplicity
 _atom_site_fract_x
 _atom_site_fract_y
 _atom_site_fract_z
 _atom_site_occupancy
 _atom_site_hle17_ddec_charge
 _atom_site_hle17_ddec_spin_density
 _atom_site_hle17_ddec_sum_bond_order
 _atom_site_hle17_magmom
 _atom_site_hse06_10hf_ddec_charge
 _atom_site_hse06_10hf_ddec_spin_density
 _atom_site_hse06_10hf_ddec_sum_bond_order
 _atom_site_hse06_10hf_magmom
 _atom_site_hse06_ddec_charge
 _atom_site_hse06_ddec_spin_density
 _atom_site_hse06_ddec_sum_bond_order
 _atom_site_hse06_magmom
 _atom_site_pbe_cm5_charge
 _atom_site_pbe_ddec_charge
 _atom_site_pbe_ddec_spin_density
 _atom_site_pbe_ddec_sum_bond_order
 _atom_site_pbe_magmom
Ni  Ni0  1  0.01128134  0.55821299  0.17243847  1  0.592339  1.692301  2.092659  1.391  0.60515  1.768812  2.456715  1.536  0.712099  1.856404  2.385495  1.651  0.506349  0.530229  1.686145  2.508102  1.439
Ni  Ni1  1  0.11425886  0.16108904  0.67229382  1  0.592774  -1.692325  2.091749  -1.392  0.605722  -1.768909  2.456031  -1.536  0.712657  -1.856496  2.384812  -1.651  0.506438  0.531246  -1.686528  2.506904  -1.439
Ni  Ni2  1  0.98871379  0.44178923  0.82756122  1  0.592499  1.692292  2.092555  1.391  0.605292  1.768809  2.456546  1.536  0.712276  1.85638  2.385238  1.651  0.506415  0.530344  1.686119  2.507995  1.439
Ni  Ni3  1  0.88574358  0.83891004  0.32771160  1  0.59276  -1.692327  2.091734  -1.392  0.605712  -1.768911  2.455995  -1.536  0.712591  -1.856481  2.384741  -1.651  0.506423  0.53122  -1.686533  2.506882  -1.439
H  H4  1  0.75970590  0.20133049  0.15189335  1  0.069052  0.00244  0.915868  0.003  0.086604  0.001698  0.97445  0.002  0.087276  0.001117  0.97361  0.001  0.100047  0.086154  0.002254  0.97512  0.003
H  H5  1  0.45055172  0.39211214  0.65160275  1  0.068807  -0.002433  0.91666  -0.003  0.087268  -0.001696  0.974668  -0.002  0.08797  -0.001116  0.973814  -0.001  0.100516  0.08688  -0.002226  0.975153  -0.003
H  H6  1  0.24029354  0.79867064  0.84810154  1  0.069038  0.002432  0.915908  0.003  0.086614  0.001698  0.974458  0.002  0.087295  0.001117  0.973614  0.001  0.10004  0.08616  0.002255  0.975135  0.003
H  H7  1  0.54944836  0.60788804  0.34840980  1  0.068857  -0.002435  0.916635  -0.003  0.087323  -0.001696  0.974634  -0.002  0.08802  -0.001116  0.973781  -0.001  0.100543  0.086935  -0.002226  0.975118  -0.003
H  H8  1  0.72779115  0.24759229  0.01598836  1  0.085272  1.7e-05  0.927704  0.0  0.102386  1.5e-05  0.985977  0.0  0.104255  -2e-06  0.984131  0.0  0.106651  0.100639  -4e-06  0.987983  0.0
H  H9  1  0.26874650  0.28802496  0.51553810  1  0.084803  -1.6e-05  0.928096  0.0  0.102059  -1.5e-05  0.986738  0.0  0.10389  1e-06  0.984933  0.0  0.106905  0.100387  2.4e-05  0.98857  0.0
H  H10  1  0.27220636  0.75241309  0.98400965  1  0.085281  1.1e-05  0.927694  0.0  0.102389  1.5e-05  0.985963  0.0  0.104234  -2e-06  0.984152  0.0  0.106652  0.100637  -4e-06  0.987971  0.0
H  H11  1  0.73125547  0.71197732  0.48447146  1  0.084781  -2.1e-05  0.928169  0.0  0.10207  -1.5e-05  0.986782  0.0  0.103879  1e-06  0.984998  0.0  0.106893  0.1004  2.4e-05  0.988613  0.0
H  H12  1  0.04345163  0.26700074  0.29714502  1  0.073536  0.001487  0.932661  0.003  0.090342  0.000921  0.994013  0.002  0.091325  0.000602  0.992649  0.001  0.098494  0.08958  0.001237  0.994848  0.002
H  H13  1  0.53023860  0.25391534  0.79696730  1  0.073716  -0.001481  0.932528  -0.003  0.090871  -0.000926  0.993617  -0.002  0.091886  -0.000606  0.99224  -0.001  0.098561  0.090039  -0.001228  0.994582  -0.002
H  H14  1  0.95654780  0.73300251  0.70284963  1  0.073641  0.001483  0.932642  0.003  0.090408  0.000921  0.994019  0.002  0.091395  0.000602  0.992647  0.001  0.098499  0.089647  0.001236  0.994855  0.002
H  H15  1  0.46976667  0.74609007  0.20303497  1  0.073718  -0.001486  0.932516  -0.003  0.090846  -0.000925  0.993629  -0.002  0.09186  -0.000606  0.992255  -0.001  0.098541  0.090013  -0.001228  0.994593  -0.002
H  H16  1  0.98871633  0.39480948  0.36073189  1  0.072653  -0.000122  0.950584  0.0  0.089998  -0.000133  1.011915  0.0  0.09035  -9.9e-05  1.012337  0.0  0.10836  0.089637  -0.000155  1.011795  0.0
H  H17  1  0.46579639  0.37208628  0.86044105  1  0.073156  0.000124  0.95082  0.0  0.090265  0.000132  1.012423  0.0  0.090632  9.8e-05  1.012857  0.0  0.108583  0.089872  0.000176  1.012287  0.0
H  H18  1  0.01128167  0.60519059  0.63926307  1  0.072634  -0.000126  0.950635  0.0  0.090012  -0.000133  1.011912  0.0  0.090365  -9.9e-05  1.012333  0.0  0.10836  0.08965  -0.000155  1.011792  0.0
H  H19  1  0.53420792  0.62791913  0.13956259  1  0.073155  0.000118  0.950841  0.0  0.090258  0.000132  1.012444  0.0  0.090623  9.9e-05  1.012876  0.0  0.108587  0.089865  0.000176  1.012308  0.0
H  H20  1  0.25896915  0.49487164  0.46120370  1  0.060127  0.002005  0.929265  0.003  0.079359  0.001426  0.989393  0.002  0.078964  0.000943  0.990379  0.001  0.098438  0.079678  0.00184  0.988723  0.002
H  H21  1  0.46648995  0.20256572  0.96139166  1  0.060307  -0.00201  0.929143  -0.003  0.07938  -0.001429  0.989491  -0.002  0.078933  -0.000946  0.99056  -0.001  0.098585  0.079822  -0.001908  0.988606  -0.002
H  H22  1  0.74102596  0.50513056  0.53879345  1  0.06006  0.002005  0.929244  0.003  0.079368  0.001426  0.989288  0.002  0.078972  0.000944  0.990278  0.001  0.098452  0.079693  0.00184  0.98862  0.002
H  H23  1  0.53351585  0.79743441  0.03861349  1  0.060306  -0.00201  0.929202  -0.003  0.079364  -0.001429  0.989554  -0.002  0.078917  -0.000946  0.990623  -0.001  0.098587  0.079809  -0.001908  0.988664  -0.002
H  H24  1  0.23652279  0.45610677  0.29486374  1  0.070441  0.0  0.931783  0.0  0.088335  -4e-06  0.990797  0.0  0.089124  -1.1e-05  0.990044  0.0  0.105123  0.087573  -3e-06  0.991567  0.0
H  H25  1  0.33934190  0.05871026  0.79517417  1  0.070608  -1e-06  0.930776  0.0  0.088586  4e-06  0.989817  0.0  0.089347  1.1e-05  0.989103  0.0  0.105059  0.087896  1.4e-05  0.990498  0.0
H  H26  1  0.76347668  0.54389651  0.70513600  1  0.070458  2e-06  0.931765  0.0  0.08834  -4e-06  0.990802  0.0  0.089128  -1.1e-05  0.990051  0.0  0.105144  0.087597  -3e-06  0.99155  0.0
H  H27  1  0.66066579  0.94129410  0.20482859  1  0.07051  1e-06  0.930787  0.0  0.088504  4e-06  0.989818  0.0  0.089265  1.1e-05  0.989103  0.0  0.105021  0.087814  1.5e-05  0.990497  0.0
H  H28  1  0.07677074  0.28406386  0.08439815  1  0.095253  0.000186  0.960526  0.001  0.115665  0.000132  1.02383  0.0  0.115971  7.2e-05  1.024343  0.0  0.095641  0.115305  0.000185  1.02364  0.001
H  H29  1  0.30065373  0.00781350  0.58466190  1  0.095638  -0.000194  0.960296  -0.001  0.115989  -0.000132  1.023458  0.0  0.11636  -7.2e-05  1.023912  0.0  0.095933  0.115587  -0.000186  1.023325  -0.001
H  H30  1  0.92322577  0.71593724  0.91559239  1  0.095264  0.000196  0.960564  0.001  0.115633  0.000132  1.023908  0.0  0.115939  7.2e-05  1.02442  0.0  0.095623  0.115275  0.000185  1.023718  0.001
H  H31  1  0.69934776  0.99218346  0.41534429  1  0.095728  -0.000195  0.960332  -0.001  0.116099  -0.000132  1.023461  0.0  0.11647  -7.2e-05  1.023915  0.0  0.095968  0.115697  -0.000186  1.023323  -0.001
H  H32  1  0.90121598  0.23326513  0.95812100  1  0.104653  -0.000738  0.998352  0.001  0.119248  -0.000773  1.0675  0.0  0.120494  -0.000627  1.066553  0.0  0.086093  0.117966  -0.000925  1.068855  0.0
H  H33  1  0.22511719  0.05692912  0.45815056  1  0.104966  0.000727  0.998087  -0.001  0.119462  0.000768  1.067285  0.0  0.12071  0.000623  1.066344  0.0  0.086371  0.118179  0.000923  1.068635  0.0
H  H34  1  0.09877719  0.76673705  0.04187381  1  0.104613  -0.000734  0.998436  0.001  0.119207  -0.000773  1.06756  0.0  0.120451  -0.000626  1.06661  0.0  0.086066  0.117923  -0.000925  1.068926  0.0
H  H35  1  0.77488623  0.94306785  0.54185457  1  0.105023  0.000723  0.997992  -0.001  0.11947  0.000767  1.067253  0.0  0.120717  0.000622  1.066315  0.0  0.086355  0.118179  0.000923  1.06863  0.0
H  H36  1  0.92776180  0.13674062  0.05471157  1  0.079561  0.002756  0.954901  0.004  0.104362  0.001824  1.014894  0.002  0.10416  0.001179  1.015671  0.002  0.089212  0.104449  0.00237  1.014571  0.003
H  H37  1  0.41813985  0.12688222  0.55457809  1  0.079552  -0.002753  0.953932  -0.004  0.104466  -0.001812  1.013994  -0.002  0.104333  -0.001171  1.014695  -0.001  0.089599  0.104515  -0.002352  1.013725  -0.003
H  H38  1  0.07223423  0.86326156  0.94528081  1  0.07956  0.002764  0.954889  0.004  0.104345  0.001824  1.014906  0.002  0.104141  0.00118  1.015683  0.002  0.089174  0.104434  0.002371  1.014582  0.003
H  H39  1  0.58186260  0.87311475  0.44542757  1  0.079605  -0.002752  0.954046  -0.004  0.104518  -0.001813  1.01409  -0.002  0.104387  -0.001171  1.014792  -0.001  0.089623  0.10457  -0.002352  1.013817  -0.003
H  H40  1  0.14337633  0.77468904  0.48299063  1  0.104435  0.000294  0.998454  0.001  0.119823  0.00013  1.066778  0.0  0.120241  0.000103  1.067188  0.0  0.089985  0.119279  0.000166  1.066811  0.0
H  H41  1  0.20796333  0.33951007  0.98256885  1  0.104345  -0.000285  0.998316  -0.001  0.119119  -0.00013  1.067524  0.0  0.119568  -0.000102  1.067922  0.0  0.089799  0.118543  -0.000165  1.067538  0.0
H  H42  1  0.85662166  0.22531315  0.51700409  1  0.10447  0.000284  0.998452  0.001  0.119853  0.00013  1.066804  0.0  0.120269  0.000103  1.06721  0.0  0.090011  0.119309  0.000166  1.066833  0.0
H  H43  1  0.79203657  0.66049210  0.01742311  1  0.104398  -0.00028  0.998309  -0.001  0.119222  -0.00013  1.067462  0.0  0.119669  -0.000103  1.067862  0.0  0.089848  0.118642  -0.000165  1.067476  0.0
H  H44  1  0.23415000  0.70041396  0.58000529  1  0.06918  0.002535  0.956204  0.003  0.087698  0.001628  1.027108  0.002  0.087918  0.001042  1.026935  0.001  0.083663  0.087575  0.002166  1.02729  0.002
H  H45  1  0.37913273  0.34586423  0.07987800  1  0.069411  -0.002526  0.954079  -0.003  0.088132  -0.001623  1.024961  -0.002  0.088409  -0.001038  1.024732  -0.001  0.083932  0.088111  -0.002149  1.024852  -0.002
H  H46  1  0.76584704  0.29958824  0.41999249  1  0.069291  0.002528  0.956233  0.003  0.087858  0.001628  1.027086  0.002  0.088079  0.001042  1.026914  0.001  0.083744  0.087734  0.002166  1.02727  0.002
H  H47  1  0.62087056  0.65414539  0.92012145  1  0.069447  -0.002526  0.954059  -0.003  0.088177  -0.001623  1.024931  -0.002  0.088443  -0.001038  1.024715  -0.001  0.083933  0.088153  -0.00215  1.024823  -0.002
H  H48  1  0.04532731  0.60446371  0.45891052  1  0.098511  3.6e-05  0.958618  0.0  0.116343  -1.7e-05  1.022273  0.0  0.116883  -2.5e-05  1.022837  0.0  0.100395  0.115974  -8e-06  1.021916  0.0
H  H49  1  0.35422119  0.41345824  0.95851923  1  0.098374  -2.5e-05  0.958896  0.0  0.116476  2.1e-05  1.022295  0.0  0.117018  2.7e-05  1.022866  0.0  0.100468  0.116004  2.2e-05  1.022126  0.0
H  H50  1  0.95466923  0.39553954  0.54108486  1  0.098552  3.3e-05  0.958495  0.0  0.11639  -1.7e-05  1.022163  0.0  0.116931  -2.5e-05  1.022725  0.0  0.100423  0.116023  -8e-06  1.021803  0.0
H  H51  1  0.64578065  0.58654395  0.04147592  1  0.098447  -2.8e-05  0.958944  0.0  0.116596  2.1e-05  1.022275  0.0  0.117143  2.7e-05  1.022849  0.0  0.100479  0.11612  2.3e-05  1.022104  0.0
H  H52  1  0.35373337  0.67793579  0.33003899  1  0.089222  0.000711  0.993119  0.0  0.104614  0.000685  1.065833  0.0  0.106121  0.000483  1.064504  0.0  0.088114  0.103535  0.00087  1.066638  0.001
H  H53  1  0.15254676  0.97655139  0.83045885  1  0.089355  -0.000715  0.993016  0.0  0.104931  -0.000687  1.065353  0.0  0.106418  -0.000484  1.064072  0.0  0.088167  0.103865  -0.000877  1.066103  -0.001
H  H54  1  0.64626370  0.32206431  0.66996073  1  0.089215  0.000707  0.993047  0.0  0.104574  0.000685  1.065797  0.0  0.106081  0.000483  1.064468  0.0  0.088094  0.103494  0.00087  1.066605  0.001
H  H55  1  0.84746427  0.02345188  0.16953880  1  0.089348  -0.000707  0.992971  0.0  0.104904  -0.000687  1.065331  0.0  0.106392  -0.000484  1.064047  0.0  0.088174  0.103843  -0.000877  1.066085  -0.001
H  H56  1  0.40903440  0.74722859  0.50877140  1  0.071793  0.003186  0.933802  0.004  0.091304  0.002409  0.998107  0.003  0.092039  0.001636  0.997439  0.002  0.08594  0.090541  0.00313  0.999206  0.003
H  H57  1  0.26185337  0.09995152  0.00912739  1  0.072876  -0.003188  0.932174  -0.004  0.091638  -0.002407  0.997338  -0.003  0.092419  -0.001634  0.996627  -0.002  0.086153  0.090819  -0.003116  0.99847  -0.003
H  H58  1  0.59096219  0.25277044  0.49122702  1  0.071789  0.003188  0.93383  0.004  0.091316  0.002409  0.998119  0.003  0.092051  0.001636  0.997452  0.002  0.085957  0.090554  0.00313  0.999216  0.003
H  H59  1  0.73815719  0.90005070  0.99087148  1  0.072835  -0.003185  0.932146  -0.004  0.091612  -0.002407  0.997296  -0.003  0.092393  -0.001635  0.996584  -0.002  0.086155  0.090795  -0.003116  0.998428  -0.003
H  H60  1  0.31740128  0.81812746  0.40806857  1  0.10684  0.000126  0.951414  0.001  0.128706  3.4e-05  1.008606  0.001  0.129525  -2e-06  1.008607  0.0  0.098254  0.128012  -1.3e-05  1.008804  0.001
H  H61  1  0.09025701  0.09079629  0.90845443  1  0.106902  -0.000124  0.951381  -0.001  0.128905  -3.2e-05  1.008423  -0.001  0.129719  4e-06  1.008426  0.0  0.098419  0.128192  1.9e-05  1.008656  -0.001
H  H62  1  0.68259865  0.18187686  0.59192909  1  0.106835  0.000126  0.951444  0.001  0.128712  3.4e-05  1.00861  0.001  0.129531  -3e-06  1.008612  0.0  0.098267  0.128021  -1.3e-05  1.008808  0.001
H  H63  1  0.90975214  0.90920064  0.09154414  1  0.106853  -0.00012  0.951244  -0.001  0.128845  -3.2e-05  1.00833  -0.001  0.129655  4e-06  1.008337  0.0  0.098413  0.128132  1.9e-05  1.008561  -0.001
H  H64  1  0.59320360  0.34341108  0.25025443  1  0.116881  -1e-06  0.975646  0.0  0.126864  1e-06  1.03628  0.0  0.13151  1e-06  1.032425  0.0  0.094147  0.123066  -2.4e-05  1.039981  0.0
H  H65  1  0.40679549  0.65657633  0.74974569  1  0.116892  0.0  0.975703  0.0  0.126854  1e-06  1.036367  0.0  0.131496  1e-06  1.032514  0.0  0.094119  0.123052  -2.4e-05  1.040068  0.0
C  C66  1  0.77013970  0.41056344  0.19971440  1  0.15269  -0.003519  3.791856  -0.004  0.149992  -0.001345  4.059192  -0.002  0.160498  -0.001356  4.07755  -0.002  0.069706  0.14266  -0.00111  4.047414  -0.001
C  C67  1  0.28881596  0.42923936  0.69902031  1  0.153385  0.003453  3.790756  0.004  0.15153  0.001306  4.057853  0.002  0.162004  0.001319  4.076199  0.002  0.070296  0.144391  0.001061  4.04582  0.001
C  C68  1  0.22985643  0.58943454  0.80028525  1  0.152714  -0.003528  3.79161  -0.004  0.149933  -0.001345  4.058982  -0.002  0.160447  -0.001356  4.07734  -0.002  0.069651  0.142599  -0.001109  4.047206  -0.001
C  C69  1  0.71118216  0.57075230  0.30098324  1  0.153454  0.003463  3.790944  0.004  0.15167  0.001305  4.057941  0.002  0.162141  0.001317  4.076278  0.002  0.070278  0.144529  0.00106  4.045912  0.001
C  C70  1  0.79218511  0.28920430  0.12679026  1  -0.063424  -0.002686  3.675001  -0.005  -0.121295  -0.000504  3.929404  -0.003  -0.117548  -0.000646  3.939897  -0.002  -0.061634  -0.124054  -0.000357  3.922891  -0.003
C  C71  1  0.33757700  0.33443546  0.62638244  1  -0.063215  0.002663  3.675608  0.005  -0.122992  0.000504  3.932136  0.003  -0.119242  0.000645  3.942625  0.002  -0.062372  -0.125692  0.000348  3.925327  0.003
C  C72  1  0.20781388  0.71079579  0.87320671  1  -0.063503  -0.002658  3.674988  -0.005  -0.121372  -0.000505  3.92941  -0.003  -0.117633  -0.000645  3.939948  -0.002  -0.061638  -0.124115  -0.000357  3.922878  -0.003
C  C73  1  0.66242161  0.66556363  0.37362594  1  -0.063267  0.002684  3.675631  0.005  -0.123105  0.000505  3.932155  0.003  -0.119329  0.000645  3.942632  0.002  -0.062392  -0.125805  0.000348  3.925349  0.003
C  C74  1  0.03856105  0.36544375  0.29846147  1  -0.037195  -0.00145  3.630585  -0.003  -0.093355  -2.8e-05  3.888422  -0.001  -0.0897  -0.00033  3.902271  -0.002  -0.072297  -0.095553  0.000255  3.878422  -0.001
C  C75  1  0.43309493  0.26004608  0.79834603  1  -0.038974  0.001407  3.631297  0.003  -0.095615  1.7e-05  3.890518  0.001  -0.092048  0.00032  3.904501  0.002  -0.072695  -0.097754  -0.000226  3.880518  0.001
C  C76  1  0.96143597  0.63455844  0.70153293  1  -0.03731  -0.001434  3.630611  -0.003  -0.093445  -2.8e-05  3.888387  -0.001  -0.089791  -0.00033  3.902235  -0.002  -0.072274  -0.095642  0.000255  3.878396  -0.001
C  C77  1  0.56690844  0.73995510  0.20165692  1  -0.038995  0.001437  3.631051  0.003  -0.095614  1.7e-05  3.890241  0.001  -0.092045  0.000318  3.904214  0.002  -0.072709  -0.097759  -0.000226  3.880263  0.001
C  C78  1  0.18879134  0.48238253  0.36033067  1  -0.030901  -0.000634  3.642143  -0.002  -0.087545  0.000635  3.900768  -0.001  -0.084244  6.7e-05  3.916016  -0.001  -0.071547  -0.089702  0.00116  3.890182  0.0
C  C79  1  0.37821644  0.17179739  0.86045790  1  -0.031129  0.00064  3.641471  0.002  -0.087708  -0.000639  3.900986  0.001  -0.084408  -7.3e-05  3.916359  0.001  -0.071577  -0.0899  -0.001128  3.890211  0.0
C  C80  1  0.81120763  0.51761967  0.63966691  1  -0.030907  -0.000636  3.642129  -0.002  -0.087621  0.000636  3.900737  -0.001  -0.084327  6.7e-05  3.915993  -0.001  -0.071643  -0.089799  0.00116  3.890157  0.0
C  C81  1  0.62179077  0.82820803  0.13954670  1  -0.030961  0.000632  3.641346  0.002  -0.087558  -0.000638  3.90082  0.001  -0.084257  -7.2e-05  3.916188  0.001  -0.071533  -0.089749  -0.001127  3.89004  0.0
C  C82  1  0.67527795  0.42535242  0.25030517  1  -0.337451  1.2e-05  3.783778  0.0  -0.357903  2e-06  4.040239  0.0  -0.365568  3e-06  4.053035  0.0  -0.140968  -0.353122  0.000128  4.032793  0.0
C  C83  1  0.32472106  0.57464557  0.74969459  1  -0.337446  1.8e-05  3.783596  0.0  -0.357855  1e-06  4.040119  0.0  -0.365516  1e-06  4.05291  0.0  -0.14097  -0.353071  0.000127  4.032671  0.0
C  C84  1  0.96300579  0.24226553  0.05838400  1  -0.197337  -0.002353  3.682395  -0.005  -0.293908  -0.000641  3.93693  -0.003  -0.290606  -0.000839  3.950006  -0.003  -0.159056  -0.295926  -0.00042  3.928109  -0.003
C  C85  1  0.31635013  0.09542981  0.55840035  1  -0.198101  0.002387  3.680808  0.005  -0.294538  0.000644  3.93522  0.003  -0.291378  0.000839  3.948297  0.003  -0.159363  -0.296586  0.000437  3.92668  0.003
C  C86  1  0.03698980  0.75773348  0.94160985  1  -0.19731  -0.002389  3.68248  -0.005  -0.293826  -0.000642  3.937018  -0.003  -0.290525  -0.000839  3.950104  -0.003  -0.158972  -0.295848  -0.00042  3.928189  -0.003
C  C87  1  0.68364939  0.90456925  0.44160242  1  -0.198304  0.002397  3.681016  0.005  -0.294738  0.000645  3.935432  0.003  -0.291581  0.00084  3.948505  0.003  -0.159427  -0.296788  0.000436  3.926879  0.003
C  C88  1  0.15014370  0.67749459  0.48019676  1  -0.190809  -0.002045  3.657612  -0.004  -0.285495  -0.00046  3.914713  -0.002  -0.281905  -0.000679  3.92706  -0.002  -0.159997  -0.287576  -0.000168  3.90584  -0.002
C  C89  1  0.30246986  0.33003280  0.97995733  1  -0.190406  0.002016  3.654812  0.004  -0.285012  0.000468  3.91236  0.002  -0.281534  0.000684  3.924635  0.002  -0.160055  -0.286946  0.000197  3.903471  0.002
C  C90  1  0.84985093  0.32250654  0.51979907  1  -0.190977  -0.002009  3.657672  -0.004  -0.285757  -0.00046  3.91477  -0.002  -0.282167  -0.000678  3.927117  -0.002  -0.160121  -0.287843  -0.000168  3.905901  -0.002
C  C91  1  0.69753154  0.66997047  0.02004220  1  -0.19061  0.002013  3.655036  0.004  -0.285346  0.000468  3.912517  0.002  -0.281866  0.000685  3.924803  0.002  -0.160125  -0.287269  0.000197  3.90362  0.002
C  C92  1  0.32507345  0.72148881  0.40742841  1  -0.195765  -0.00072  3.691046  -0.003  -0.290024  0.00114  3.948071  -0.001  -0.286965  0.000583  3.960253  -0.001  -0.157148  -0.29203  0.001622  3.939819  -0.001
C  C93  1  0.18625638  0.08254211  0.90774296  1  -0.196981  0.000739  3.691562  0.003  -0.290678  -0.001138  3.948375  0.001  -0.287611  -0.000581  3.960474  0.001  -0.15753  -0.292672  -0.001584  3.940249  0.001
C  C94  1  0.67492456  0.27851128  0.59256824  1  -0.195715  -0.000722  3.691041  -0.003  -0.289993  0.00114  3.948042  -0.001  -0.286932  0.000584  3.960218  -0.001  -0.157153  -0.291992  0.001622  3.939771  -0.001
C  C95  1  0.81374552  0.91746011  0.09225727  1  -0.196761  0.000713  3.691224  0.003  -0.290467  -0.001138  3.948031  0.001  -0.287399  -0.000581  3.960129  0.001  -0.157493  -0.292477  -0.001583  3.939909  0.001
N  N96  1  0.85479812  0.53870395  0.21957857  1  -0.232649  0.058504  3.341912  0.085  -0.202724  0.039313  3.644808  0.059  -0.231927  0.032834  3.675194  0.05  -0.271059  -0.183416  0.043354  3.62565  0.063
N  N97  1  0.18046207  0.36451683  0.71886059  1  -0.233882  -0.058454  3.342603  -0.085  -0.204644  -0.039267  3.645739  -0.058  -0.233822  -0.032782  3.676105  -0.05  -0.272356  -0.185519  -0.043041  3.626527  -0.062
N  N98  1  0.14519516  0.46129618  0.78042750  1  -0.232708  0.058494  3.3417  0.085  -0.202622  0.039311  3.644444  0.059  -0.231829  0.032834  3.674813  0.05  -0.271005  -0.183318  0.04335  3.625305  0.063
N  N99  1  0.81953604  0.63548544  0.28114854  1  -0.233858  -0.058464  3.342683  -0.085  -0.204598  -0.039265  3.645828  -0.058  -0.233763  -0.032781  3.676163  -0.05  -0.272289  -0.185475  -0.043038  3.626611  -0.062
N  N100  1  0.94560827  0.34112524  0.15962727  1  -0.12599  0.068378  3.255393  0.101  -0.056391  0.046575  3.518967  0.072  -0.087568  0.035437  3.551032  0.057  -0.327765  -0.034609  0.054034  3.496546  0.08
N  N101  1  0.31861783  0.21404697  0.65950166  1  -0.124372  -0.068125  3.253236  -0.101  -0.054266  -0.04645  3.517558  -0.071  -0.085374  -0.035347  3.549605  -0.057  -0.328118  -0.032579  -0.05392  3.495181  -0.08
N  N102  1  0.05439021  0.65887802  0.84036961  1  -0.125926  0.06838  3.255348  0.101  -0.056332  0.046578  3.518879  0.072  -0.087504  0.035441  3.550938  0.057  -0.327749  -0.034547  0.054038  3.496457  0.08
N  N103  1  0.68138364  0.78595423  0.34050575  1  -0.124329  -0.068145  3.253018  -0.101  -0.054207  -0.046453  3.51731  -0.071  -0.085302  -0.035349  3.549327  -0.057  -0.328061  -0.032517  -0.05392  3.494925  -0.08
N  N104  1  0.18395222  0.61753275  0.37278070  1  -0.097763  0.069663  3.293118  0.103  -0.021298  0.045238  3.554944  0.069  -0.053193  0.034423  3.588554  0.055  -0.342011  0.001142  0.053092  3.531239  0.079
N  N105  1  0.25536266  0.18888499  0.87279334  1  -0.098199  -0.069587  3.293707  -0.103  -0.021613  -0.045188  3.555607  -0.069  -0.053414  -0.034383  3.588999  -0.055  -0.341909  0.000562  -0.053129  3.532149  -0.079
N  N106  1  0.81604579  0.38246945  0.62721656  1  -0.09779  0.069658  3.29312  0.103  -0.021261  0.045237  3.554901  0.069  -0.053155  0.034424  3.588498  0.055  -0.342014  0.001175  0.053093  3.531212  0.079
N  N107  1  0.74464407  0.81111724  0.12720765  1  -0.098386  -0.069579  3.293723  -0.103  -0.021714  -0.045186  3.555543  -0.069  -0.053502  -0.034382  3.58891  -0.055  -0.34198  0.000463  -0.053127  3.532081  -0.079
Cl  Cl108  1  0.06124652  0.81137158  0.24996769  1  -0.472329  -9.8e-05  1.10791  0.0  -0.475383  -2.7e-05  1.396321  0.0  -0.511991  -2e-05  1.370731  0.0  -0.241907  -0.448993  -4.2e-05  1.416117  0.0
Cl  Cl109  1  0.93874814  0.18862746  0.75003093  1  -0.472376  -9.9e-05  1.107883  0.0  -0.475404  -2.7e-05  1.396258  0.0  -0.512032  -2e-05  1.370669  0.0  -0.241908  -0.449009  -4.1e-05  1.416068  0.0
Cl  Cl110  1  0.16817111  0.55563407  0.07904372  1  -0.477173  0.099101  1.161749  0.133  -0.474412  0.069262  1.466923  0.09  -0.51033  0.053429  1.442857  0.07  -0.243242  -0.447299  0.082043  1.484087  0.106
Cl  Cl111  1  0.02353184  0.91101446  0.57925418  1  -0.477377  -0.099284  1.160897  -0.133  -0.474912  -0.069329  1.466399  -0.09  -0.510754  -0.053461  1.442142  -0.07  -0.243792  -0.448067  -0.082269  1.483326  -0.106
Cl  Cl112  1  0.83182593  0.44437238  0.92095613  1  -0.477202  0.099093  1.161761  0.133  -0.474416  0.069258  1.466911  0.09  -0.510335  0.053423  1.442843  0.07  -0.24326  -0.447308  0.082037  1.484081  0.106
Cl  Cl113  1  0.97646620  0.08898776  0.42074732  1  -0.477385  -0.099281  1.16084  -0.133  -0.474916  -0.069328  1.466329  -0.09  -0.510753  -0.053459  1.442069  -0.07  -0.243799  -0.448079  -0.082268  1.483261  -0.106
