# generated using pymatgen
data_CuH4C5SN3
_symmetry_space_group_name_H-M   'P 1'
_cell_length_a   5.65225389
_cell_length_b   5.81074388
_cell_length_c   10.35756528
_cell_angle_alpha   89.99793754
_cell_angle_beta   90.00066640
_cell_angle_gamma   99.10910366
_symmetry_Int_Tables_number   1
_chemical_formula_structural   CuH4C5SN3
_chemical_formula_sum   'Cu2 H8 C10 S2 N6'
_cell_volume   335.89165255
_cell_formula_units_Z   2
loop_
 _symmetry_equiv_pos_site_id
 _symmetry_equiv_pos_as_xyz
  1  'x, y, z'
loop_
 _atom_site_type_symbol
 _atom_site_label
 _atom_site_symmetry_multiplicity
 _atom_site_fract_x
 _atom_site_fract_y
 _atom_site_fract_z
 _atom_site_occupancy
 _atom_site_hle17_bader_spin_density
 _atom_site_hle17_ddec_charge
 _atom_site_hle17_ddec_spin_density
 _atom_site_hle17_ddec_sum_bond_order
 _atom_site_hle17_magmom
 _atom_site_hse06_10hf_bader_spin_density
 _atom_site_hse06_10hf_ddec_charge
 _atom_site_hse06_10hf_ddec_spin_density
 _atom_site_hse06_10hf_ddec_sum_bond_order
 _atom_site_hse06_10hf_magmom
 _atom_site_hse06_bader_spin_density
 _atom_site_hse06_ddec_charge
 _atom_site_hse06_ddec_spin_density
 _atom_site_hse06_ddec_sum_bond_order
 _atom_site_hse06_magmom
 _atom_site_pbe_bader_spin_density
 _atom_site_pbe_cm5_charge
 _atom_site_pbe_ddec_charge
 _atom_site_pbe_ddec_spin_density
 _atom_site_pbe_ddec_sum_bond_order
 _atom_site_pbe_magmom
Cu  Cu0  1  0.62567057  0.07090144  0.39557450  1  0  0.453259  0  2.203678  0  0  0.353976  0  2.717366  0  0  0.336494  0  2.684473  0  0  0.555221  0.371077  0  2.734637  0
Cu  Cu1  1  0.37435352  0.92910807  0.89557913  1  0  0.453209  0  2.203643  0  0  0.353925  0  2.717345  0  0  0.336474  0  2.684458  0  0  0.555158  0.371008  0  2.734819  0
H  H2  1  0.03077619  0.36006437  0.26751384  1  0  0.083878  0  0.959081  0  0  0.089294  0  1.02788  0  0  0.091837  0  1.026733  0  0  0.111161  0.087573  0  1.029086  0
H  H3  1  0.96922422  0.63994266  0.76752556  1  0  0.083847  0  0.959374  0  0  0.089212  0  1.028199  0  0  0.091756  0  1.027052  0  0  0.111094  0.087485  0  1.02942  0
H  H4  1  0.33501189  0.30550883  0.09901442  1  0  0.089479  0  0.947961  0  0  0.099514  0  1.007623  0  0  0.101742  0  1.006648  0  0  0.116299  0.098044  0  1.008516  0
H  H5  1  0.66499473  0.69448705  0.59901720  1  0  0.089456  0  0.948017  0  0  0.099512  0  1.007626  0  0  0.101739  0  1.006651  0  0  0.11632  0.098042  0  1.008513  0
H  H6  1  0.96793065  0.64033634  0.02297509  1  0  0.082952  0  0.959285  0  0  0.089286  0  1.027494  0  0  0.091786  0  1.026436  0  0  0.110811  0.087552  0  1.028723  0
H  H7  1  0.03206644  0.35965143  0.52297253  1  0  0.083124  0  0.959609  0  0  0.089375  0  1.027861  0  0  0.091883  0  1.026795  0  0  0.110887  0.087639  0  1.029081  0
H  H8  1  0.66354213  0.69514740  0.19139726  1  0  0.089967  0  0.948253  0  0  0.099938  0  1.007897  0  0  0.102135  0  1.006957  0  0  0.116585  0.098498  0  1.008745  0
H  H9  1  0.33643488  0.30486526  0.69140751  1  0  0.089878  0  0.948194  0  0  0.099851  0  1.007897  0  0  0.102047  0  1.006963  0  0  0.116578  0.098408  0  1.008748  0
C  C10  1  0.43235100  0.53853909  0.39542722  1  0  0.25156  0  4.043127  0  0  0.24737  0  4.335735  0  0  0.262221  0  4.351986  0  0  0.12854  0.237653  0  4.323831  0
C  C11  1  0.56766115  0.46146160  0.89541843  1  0  0.251702  0  4.043033  0  0  0.247516  0  4.335628  0  0  0.262364  0  4.351879  0  0  0.128601  0.237809  0  4.323805  0
C  C12  1  0.01657319  0.19796611  0.21300996  1  0  0.075746  0  3.667968  0  0  0.051101  0  3.918547  0  0  0.053838  0  3.931882  0  0  0.043049  0.048248  0  3.911517  0
C  C13  1  0.98340251  0.80201180  0.71302215  1  0  0.075646  0  3.667554  0  0  0.051033  0  3.918088  0  0  0.053764  0  3.93141  0  0  0.04301  0.048167  0  3.911084  0
C  C14  1  0.18479126  0.16836734  0.11946471  1  0  0.079594  0  3.679911  0  0  0.049976  0  3.934617  0  0  0.05298  0  3.947714  0  0  0.047194  0.047321  0  3.927295  0
C  C15  1  0.81519929  0.83163718  0.61946358  1  0  0.079643  0  3.680708  0  0  0.050059  0  3.935232  0  0  0.05306  0  3.948331  0  0  0.047209  0.047405  0  3.927903  0
C  C16  1  0.98214190  0.80246602  0.07744903  1  0  0.076424  0  3.665642  0  0  0.050253  0  3.917217  0  0  0.052965  0  3.930568  0  0  0.043233  0.047405  0  3.910162  0
C  C17  1  0.01786426  0.19756459  0.57745083  1  0  0.076268  0  3.665086  0  0  0.050196  0  3.916626  0  0  0.052904  0  3.929968  0  0  0.043132  0.047339  0  3.909566  0
C  C18  1  0.81385736  0.83215266  0.17094311  1  0  0.078826  0  3.679709  0  0  0.049662  0  3.934778  0  0  0.052711  0  3.947806  0  0  0.046075  0.046972  0  3.927556  0
C  C19  1  0.18611721  0.16784591  0.67095147  1  0  0.078962  0  3.680387  0  0  0.049713  0  3.935503  0  0  0.052739  0  3.948547  0  0  0.046066  0.047045  0  3.928244  0
S  S20  1  0.30105020  0.76968922  0.39525982  1  0  -0.344233  0  2.388845  0  0  -0.325753  0  2.768421  0  0  -0.33669  0  2.762037  0  0  -0.179603  -0.317613  0  2.771498  0
S  S21  1  0.69897310  0.23031510  0.89525757  1  0  -0.344319  0  2.388905  0  0  -0.325836  0  2.768516  0  0  -0.336783  0  2.762135  0  0  -0.179627  -0.317701  0  2.771681  0
N  N22  1  0.52028236  0.36637405  0.39554669  1  0  -0.52254  0  3.14186  0  0  -0.481144  0  3.480631  0  0  -0.488247  0  3.479414  0  0  -0.446582  -0.476816  0  3.479739  0
N  N23  1  0.47974825  0.63361990  0.89554516  1  0  -0.522574  0  3.141759  0  0  -0.481175  0  3.480516  0  0  -0.488288  0  3.479314  0  0  -0.446572  -0.476845  0  3.479735  0
N  N24  1  0.82979451  0.03002583  0.24049088  1  0  -0.248422  0  3.346699  0  0  -0.187969  0  3.644348  0  0  -0.188147  0  3.647481  0  0  -0.346155  -0.189205  0  3.643359  0
N  N25  1  0.17021370  0.97000079  0.74050106  1  0  -0.248343  0  3.346567  0  0  -0.187869  0  3.644196  0  0  -0.188021  0  3.647308  0  0  -0.34606  -0.189111  0  3.643275  0
N  N26  1  0.16900426  0.97043343  0.05001059  1  0  -0.246487  0  3.344323  0  0  -0.185515  0  3.642471  0  0  -0.185644  0  3.645549  0  0  -0.345823  -0.186703  0  3.641467  0
N  N27  1  0.83097538  0.02952940  0.55001054  1  0  -0.246502  0  3.34401  0  0  -0.185504  0  3.642043  0  0  -0.18562  0  3.645103  0  0  -0.3458  -0.186694  0  3.640973  0
