# generated using pymatgen
data_Zn3H34(C7O2)6
_symmetry_space_group_name_H-M   'P 1'
_cell_length_a   18.19635979
_cell_length_b   18.19635924
_cell_length_c   24.77924960
_cell_angle_alpha   90.00016448
_cell_angle_beta   89.99983891
_cell_angle_gamma   120.00010202
_symmetry_Int_Tables_number   1
_chemical_formula_structural   Zn3H34(C7O2)6
_chemical_formula_sum   'Zn9 H102 C126 O36'
_cell_volume   7105.38071649
_cell_formula_units_Z   3
loop_
 _symmetry_equiv_pos_site_id
 _symmetry_equiv_pos_as_xyz
  1  'x, y, z'
loop_
 _atom_site_type_symbol
 _atom_site_label
 _atom_site_symmetry_multiplicity
 _atom_site_fract_x
 _atom_site_fract_y
 _atom_site_fract_z
 _atom_site_occupancy
 _atom_site_pbe_bader_charge
 _atom_site_pbe_bader_spin_density
 _atom_site_pbe_cm5_charge
 _atom_site_pbe_ddec_charge
 _atom_site_pbe_ddec_spin_density
 _atom_site_pbe_ddec_sum_bond_order
 _atom_site_pbe_magmom
Zn  Zn0  1  0.32358555  0.32358556  0.00000081  1  1.359375  0  0.691372  0.881598  0  2.375041  0
Zn  Zn1  1  0.67641659  0.00000000  0.66666558  1  1.358515  0  0.691306  0.881534  0  2.375159  0
Zn  Zn2  1  0.99999940  0.67641655  0.33333342  1  1.35846  0  0.691282  0.881505  0  2.375214  0
Zn  Zn3  1  0.28129366  0.22367633  0.89210646  1  1.335562  0  0.693125  0.918549  0  2.309039  0
Zn  Zn4  1  0.77632410  0.05762534  0.55877324  1  1.336456  0  0.693121  0.918574  0  2.308981  0
Zn  Zn5  1  0.94238110  0.71870648  0.22543881  1  1.337258  0  0.693112  0.918508  0  2.309049  0
Zn  Zn6  1  0.22367596  0.28129397  0.10789437  1  1.335679  0  0.693133  0.918587  0  2.309037  0
Zn  Zn7  1  0.71870710  0.94238054  0.77456043  1  1.337227  0  0.693125  0.91858  0  2.308988  0
Zn  Zn8  1  0.05762478  0.77632360  0.44122679  1  1.336439  0  0.693101  0.918516  0  2.309019  0
H  H9  1  0.44804425  0.56550402  0.04199697  1  0.048295  0  0.102962  0.101898  0  0.979814  0
H  H10  1  0.43450237  0.88254889  0.70866480  1  0.050535  0  0.10299  0.101916  0  0.979794  0
H  H11  1  0.11746248  0.55196371  0.37533023  1  0.091267  0  0.102987  0.101924  0  0.979782  0
H  H12  1  0.56550222  0.44804061  0.95800428  1  0.04821  0  0.102976  0.101923  0  0.979775  0
H  H13  1  0.55196243  0.11745935  0.62466900  1  0.091366  0  0.103002  0.101918  0  0.979779  0
H  H14  1  0.88254623  0.43450168  0.29133605  1  0.0506  0  0.103002  0.101939  0  0.979834  0
H  H15  1  0.34698799  0.48888160  0.06989937  1  0.105506  0  0.116524  0.133262  0  0.978033  0
H  H16  1  0.51112264  0.85811277  0.73656707  1  0.093647  0  0.116549  0.133284  0  0.977966  0
H  H17  1  0.14190018  0.65302164  0.40323188  1  0.095819  0  0.116542  0.133372  0  0.977946  0
H  H18  1  0.48887917  0.34698499  0.93010188  1  0.105504  0  0.116554  0.133272  0  0.977954  0
H  H19  1  0.65302169  0.14189902  0.59676815  1  0.095815  0  0.11654  0.133353  0  0.977948  0
H  H20  1  0.85811010  0.51112194  0.26343297  1  0.093648  0  0.116564  0.133309  0  0.977984  0
H  H21  1  0.35273743  0.56533554  0.02173414  1  0.046074  0  0.106904  0.107892  0  0.9729  0
H  H22  1  0.43466689  0.78740808  0.68840218  1  0.087727  0  0.106891  0.107851  0  0.972901  0
H  H23  1  0.21260336  0.64726890  0.35506489  1  0.039647  0  0.106865  0.107859  0  0.973003  0
H  H24  1  0.56533351  0.35273293  0.97826630  1  0.04604  0  0.106894  0.107861  0  0.972919  0
H  H25  1  0.64726636  0.21260151  0.64493434  1  0.039683  0  0.106881  0.107882  0  0.97299  0
H  H26  1  0.78740510  0.43466652  0.31159827  1  0.087665  0  0.106891  0.107884  0  0.972896  0
H  H27  1  0.45846934  0.62659232  0.95509852  1  0.07123  0  0.102214  0.110655  0  1.033484  0
H  H28  1  0.37341142  0.83188763  0.62176791  1  0.051534  0  0.102236  0.11073  0  1.033514  0
H  H29  1  0.16812278  0.54153238  0.28843205  1  0.064045  0  0.10222  0.110637  0  1.033429  0
H  H30  1  0.62659146  0.45846791  0.04490112  1  0.0712  0  0.102213  0.11065  0  1.033479  0
H  H31  1  0.54153048  0.16812030  0.71156798  1  0.063918  0  0.102231  0.110631  0  1.033449  0
H  H32  1  0.83188301  0.37340941  0.37823254  1  0.051508  0  0.10222  0.110665  0  1.033538  0
H  H33  1  0.45269679  0.54693994  0.79048450  1  0.04605  0  0.10178  0.103453  0  0.99535  0
H  H34  1  0.45305934  0.90575857  0.45715194  1  0.066541  0  0.101799  0.103426  0  0.995397  0
H  H35  1  0.09423533  0.54729730  0.12381779  1  0.051355  0  0.10182  0.103481  0  0.995361  0
H  H36  1  0.54694170  0.45269607  0.20951594  1  0.04602  0  0.101816  0.103464  0  0.995382  0
H  H37  1  0.54729738  0.09423419  0.87618184  1  0.051367  0  0.101852  0.103555  0  0.995344  0
H  H38  1  0.90576025  0.45305983  0.54284689  1  0.066582  0  0.101794  0.103406  0  0.995443  0
H  H39  1  0.36913650  0.39516708  0.81909021  1  0.091148  0  0.106079  0.128121  0  0.991246  0
H  H40  1  0.60483208  0.97396642  0.48575644  1  0.079786  0  0.106092  0.12814  0  0.991247  0
H  H41  1  0.02602704  0.63086034  0.15242414  1  0.091412  0  0.10607  0.128104  0  0.991236  0
H  H42  1  0.39516812  0.36913760  0.18091143  1  0.091116  0  0.106071  0.128091  0  0.991273  0
H  H43  1  0.63086041  0.02602589  0.84757549  1  0.091632  0  0.106087  0.128112  0  0.991236  0
H  H44  1  0.97397039  0.60483359  0.51424321  1  0.079868  0  0.106094  0.128116  0  0.991203  0
H  H45  1  0.52719955  0.69512163  0.81020229  1  0.109295  0  0.10339  0.104684  0  0.996851  0
H  H46  1  0.30487923  0.83208297  0.47686972  1  0.089461  0  0.10336  0.104684  0  0.996908  0
H  H47  1  0.16792100  0.47280158  0.14353574  1  0.105805  0  0.103366  0.104705  0  0.996947  0
H  H48  1  0.69512315  0.52719796  0.18979816  1  0.109152  0  0.103366  0.104638  0  0.996858  0
H  H49  1  0.47280110  0.16791931  0.85646590  1  0.1058  0  0.103392  0.104724  0  0.996898  0
H  H50  1  0.83208056  0.30487941  0.52312951  1  0.089427  0  0.103352  0.104682  0  0.996875  0
H  H51  1  0.57523823  0.74263519  0.92931929  1  0.009627  0  0.093976  0.105594  0  1.014793  0
H  H52  1  0.25736602  0.83260759  0.59598759  1  0.009492  0  0.094013  0.105656  0  1.014804  0
H  H53  1  0.16738793  0.42475673  0.26265028  1  0.010531  0  0.09395  0.105566  0  1.014814  0
H  H54  1  0.74263480  0.57523854  0.07068075  1  0.009653  0  0.093983  0.105569  0  1.014792  0
H  H55  1  0.42475507  0.16738632  0.73735096  1  0.010562  0  0.093957  0.105579  0  1.014808  0
H  H56  1  0.83260430  0.25736597  0.40401165  1  0.009441  0  0.094004  0.105642  0  1.014922  0
H  H57  1  0.69647634  0.87052751  0.93959887  1  0.047437  0  0.089183  0.118376  0  1.036557  0
H  H58  1  0.12947218  0.82595234  0.60626688  1  0.057645  0  0.089192  0.118394  0  1.036522  0
H  H59  1  0.17403867  0.30351476  0.27293092  1  0.057435  0  0.089211  0.118371  0  1.036488  0
H  H60  1  0.87052790  0.69647807  0.06040078  1  0.047349  0  0.089175  0.118347  0  1.036599  0
H  H61  1  0.30351631  0.17404154  0.72706991  1  0.057465  0  0.089183  0.118319  0  1.036603  0
H  H62  1  0.82594849  0.12947157  0.39373397  1  0.05771  0  0.089183  0.118366  0  1.036567  0
H  H63  1  0.82484967  0.98496686  0.96543096  1  0.046996  0  0.094374  0.108852  0  1.011697  0
H  H64  1  0.01503183  0.83988453  0.63209426  1  0.060414  0  0.0944  0.10886  0  1.011701  0
H  H65  1  0.16010655  0.17514237  0.29876088  1  0.049108  0  0.094398  0.108885  0  1.011739  0
H  H66  1  0.98496765  0.82484990  0.03456910  1  0.047003  0  0.094375  0.108859  0  1.011706  0
H  H67  1  0.17514416  0.16011029  0.70123954  1  0.049141  0  0.094397  0.108838  0  1.011784  0
H  H68  1  0.83988397  0.01503451  0.36790496  1  0.060379  0  0.094408  0.108901  0  1.011705  0
H  H69  1  0.91269340  0.10895763  0.87160951  1  0.10793  0  0.10028  0.097605  0  1.026026  0
H  H70  1  0.89104107  0.80373795  0.53827329  1  0.096397  0  0.100246  0.097552  0  1.026039  0
H  H71  1  0.19625916  0.08730021  0.20494112  1  0.103917  0  0.100272  0.09758  0  1.026084  0
H  H72  1  0.10895927  0.91269066  0.12839053  1  0.107864  0  0.100252  0.097565  0  1.026026  0
H  H73  1  0.08730209  0.19626173  0.79506011  1  0.103849  0  0.100243  0.097545  0  1.026094  0
H  H74  1  0.80373979  0.89104362  0.46172475  1  0.096433  0  0.10028  0.097616  0  1.026038  0
H  H75  1  0.04124994  0.22884854  0.88066004  1  0.05979  0  0.099888  0.098641  0  1.011452  0
H  H76  1  0.77115608  0.81240822  0.54732333  1  0.065563  0  0.099877  0.098657  0  1.011385  0
H  H77  1  0.18759719  0.95875150  0.21399277  1  0.057803  0  0.099887  0.098633  0  1.01149  0
H  H78  1  0.22884920  0.04124811  0.11934039  1  0.059754  0  0.09987  0.09859  0  1.011469  0
H  H79  1  0.95875147  0.18759722  0.78600808  1  0.057783  0  0.099879  0.098647  0  1.011447  0
H  H80  1  0.81240855  0.77115903  0.45267591  1  0.065699  0  0.099874  0.098629  0  1.011403  0
H  H81  1  0.17467722  0.32181085  0.93079106  1  0.088137  0  0.106545  0.131218  0  0.993375  0
H  H82  1  0.67819191  0.85287170  0.59745413  1  0.076533  0  0.106571  0.131258  0  0.993218  0
H  H83  1  0.14714044  0.82532485  0.26412332  1  0.073557  0  0.106554  0.131199  0  0.993305  0
H  H84  1  0.32181032  0.17467547  0.06920897  1  0.088156  0  0.10655  0.131204  0  0.993417  0
H  H85  1  0.82532513  0.14714016  0.73587712  1  0.073539  0  0.106564  0.131225  0  0.993346  0
H  H86  1  0.85287267  0.67819422  0.40254512  1  0.076366  0  0.106558  0.131247  0  0.993304  0
H  H87  1  0.94193032  0.06419554  0.01933059  1  0.062474  0  0.100418  0.110656  0  1.02918  0
H  H88  1  0.93580540  0.87773383  0.68599531  1  0.029943  0  0.100437  0.110677  0  1.029138  0
H  H89  1  0.12225925  0.05806504  0.35266477  1  0.030571  0  0.100484  0.110718  0  1.029129  0
H  H90  1  0.06419629  0.94192860  0.98066945  1  0.062462  0  0.100417  0.110635  0  1.029207  0
H  H91  1  0.05806558  0.12225984  0.64733525  1  0.030572  0  0.100472  0.110713  0  1.029111  0
H  H92  1  0.87773291  0.93580519  0.31400273  1  0.03024  0  0.10041  0.110636  0  1.029174  0
H  H93  1  0.96225987  0.08292112  0.11163363  1  0.053745  0  0.098732  0.095499  0  0.983432  0
H  H94  1  0.91708152  0.87933888  0.77829514  1  0.057042  0  0.098729  0.095453  0  0.98338  0
H  H95  1  0.12065409  0.03773501  0.44496617  1  0.051619  0  0.098691  0.095436  0  0.983535  0
H  H96  1  0.08292059  0.96225941  0.88836601  1  0.053726  0  0.098729  0.095503  0  0.983421  0
H  H97  1  0.03773601  0.12065641  0.55503385  1  0.051576  0  0.098718  0.095485  0  0.983558  0
H  H98  1  0.87933992  0.91708264  0.22170330  1  0.057043  0  0.098724  0.095467  0  0.983382  0
H  H99  1  0.05198026  0.09284235  0.14866798  1  0.090352  0  0.109543  0.121844  0  0.992575  0
H  H100  1  0.90716422  0.95913951  0.81533146  1  0.103372  0  0.109544  0.121867  0  0.992383  0
H  H101  1  0.04085794  0.94801178  0.48200224  1  0.081667  0  0.10953  0.121845  0  0.992551  0
H  H102  1  0.09284291  0.05198086  0.85133203  1  0.090354  0  0.109548  0.12187  0  0.99255  0
H  H103  1  0.94801274  0.04086023  0.51799740  1  0.081862  0  0.109544  0.121879  0  0.992499  0
H  H104  1  0.95914109  0.90716588  0.18466738  1  0.10332  0  0.109565  0.121944  0  0.992382  0
H  H105  1  0.01842620  0.03057160  0.08803900  1  0.074588  0  0.097168  0.097689  0  1.016111  0
H  H106  1  0.96943024  0.98785336  0.75470046  1  0.058176  0  0.097239  0.097757  0  1.016125  0
H  H107  1  0.01213780  0.98156256  0.42137214  1  0.07185  0  0.097238  0.097774  0  1.016119  0
H  H108  1  0.03057216  0.01842680  0.91196102  1  0.074593  0  0.097196  0.097739  0  1.016088  0
H  H109  1  0.98156439  0.01214032  0.57862750  1  0.07189  0  0.097211  0.097769  0  1.016077  0
H  H110  1  0.98785494  0.96943191  0.24529839  1  0.058158  0  0.097229  0.097772  0  1.016129  0
C  C111  1  0.37970044  0.52556006  0.03388698  1  0.391442  0  -0.126502  -0.157293  0  3.857643  0
C  C112  1  0.47444257  0.85414508  0.70055512  1  0.356283  0  -0.12653  -0.157302  0  3.857473  0
C  C113  1  0.14586519  0.62030797  0.36721945  1  0.36176  0  -0.126502  -0.157418  0  3.857621  0
C  C114  1  0.52555969  0.37969758  0.96611386  1  0.391554  0  -0.126515  -0.157262  0  3.857547  0
C  C115  1  0.62030716  0.14586380  0.63278058  1  0.361656  0  -0.126513  -0.157381  0  3.857654  0
C  C116  1  0.85414328  0.47444211  0.29944533  1  0.356264  0  -0.126576  -0.157407  0  3.857626  0
C  C117  1  0.36836120  0.42503067  0.90283290  1  0.568842  0  0.073211  0.251989  0  4.126596  0
C  C118  1  0.57497122  0.94333159  0.56949989  1  0.563821  0  0.073213  0.251935  0  4.126746  0
C  C119  1  0.05666853  0.63163947  0.23616514  1  0.648587  0  0.073251  0.251971  0  4.126662  0
C  C120  1  0.42503075  0.36836324  0.09716794  1  0.568822  0  0.073222  0.251914  0  4.126716  0
C  C121  1  0.63164008  0.05666793  0.76383408  1  0.648583  0  0.073253  0.251988  0  4.126627  0
C  C122  1  0.94333303  0.57497083  0.43050016  1  0.563877  0  0.073199  0.251919  0  4.126692  0
C  C123  1  0.39251250  0.49219119  0.94085024  1  0.482174  0  0.06041  0.127132  0  4.051775  0
C  C124  1  0.50781162  0.90032283  0.60751761  1  0.424975  0  0.060369  0.127175  0  4.051889  0
C  C125  1  0.09967976  0.60749029  0.27418277  1  0.367259  0  0.060384  0.127079  0  4.051948  0
C  C126  1  0.49219190  0.39251390  0.05915061  1  0.482198  0  0.060398  0.127118  0  4.051745  0
C  C127  1  0.60749145  0.09967971  0.72581645  1  0.367379  0  0.060368  0.12707  0  4.051994  0
C  C128  1  0.90032191  0.50781140  0.39248244  1  0.425026  0  0.060396  0.127167  0  4.05186  0
C  C129  1  0.43984785  0.57617461  0.92545756  1  -0.099983  0  -0.112267  -0.250659  0  4.01167  0
C  C130  1  0.42382746  0.86367938  0.59212575  1  -0.01337  0  -0.112309  -0.25081  0  4.011685  0
C  C131  1  0.13632710  0.56015508  0.25878956  1  -0.025222  0  -0.112239  -0.250568  0  4.01164  0
C  C132  1  0.57617573  0.43984775  0.07454288  1  -0.099958  0  -0.112289  -0.250648  0  4.011593  0
C  C133  1  0.56015404  0.13632485  0.74121047  1  -0.025188  0  -0.112243  -0.250531  0  4.011615  0
C  C134  1  0.86367672  0.42382677  0.40787430  1  -0.013361  0  -0.112272  -0.250672  0  4.011684  0
C  C135  1  0.46400401  0.59735066  0.87081022  1  0.027864  0  -0.031516  0.086106  0  4.105937  0
C  C136  1  0.40265044  0.86665932  0.53747844  1  -0.020509  0  -0.031421  0.08627  0  4.105707  0
C  C137  1  0.13334660  0.53599604  0.20414261  1  0.053277  0  -0.03151  0.08613  0  4.105976  0
C  C138  1  0.59735210  0.46400360  0.12919063  1  0.027782  0  -0.031451  0.086121  0  4.105859  0
C  C139  1  0.53599501  0.13334435  0.79585742  1  0.053234  0  -0.031501  0.086142  0  4.105897  0
C  C140  1  0.86665721  0.40265031  0.46252161  1  -0.020528  0  -0.031462  0.086168  0  4.105829  0
C  C141  1  0.43552164  0.53107656  0.83282275  1  -0.012808  0  -0.095731  -0.126733  0  4.02204  0
C  C142  1  0.46892313  0.90444826  0.49948977  1  0.03196  0  -0.095799  -0.126764  0  4.021955  0
C  C143  1  0.09555203  0.56447664  0.16615484  1  -0.084184  0  -0.095815  -0.12683  0  4.021981  0
C  C144  1  0.53107769  0.43552155  0.16717810  1  -0.012807  0  -0.095785  -0.126743  0  4.022029  0
C  C145  1  0.56447507  0.09554924  0.83384479  1  -0.084194  0  -0.095815  -0.126862  0  4.022114  0
C  C146  1  0.90444986  0.46892480  0.50050947  1  0.031941  0  -0.095762  -0.126724  0  4.022036  0
C  C147  1  0.38921812  0.44633609  0.84846200  1  -0.010942  0  -0.113295  -0.206732  0  4.017211  0
C  C148  1  0.55366471  0.94288096  0.51512861  1  -0.06606  0  -0.113287  -0.206703  0  4.017151  0
C  C149  1  0.05711535  0.61078085  0.18179463  1  -0.036407  0  -0.113281  -0.206631  0  4.017157  0
C  C150  1  0.44633705  0.38922040  0.15153884  1  -0.01091  0  -0.113262  -0.206638  0  4.017147  0
C  C151  1  0.61078091  0.05711420  0.81820459  1  -0.036591  0  -0.113311  -0.206663  0  4.017198  0
C  C152  1  0.94288524  0.55366589  0.48487063  1  -0.066287  0  -0.113321  -0.206687  0  4.017135  0
C  C153  1  0.52119091  0.68349265  0.85374880  1  -0.163587  0  -0.077673  -0.068322  0  3.977938  0
C  C154  1  0.31650683  0.83770061  0.52041745  1  -0.015823  0  -0.077656  -0.06842  0  3.978153  0
C  C155  1  0.16229999  0.47881058  0.18708026  1  -0.11703  0  -0.077596  -0.068347  0  3.977827  0
C  C156  1  0.68349574  0.52119215  0.14625044  1  -0.163397  0  -0.077699  -0.068323  0  3.978008  0
C  C157  1  0.47881120  0.16229940  0.81292058  1  -0.117027  0  -0.077632  -0.068415  0  3.977709  0
C  C158  1  0.83770189  0.31650881  0.47958300  1  -0.015773  0  -0.077609  -0.068344  0  3.978107  0
C  C159  1  0.57328251  0.75008761  0.88571830  1  0.01264  0  -0.120001  -0.23272  0  3.977365  0
C  C160  1  0.24991010  0.82319198  0.55238618  1  -0.069562  0  -0.120046  -0.23275  0  3.977473  0
C  C161  1  0.17680489  0.42671349  0.21905129  1  0.00507  0  -0.12005  -0.232817  0  3.977094  0
C  C162  1  0.75008809  0.57328306  0.11428255  1  0.012624  0  -0.119958  -0.232609  0  3.977415  0
C  C163  1  0.42671324  0.17680407  0.78094955  1  0.005094  0  -0.120043  -0.232792  0  3.977078  0
C  C164  1  0.82319334  0.24991089  0.44761265  1  -0.06953  0  -0.120071  -0.232792  0  3.977468  0
C  C165  1  0.63568204  0.83166655  0.86290327  1  0.717853  0  0.099983  0.415415  0  4.12627  0
C  C166  1  0.16833181  0.80401480  0.52957038  1  0.707827  0  0.099978  0.41534  0  4.126297  0
C  C167  1  0.19597632  0.36431246  0.19623252  1  0.708721  0  0.100019  0.415545  0  4.126048  0
C  C168  1  0.83166639  0.63568323  0.13709678  1  0.717551  0  0.099974  0.415352  0  4.126274  0
C  C169  1  0.36431300  0.19597692  0.80376792  1  0.708685  0  0.099979  0.415404  0  4.126193  0
C  C170  1  0.80401466  0.16833300  0.47043006  1  0.707421  0  0.099985  0.41537  0  4.126135  0
C  C171  1  0.70064055  0.89008456  0.89759681  1  -0.045559  0  -0.158571  -0.442981  0  3.983926  0
C  C172  1  0.10991720  0.81056071  0.56426359  1  -0.057081  0  -0.158578  -0.442957  0  3.983939  0
C  C173  1  0.18943070  0.29935027  0.23092721  1  -0.056705  0  -0.158679  -0.442991  0  3.98374  0
C  C174  1  0.89008290  0.70064214  0.10240324  1  -0.045244  0  -0.158563  -0.442917  0  3.983933  0
C  C175  1  0.29935182  0.18943357  0.76907322  1  -0.056668  0  -0.158588  -0.442776  0  3.983727  0
C  C176  1  0.81055805  0.10991651  0.43573645  1  -0.056696  0  -0.158564  -0.442921  0  3.983848  0
C  C177  1  0.77333027  0.96768778  0.88363594  1  0.67592  0  0.096448  0.402572  0  4.132109  0
C  C178  1  0.03231217  0.80564141  0.55030158  1  0.679433  0  0.096453  0.402451  0  4.132153  0
C  C179  1  0.19435152  0.22666413  0.21696787  1  0.663533  0  0.096416  0.402466  0  4.132342  0
C  C180  1  0.96768779  0.77332909  0.11636371  1  0.675916  0  0.096448  0.402534  0  4.132086  0
C  C181  1  0.22666569  0.19435440  0.78303256  1  0.663537  0  0.096393  0.402351  0  4.13229  0
C  C182  1  0.80564081  0.03231163  0.44969805  1  0.679428  0  0.09648  0.402516  0  4.132092  0
C  C183  1  0.83703454  0.01334461  0.92527737  1  -0.038916  0  -0.123697  -0.24158  0  3.984899  0
C  C184  1  0.98665410  0.82369108  0.59194070  1  -0.033592  0  -0.123682  -0.241417  0  3.984693  0
C  C185  1  0.17630243  0.16296048  0.25860871  1  -0.006989  0  -0.123688  -0.241536  0  3.984858  0
C  C186  1  0.01334553  0.83703361  0.07472266  1  -0.038923  0  -0.123668  -0.241555  0  3.984912  0
C  C187  1  0.16296227  0.17630618  0.74139212  1  -0.006967  0  -0.123759  -0.241533  0  3.984855  0
C  C188  1  0.82369086  0.98665650  0.40805734  1  -0.033773  0  -0.123707  -0.24153  0  3.984886  0
C  C189  1  0.90902816  0.08707377  0.91317733  1  -0.122607  0  -0.081922  -0.077674  0  4.002625  0
C  C190  1  0.91292593  0.82195568  0.57984153  1  -0.152779  0  -0.081955  -0.077757  0  4.002595  0
C  C191  1  0.17803870  0.09096389  0.24650818  1  -0.167103  0  -0.081911  -0.077706  0  4.002286  0
C  C192  1  0.08707541  0.90902541  0.08682311  1  -0.122594  0  -0.081916  -0.077645  0  4.00259  0
C  C193  1  0.09096522  0.17804071  0.75349224  1  -0.166818  0  -0.081882  -0.077699  0  4.002271  0
C  C194  1  0.82195642  0.91292738  0.42015690  1  -0.152606  0  -0.081985  -0.077813  0  4.002697  0
C  C195  1  0.98214432  0.13993685  0.94605280  1  -0.018713  0  -0.031617  0.084168  0  4.106623  0
C  C196  1  0.86006341  0.84221053  0.61271751  1  0.03333  0  -0.031633  0.084068  0  4.106936  0
C  C197  1  0.15778618  0.01784924  0.27938604  1  0.011067  0  -0.031659  0.084116  0  4.106468  0
C  C198  1  0.13993839  0.98214276  0.05394764  1  -0.018685  0  -0.031615  0.084131  0  4.106623  0
C  C199  1  0.01785034  0.15778732  0.72061438  1  0.010791  0  -0.031601  0.084228  0  4.106462  0
C  C200  1  0.84221182  0.86006540  0.38728174  1  0.03332  0  -0.031615  0.084173  0  4.106725  0
C  C201  1  0.04855428  0.21344146  0.92214594  1  0.017524  0  -0.092999  -0.115789  0  4.009542  0
C  C202  1  0.78656086  0.83511772  0.58881128  1  -0.055755  0  -0.092976  -0.115734  0  4.009693  0
C  C203  1  0.16488455  0.95144271  0.25547911  1  -0.020824  0  -0.092983  -0.115757  0  4.009593  0
C  C204  1  0.21344149  0.04855308  0.07785449  1  0.01798  0  -0.092982  -0.115706  0  4.00958  0
C  C205  1  0.95144299  0.16488426  0.74452214  1  -0.020843  0  -0.093013  -0.115835  0  4.009595  0
C  C206  1  0.83511869  0.78656317  0.41118837  1  -0.05566  0  -0.093044  -0.115861  0  4.009767  0
C  C207  1  0.12305310  0.26587483  0.94988364  1  -0.086061  0  -0.114014  -0.206839  0  4.016  0
C  C208  1  0.73412753  0.85718449  0.61654787  1  0.007177  0  -0.114019  -0.206856  0  4.015956  0
C  C209  1  0.14282202  0.87694511  0.28321678  1  -0.02929  0  -0.113964  -0.206698  0  4.015915  0
C  C210  1  0.26587485  0.12305190  0.05011679  1  -0.085984  0  -0.113989  -0.206791  0  4.016046  0
C  C211  1  0.87694539  0.14282173  0.71678447  1  -0.029199  0  -0.113953  -0.206712  0  4.015964  0
C  C212  1  0.85718569  0.73413070  0.38345137  1  0.007433  0  -0.113917  -0.206733  0  4.015978  0
C  C213  1  0.13393205  0.24660510  0.00296954  1  0.622396  0  0.073772  0.252391  0  4.109846  0
C  C214  1  0.75339741  0.88733117  0.66963383  1  0.577462  0  0.073825  0.252366  0  4.109904  0
C  C215  1  0.11267551  0.86606578  0.33630194  1  0.596214  0  0.07378  0.252342  0  4.109928  0
C  C216  1  0.24660401  0.13393101  0.99703129  1  0.622302  0  0.07378  0.252395  0  4.109819  0
C  C217  1  0.86606620  0.11267727  0.66369810  1  0.596097  0  0.073821  0.252397  0  4.109997  0
C  C218  1  0.88733158  0.75339916  0.33036501  1  0.577451  0  0.073812  0.252477  0  4.109877  0
C  C219  1  0.06616602  0.17367684  0.02809015  1  0.426304  0  0.066509  0.137259  0  4.054479  0
C  C220  1  0.82632408  0.89248947  0.69475519  1  0.429168  0  0.066478  0.137248  0  4.054443  0
C  C221  1  0.10751039  0.93383144  0.36142263  1  0.39011  0  0.066442  0.137123  0  4.054598  0
C  C222  1  0.17367639  0.06616434  0.97191027  1  0.426531  0  0.066434  0.137158  0  4.054529  0
C  C223  1  0.93383052  0.10751017  0.63857821  1  0.390115  0  0.066397  0.13703  0  4.054674  0
C  C224  1  0.89248823  0.82632418  0.30524285  1  0.428927  0  0.066407  0.137066  0  4.054617  0
C  C225  1  0.99221917  0.12102937  0.00016900  1  -0.025696  0  -0.112275  -0.250684  0  3.989584  0
C  C226  1  0.87897172  0.87119100  0.66683376  1  0.008052  0  -0.112225  -0.250609  0  3.989581  0
C  C227  1  0.12880603  0.00777647  0.33350352  1  0.067381  0  -0.112351  -0.250723  0  3.989716  0
C  C228  1  0.12103013  0.99221745  0.99983104  1  -0.026143  0  -0.112257  -0.250633  0  3.989625  0
C  C229  1  0.00777702  0.12880662  0.66649690  1  0.067403  0  -0.112309  -0.250686  0  3.989713  0
C  C230  1  0.87118977  0.87897183  0.33316468  1  0.007874  0  -0.112238  -0.250593  0  3.989524  0
C  C231  1  0.02461732  0.08710191  0.10847187  1  0.355321  0  -0.133543  -0.159943  0  3.879507  0
C  C232  1  0.91290177  0.93751524  0.77513409  1  0.35507  0  -0.13365  -0.160073  0  3.879378  0
C  C233  1  0.06247915  0.97537517  0.44180530  1  0.368883  0  -0.133539  -0.159941  0  3.879511  0
C  C234  1  0.08710223  0.02461706  0.89152814  1  0.355334  0  -0.13355  -0.160025  0  3.879496  0
C  C235  1  0.97537581  0.06248176  0.55819474  1  0.368823  0  -0.133544  -0.160028  0  3.879451  0
C  C236  1  0.93751682  0.91290343  0.22486435  1  0.355085  0  -0.133675  -0.160192  0  3.879427  0
O  O237  1  0.36494536  0.46434496  0.99269321  1  -1.097424  0  -0.186408  -0.16471  0  2.719742  0
O  O238  1  0.53565840  0.90060370  0.65936015  1  -1.09876  0  -0.186391  -0.164659  0  2.719695  0
O  O239  1  0.09940250  0.63506097  0.32602537  1  -1.09693  0  -0.186388  -0.164636  0  2.719751  0
O  O240  1  0.46434388  0.36494306  0.00730804  1  -1.097364  0  -0.186448  -0.164773  0  2.719768  0
O  O241  1  0.63506149  0.09940308  0.67397426  1  -1.09697  0  -0.186403  -0.16469  0  2.719886  0
O  O242  1  0.90060104  0.53565771  0.34063989  1  -1.098755  0  -0.186379  -0.16464  0  2.719712  0
O  O243  1  0.32701592  0.34541090  0.92098837  1  -1.182041  0  -0.342999  -0.552148  0  2.568187  0
O  O244  1  0.65459159  0.98160421  0.58765334  1  -1.179089  0  -0.342949  -0.552133  0  2.56834  0
O  O245  1  0.01839455  0.67298661  0.25431993  1  -1.183614  0  -0.342955  -0.552129  0  2.568293  0
O  O246  1  0.34541107  0.32701678  0.07901287  1  -1.182052  0  -0.342975  -0.552089  0  2.568263  0
O  O247  1  0.67298776  0.01839450  0.74567929  1  -1.183645  0  -0.342987  -0.552188  0  2.568243  0
O  O248  1  0.98160424  0.65459042  0.41234509  1  -1.179056  0  -0.342952  -0.552126  0  2.568378  0
O  O249  1  0.62940140  0.84331640  0.81177704  1  -1.156087  0  -0.330114  -0.515927  0  2.311789  0
O  O250  1  0.15668613  0.78608858  0.47844373  1  -1.15533  0  -0.33013  -0.515855  0  2.311898  0
O  O251  1  0.21390722  0.37059303  0.14510707  1  -1.15469  0  -0.330123  -0.515945  0  2.311649  0
O  O252  1  0.84331633  0.62940141  0.18822301  1  -1.156056  0  -0.330111  -0.515883  0  2.311758  0
O  O253  1  0.37059192  0.21390618  0.85489296  1  -1.154692  0  -0.33009  -0.515851  0  2.311757  0
O  O254  1  0.78608648  0.15668600  0.52155591  1  -1.155362  0  -0.330125  -0.515874  0  2.31182  0
O  O255  1  0.79002589  0.00145896  0.83558018  1  -1.142488  0  -0.327098  -0.513001  0  2.348913  0
O  O256  1  0.99854032  0.78856059  0.50224584  1  -1.138705  0  -0.327062  -0.512924  0  2.348909  0
O  O257  1  0.21143766  0.20997477  0.16891230  1  -1.136551  0  -0.327035  -0.512959  0  2.348983  0
O  O258  1  0.00145838  0.79002537  0.16441985  1  -1.142455  0  -0.327095  -0.512977  0  2.348921  0
O  O259  1  0.20997587  0.21143881  0.83108813  1  -1.13657  0  -0.327034  -0.51291  0  2.348936  0
O  O260  1  0.78856458  0.99854185  0.49775421  1  -1.138683  0  -0.327087  -0.512975  0  2.348899  0
O  O261  1  0.20604601  0.29371297  0.03011965  1  -1.174796  0  -0.344664  -0.543088  0  2.53299  0
O  O262  1  0.70628964  0.91233558  0.69678485  1  -1.171341  0  -0.344641  -0.543021  0  2.532967  0
O  O263  1  0.08767514  0.79395317  0.36345162  1  -1.173698  0  -0.344683  -0.543065  0  2.53298  0
O  O264  1  0.29371125  0.20604561  0.96988158  1  -1.174668  0  -0.344707  -0.543154  0  2.532912  0
O  O265  1  0.79395368  0.08767571  0.63654841  1  -1.173673  0  -0.344702  -0.543102  0  2.533012  0
O  O266  1  0.91233717  0.70629131  0.30321480  1  -1.1713  0  -0.344626  -0.54306  0  2.532998  0
O  O267  1  0.08365119  0.16254460  0.08037621  1  -1.095481  0  -0.182234  -0.165558  0  2.686023  0
O  O268  1  0.83745947  0.92110825  0.74704008  1  -1.09592  0  -0.182267  -0.165515  0  2.685921  0
O  O269  1  0.07889121  0.91634352  0.41370913  1  -1.096273  0  -0.182203  -0.165493  0  2.68587  0
O  O270  1  0.16254438  0.08365037  0.91962422  1  -1.095457  0  -0.182231  -0.165508  0  2.68601  0
O  O271  1  0.91634362  0.07889328  0.58629131  1  -1.096269  0  -0.182229  -0.165471  0  2.685832  0
O  O272  1  0.92110905  0.83745972  0.25295836  1  -1.095911  0  -0.182161  -0.165385  0  2.685932  0
