# generated using pymatgen
data_TbH17C20N2O11
_symmetry_space_group_name_H-M   'P 1'
_cell_length_a   8.76696012
_cell_length_b   9.99726372
_cell_length_c   14.24371232
_cell_angle_alpha   107.76925806
_cell_angle_beta   94.86615465
_cell_angle_gamma   105.19734039
_symmetry_Int_Tables_number   1
_chemical_formula_structural   TbH17C20N2O11
_chemical_formula_sum   'Tb2 H34 C40 N4 O22'
_cell_volume   1128.66169797
_cell_formula_units_Z   2
loop_
 _symmetry_equiv_pos_site_id
 _symmetry_equiv_pos_as_xyz
  1  'x, y, z'
loop_
 _atom_site_type_symbol
 _atom_site_label
 _atom_site_symmetry_multiplicity
 _atom_site_fract_x
 _atom_site_fract_y
 _atom_site_fract_z
 _atom_site_occupancy
 _atom_site_hle17_bader_spin_density
 _atom_site_hle17_ddec_charge
 _atom_site_hle17_ddec_spin_density
 _atom_site_hle17_ddec_sum_bond_order
 _atom_site_hle17_magmom
 _atom_site_hse06_10hf_bader_spin_density
 _atom_site_hse06_10hf_ddec_charge
 _atom_site_hse06_10hf_ddec_spin_density
 _atom_site_hse06_10hf_ddec_sum_bond_order
 _atom_site_hse06_10hf_magmom
 _atom_site_hse06_bader_spin_density
 _atom_site_hse06_ddec_charge
 _atom_site_hse06_ddec_spin_density
 _atom_site_hse06_ddec_sum_bond_order
 _atom_site_hse06_magmom
 _atom_site_pbe_bader_spin_density
 _atom_site_pbe_cm5_charge
 _atom_site_pbe_ddec_charge
 _atom_site_pbe_ddec_spin_density
 _atom_site_pbe_ddec_sum_bond_order
 _atom_site_pbe_magmom
Tb  Tb0  1  0.73865134  0.53085306  0.52791872  1  0  2.289571  0  1.644199  0  0  2.146004  0  2.109915  0  0  2.264043  0  1.936598  0  0  1.521195  2.110405  0  2.14237  0
Tb  Tb1  1  0.26136406  0.46913414  0.47208709  1  0  2.289606  0  1.644232  0  0  2.146019  0  2.109995  0  0  2.264092  0  1.936626  0  0  1.521221  2.11042  0  2.142447  0
H  H2  1  0.89884873  0.81660778  0.52177889  1  0  0.436383  0  0.865295  0  0  0.404896  0  0.928222  0  0  0.417645  0  0.910068  0  0  0.29  0.395859  0  0.941223  0
H  H3  1  0.10115220  0.18337757  0.47820894  1  0  0.436384  0  0.865308  0  0  0.404973  0  0.928121  0  0  0.417724  0  0.909966  0  0  0.290109  0.395934  0  0.941125  0
H  H4  1  0.01545624  0.72250036  0.47355731  1  0  0.441433  0  0.837674  0  0  0.415278  0  0.891939  0  0  0.425841  0  0.876451  0  0  0.308107  0.408068  0  0.90263  0
H  H5  1  0.98455571  0.27749028  0.52644277  1  0  0.441492  0  0.837535  0  0  0.415307  0  0.891865  0  0  0.425876  0  0.876365  0  0  0.308068  0.408093  0  0.902563  0
H  H6  1  0.69524370  0.19288845  0.44930069  1  0  0.449977  0  0.847196  0  0  0.417848  0  0.911694  0  0  0.428959  0  0.895611  0  0  0.30291  0.410128  0  0.922932  0
H  H7  1  0.30477807  0.80711425  0.55070325  1  0  0.449949  0  0.84723  0  0  0.417816  0  0.91173  0  0  0.428926  0  0.895646  0  0  0.302875  0.410085  0  0.922979  0
H  H8  1  0.70342781  0.23994838  0.56782682  1  0  0.445133  0  0.803511  0  0  0.432013  0  0.846271  0  0  0.439993  0  0.835087  0  0  0.337198  0.426417  0  0.853012  0
H  H9  1  0.29658909  0.76004327  0.43217724  1  0  0.44522  0  0.803522  0  0  0.432102  0  0.846175  0  0  0.440082  0  0.834992  0  0  0.337286  0.426507  0  0.853014  0
H  H10  1  0.41469776  0.12832375  0.17475131  1  0  0.29265  0  0.930859  0  0  0.276305  0  0.993926  0  0  0.283185  0  0.989  0  0  0.309055  0.271355  0  0.997594  0
H  H11  1  0.58531183  0.87167690  0.82524736  1  0  0.292629  0  0.930891  0  0  0.276291  0  0.993934  0  0  0.28317  0  0.989005  0  0  0.309068  0.271342  0  0.997602  0
H  H12  1  0.34491283  0.34338355  0.71979485  1  0  0.133117  0  0.893558  0  0  0.146731  0  0.947923  0  0  0.149316  0  0.945576  0  0  0.134112  0.145024  0  0.94932  0
H  H13  1  0.65506848  0.65663500  0.28020567  1  0  0.13305  0  0.893655  0  0  0.146744  0  0.947904  0  0  0.149338  0  0.945546  0  0  0.134107  0.145019  0  0.949325  0
H  H14  1  0.36680773  0.53398725  0.74656874  1  0  0.135154  0  0.93101  0  0  0.141339  0  0.999136  0  0  0.144467  0  0.997001  0  0  0.12944  0.139215  0  1.000462  0
H  H15  1  0.63322224  0.46603986  0.25343047  1  0  0.135096  0  0.93105  0  0  0.141262  0  0.999205  0  0  0.14439  0  0.997071  0  0  0.12939  0.139139  0  1.000536  0
H  H16  1  0.80233566  0.31893603  0.00460653  1  0  0.101623  0  0.958561  0  0  0.110135  0  1.021987  0  0  0.112771  0  1.021646  0  0  0.106135  0.10863  0  1.021661  0
H  H17  1  0.19763400  0.68106457  0.99541261  1  0  0.101472  0  0.958774  0  0  0.109973  0  1.022209  0  0  0.112609  0  1.021865  0  0  0.106086  0.108475  0  1.021892  0
H  H18  1  0.96438419  0.50976968  0.16543211  1  0  0.0976  0  0.952352  0  0  0.109592  0  1.007856  0  0  0.112166  0  1.007188  0  0  0.107147  0.107973  0  1.007864  0
H  H19  1  0.03559719  0.49024203  0.83458093  1  0  0.097512  0  0.952354  0  0  0.109603  0  1.007735  0  0  0.112157  0  1.00709  0  0  0.107064  0.107981  0  1.007741  0
H  H20  1  0.94575153  0.76404911  0.21696603  1  0  0.108598  0  0.928199  0  0  0.11992  0  0.982053  0  0  0.123869  0  0.979502  0  0  0.114646  0.116873  0  0.984259  0
H  H21  1  0.05425264  0.23596597  0.78303415  1  0  0.10849  0  0.928319  0  0  0.119807  0  0.982179  0  0  0.123758  0  0.979627  0  0  0.114576  0.116755  0  0.984388  0
H  H22  1  0.77173650  0.83727110  0.10598199  1  0  0.102279  0  0.97371  0  0  0.112862  0  1.033117  0  0  0.115009  0  1.033363  0  0  0.10771  0.11208  0  1.031968  0
H  H23  1  0.22826960  0.16273959  0.89401451  1  0  0.102317  0  0.973733  0  0  0.112869  0  1.033176  0  0  0.11503  0  1.033407  0  0  0.107739  0.112089  0  1.03202  0
H  H24  1  0.56711882  0.95528835  0.06494422  1  0  0.103489  0  0.953207  0  0  0.109096  0  1.022057  0  0  0.112569  0  1.020446  0  0  0.104952  0.106699  0  1.022992  0
H  H25  1  0.43287171  0.04472003  0.93506503  1  0  0.103551  0  0.953172  0  0  0.109111  0  1.022071  0  0  0.112583  0  1.020459  0  0  0.104947  0.106717  0  1.023003  0
H  H26  1  0.77809205  0.98595145  0.96190475  1  0  0.085723  0  0.972204  0  0  0.095392  0  1.03608  0  0  0.098576  0  1.034219  0  0  0.099734  0.092966  0  1.037497  0
H  H27  1  0.22188179  0.01404504  0.03809122  1  0  0.085822  0  0.972091  0  0  0.095486  0  1.035985  0  0  0.098676  0  1.034107  0  0  0.099735  0.093059  0  1.03741  0
H  H28  1  0.04366273  0.17669618  0.03620019  1  0  0.079845  0  0.990611  0  0  0.088754  0  1.056122  0  0  0.09056  0  1.057164  0  0  0.093903  0.087271  0  1.055824  0
H  H29  1  0.95631378  0.82329826  0.96378352  1  0  0.079773  0  0.990568  0  0  0.088673  0  1.056107  0  0  0.090481  0  1.057147  0  0  0.093834  0.087191  0  1.055807  0
H  H30  1  0.09133277  0.34578446  0.21379702  1  0  0.115745  0  0.966987  0  0  0.120711  0  1.035661  0  0  0.125132  0  1.032266  0  0  0.109925  0.117563  0  1.037984  0
H  H31  1  0.90866958  0.65421536  0.78618635  1  0  0.115737  0  0.966944  0  0  0.120698  0  1.035619  0  0  0.125114  0  1.03224  0  0  0.109934  0.11755  0  1.037936  0
H  H32  1  0.19882708  0.95115859  0.20778377  1  0  0.08359  0  0.919462  0  0  0.100092  0  0.979617  0  0  0.100782  0  0.9794  0  0  0.111263  0.099599  0  0.979734  0
H  H33  1  0.80118062  0.04884002  0.79220452  1  0  0.083668  0  0.919441  0  0  0.100117  0  0.979643  0  0  0.100812  0  0.979429  0  0  0.111285  0.099622  0  0.979758  0
H  H34  1  0.33766831  0.93553442  0.29803717  1  0  0.109078  0  0.924522  0  0  0.119242  0  0.988947  0  0  0.122338  0  0.985645  0  0  0.117991  0.11677  0  0.99187  0
H  H35  1  0.66232805  0.06445097  0.70195044  1  0  0.109092  0  0.924539  0  0  0.119284  0  0.988922  0  0  0.122384  0  0.985622  0  0  0.118007  0.116808  0  0.991842  0
C  C36  1  0.53774232  0.45885518  0.66368420  1  0  0.730262  0  3.814033  0  0  0.685914  0  4.111621  0  0  0.719805  0  4.107683  0  0  0.223683  0.662646  0  4.118919  0
C  C37  1  0.46227309  0.54113196  0.33632581  1  0  0.730545  0  3.813915  0  0  0.686018  0  4.111755  0  0  0.719926  0  4.1078  0  0  0.223839  0.662748  0  4.119052  0
C  C38  1  0.43272838  0.45360785  0.74280192  1  0  -0.13672  0  3.630514  0  0  -0.196664  0  3.881197  0  0  -0.195432  0  3.885064  0  0  -0.045471  -0.197109  0  3.877451  0
C  C39  1  0.56727736  0.54640159  0.25720342  1  0  -0.136698  0  3.630362  0  0  -0.196597  0  3.880988  0  0  -0.195379  0  3.884851  0  0  -0.045416  -0.197027  0  3.877251  0
C  C40  1  0.59458362  0.38827199  0.86668545  1  0  0.505198  0  3.811321  0  0  0.456058  0  4.106673  0  0  0.484372  0  4.106005  0  0  0.249257  0.436646  0  4.106916  0
C  C41  1  0.40539971  0.61173197  0.13332598  1  0  0.505403  0  3.81128  0  0  0.456119  0  4.106826  0  0  0.484443  0  4.106146  0  0  0.249279  0.436719  0  4.107058  0
C  C42  1  0.70202200  0.47462436  0.96532908  1  0  -0.083305  0  3.811505  0  0  -0.071537  0  4.049709  0  0  -0.07698  0  4.072375  0  0  -0.012832  -0.067981  0  4.034572  0
C  C43  1  0.29795718  0.52537407  0.03468373  1  0  -0.083506  0  3.812062  0  0  -0.071687  0  4.050267  0  0  -0.077134  0  4.072932  0  0  -0.012793  -0.068136  0  4.035141  0
C  C44  1  0.79725190  0.43178939  0.02619241  1  0  -0.041843  0  3.697603  0  0  -0.067257  0  3.949531  0  0  -0.06756  0  3.969523  0  0  -0.069575  -0.066946  0  3.935672  0
C  C45  1  0.20272346  0.56821129  0.97381930  1  0  -0.041679  0  3.697964  0  0  -0.067119  0  3.949952  0  0  -0.06742  0  3.969926  0  0  -0.069568  -0.066827  0  3.936114  0
C  C46  1  0.88684371  0.53927952  0.11647980  1  0  -0.045581  0  3.695496  0  0  -0.062536  0  3.951963  0  0  -0.063802  0  3.972407  0  0  -0.073796  -0.061944  0  3.938218  0
C  C47  1  0.11314069  0.46073444  0.88352969  1  0  -0.045469  0  3.695464  0  0  -0.062477  0  3.951917  0  0  -0.063724  0  3.972366  0  0  -0.07369  -0.061873  0  3.938158  0
C  C48  1  0.87761906  0.68350480  0.14515161  1  0  -0.049505  0  3.688623  0  0  -0.065427  0  3.944893  0  0  -0.066769  0  3.962646  0  0  -0.070585  -0.064689  0  3.933517  0
C  C49  1  0.12237791  0.31650586  0.85485075  1  0  -0.049526  0  3.688801  0  0  -0.065412  0  3.945028  0  0  -0.066756  0  3.962788  0  0  -0.070614  -0.064671  0  3.933636  0
C  C50  1  0.78042406  0.72569083  0.08332019  1  0  -0.046679  0  3.698105  0  0  -0.072422  0  3.951221  0  0  -0.071695  0  3.969601  0  0  -0.072067  -0.073314  0  3.938437  0
C  C51  1  0.21957063  0.27431985  0.91668135  1  0  -0.046514  0  3.698182  0  0  -0.072304  0  3.951382  0  0  -0.071593  0  3.969763  0  0  -0.071974  -0.073194  0  3.93859  0
C  C52  1  0.69511354  0.61965305  0.99279702  1  0  -0.09306  0  3.811316  0  0  -0.082942  0  4.055354  0  0  -0.089417  0  4.078532  0  0  -0.01564  -0.078417  0  4.039849  0
C  C53  1  0.30486825  0.38035318  0.00721132  1  0  -0.093097  0  3.811641  0  0  -0.082954  0  4.055621  0  0  -0.089434  0  4.078804  0  0  -0.015696  -0.078432  0  4.040117  0
C  C54  1  0.58820393  0.63016028  0.91021700  1  0  0.515879  0  3.796827  0  0  0.465063  0  4.090242  0  0  0.494312  0  4.089767  0  0  0.25382  0.445031  0  4.090315  0
C  C55  1  0.41177713  0.36984040  0.08979219  1  0  0.515821  0  3.797145  0  0  0.465053  0  4.090458  0  0  0.494316  0  4.089962  0  0  0.253825  0.445026  0  4.090525  0
C  C56  1  0.87735052  0.36214684  0.33726067  1  0  0.726348  0  3.862927  0  0  0.679565  0  4.149871  0  0  0.715705  0  4.142823  0  0  0.239881  0.655263  0  4.157464  0
C  C57  1  0.12266973  0.63785482  0.66274015  1  0  0.72654  0  3.86283  0  0  0.679717  0  4.14981  0  0  0.715855  0  4.142765  0  0  0.239933  0.655406  0  4.157412  0
C  C58  1  0.85437797  0.24803366  0.23681311  1  0  -0.076589  0  3.714818  0  0  -0.062334  0  3.94458  0  0  -0.068245  0  3.963706  0  0  -0.004962  -0.058782  0  3.931292  0
C  C59  1  0.14563275  0.75197033  0.76318425  1  0  -0.076826  0  3.714997  0  0  -0.062537  0  3.944762  0  0  -0.068447  0  3.963888  0  0  -0.005055  -0.058981  0  3.931473  0
C  C60  1  0.70675050  0.13589224  0.19656572  1  0  -0.036723  0  3.703079  0  0  -0.025961  0  3.939326  0  0  -0.028159  0  3.958356  0  0  0.002468  -0.024363  0  3.926325  0
C  C61  1  0.29325637  0.86411726  0.80343547  1  0  -0.036612  0  3.702956  0  0  -0.025849  0  3.939256  0  0  -0.028045  0  3.958284  0  0  0.002523  -0.024255  0  3.926264  0
C  C62  1  0.68001729  0.04371131  0.09678292  1  0  -0.087835  0  3.731991  0  0  -0.110726  0  3.986749  0  0  -0.112309  0  4.005496  0  0  -0.084593  -0.109957  0  3.973044  0
C  C63  1  0.31997553  0.95629384  0.90321871  1  0  -0.08788  0  3.731935  0  0  -0.110728  0  3.986699  0  0  -0.112307  0  4.005439  0  0  -0.084613  -0.109958  0  3.972985  0
C  C64  1  0.80029613  0.05995232  0.03903860  1  0  -0.067351  0  3.772425  0  0  -0.084371  0  4.02855  0  0  -0.085074  0  4.047265  0  0  -0.089482  -0.083004  0  4.014152  0
C  C65  1  0.19968797  0.94004743  0.96095790  1  0  -0.067478  0  3.772389  0  0  -0.084514  0  4.028508  0  0  -0.08521  0  4.047212  0  0  -0.089467  -0.083151  0  4.014129  0
C  C66  1  0.94948857  0.16587857  0.08100040  1  0  -0.078822  0  3.779558  0  0  -0.089275  0  4.027493  0  0  -0.091909  0  4.048947  0  0  -0.094394  -0.087376  0  4.012331  0
C  C67  1  0.05050085  0.83412014  0.91898841  1  0  -0.07865  0  3.779537  0  0  -0.089085  0  4.027448  0  0  -0.091715  0  4.048896  0  0  -0.094292  -0.087185  0  4.012279  0
C  C68  1  0.97659530  0.26016057  0.17995763  1  0  -0.07053  0  3.716669  0  0  -0.093511  0  3.964006  0  0  -0.093413  0  3.982111  0  0  -0.078183  -0.093198  0  3.950936  0
C  C69  1  0.02340478  0.73983919  0.82003124  1  0  -0.070569  0  3.716676  0  0  -0.093559  0  3.964055  0  0  -0.093467  0  3.982158  0  0  -0.078226  -0.093243  0  3.950977  0
C  C70  1  0.58774449  0.09859150  0.26193729  1  0  0.566514  0  3.818391  0  0  0.512591  0  4.116452  0  0  0.543027  0  4.113096  0  0  0.250876  0.492249  0  4.117474  0
C  C71  1  0.41226696  0.90141792  0.73806762  1  0  0.566849  0  3.818021  0  0  0.512793  0  4.116284  0  0  0.543226  0  4.112928  0  0  0.250929  0.492459  0  4.117298  0
C  C72  1  0.24342152  0.11746696  0.35183140  1  0  0.700586  0  3.857689  0  0  0.659163  0  4.158534  0  0  0.691681  0  4.153796  0  0  0.218354  0.637294  0  4.162226  0
C  C73  1  0.75657711  0.88252164  0.64816196  1  0  0.700767  0  3.857159  0  0  0.659283  0  4.158102  0  0  0.691805  0  4.153361  0  0  0.21843  0.637412  0  4.161797  0
C  C74  1  0.30232547  0.01476466  0.26893596  1  0  -0.090085  0  3.66755  0  0  -0.153659  0  3.931964  0  0  -0.151789  0  3.93688  0  0  -0.058498  -0.15454  0  3.927883  0
C  C75  1  0.69767922  0.98522834  0.73105726  1  0  -0.090213  0  3.667517  0  0  -0.153767  0  3.93191  0  0  -0.151919  0  3.936853  0  0  -0.058534  -0.154646  0  3.927826  0
N  N76  1  0.52730285  0.48815349  0.83985107  1  0  -0.273195  0  3.442167  0  0  -0.196268  0  3.680206  0  0  -0.221199  0  3.700062  0  0  -0.254305  -0.178911  0  3.66577  0
N  N77  1  0.47268243  0.51184279  0.16015385  1  0  -0.273181  0  3.442041  0  0  -0.196277  0  3.68012  0  0  -0.221215  0  3.699971  0  0  -0.25438  -0.178918  0  3.665671  0
N  N78  1  0.43409335  0.08200828  0.22751497  1  0  -0.393658  0  3.352557  0  0  -0.339828  0  3.607506  0  0  -0.360124  0  3.615307  0  0  -0.416225  -0.325778  0  3.601309  0
N  N79  1  0.56591777  0.91799343  0.77248612  1  0  -0.393665  0  3.352465  0  0  -0.339736  0  3.607361  0  0  -0.360019  0  3.615162  0  0  -0.416121  -0.325693  0  3.601161  0
O  O80  1  0.90243062  0.71687503  0.47565330  1  0  -0.926212  0  1.826846  0  0  -0.87582  0  2.000008  0  0  -0.904394  0  1.960188  0  0  -0.647093  -0.861858  0  2.023112  0
O  O81  1  0.09758060  0.28311016  0.52434063  1  0  -0.926278  0  1.826848  0  0  -0.875917  0  1.99992  0  0  -0.904502  0  1.960094  0  0  -0.647167  -0.86195  0  2.023028  0
O  O82  1  0.68647131  0.48078101  0.68521538  1  0  -0.661211  0  1.973078  0  0  -0.618749  0  2.207829  0  0  -0.648882  0  2.197641  0  0  -0.350558  -0.602306  0  2.213731  0
O  O83  1  0.31354523  0.51920936  0.31480032  1  0  -0.661156  0  1.973097  0  0  -0.618677  0  2.207986  0  0  -0.648823  0  2.19779  0  0  -0.350529  -0.60223  0  2.21389  0
O  O84  1  0.74236509  0.27562051  0.51528221  1  0  -0.902841  0  1.8454  0  0  -0.849998  0  2.020842  0  0  -0.877341  0  1.985409  0  0  -0.597303  -0.836262  0  2.040452  0
O  O85  1  0.25765862  0.72437770  0.48472505  1  0  -0.902882  0  1.845394  0  0  -0.850044  0  2.020749  0  0  -0.87739  0  1.985311  0  0  -0.597346  -0.836295  0  2.040487  0
O  O86  1  0.75301845  0.39171887  0.36642123  1  0  -0.711121  0  2.051259  0  0  -0.656165  0  2.299672  0  0  -0.691582  0  2.287672  0  0  -0.38563  -0.638005  0  2.305953  0
O  O87  1  0.24700451  0.60827714  0.63358480  1  0  -0.711177  0  2.051136  0  0  -0.656229  0  2.299627  0  0  -0.691656  0  2.287631  0  0  -0.385658  -0.63807  0  2.30591  0
O  O88  1  0.29588652  0.25633856  0.36831535  1  0  -0.763086  0  2.022088  0  0  -0.714315  0  2.278316  0  0  -0.751021  0  2.265756  0  0  -0.425645  -0.695794  0  2.28411  0
O  O89  1  0.70413305  0.74365082  0.63169115  1  0  -0.763176  0  2.021839  0  0  -0.714396  0  2.278093  0  0  -0.751094  0  2.265532  0  0  -0.425658  -0.695877  0  2.283889  0
O  O90  1  0.01832567  0.42851220  0.38711563  1  0  -0.770055  0  2.124566  0  0  -0.719143  0  2.392932  0  0  -0.757425  0  2.37767  0  0  -0.424641  -0.701361  0  2.401647  0
O  O91  1  0.98169728  0.57148396  0.61288131  1  0  -0.770156  0  2.124563  0  0  -0.719231  0  2.392934  0  0  -0.757504  0  2.377674  0  0  -0.42464  -0.701447  0  2.401656  0
O  O92  1  0.47197882  0.44188705  0.57473546  1  0  -0.823512  0  2.092843  0  0  -0.767567  0  2.355946  0  0  -0.811714  0  2.342793  0  0  -0.43712  -0.748904  0  2.363242  0
O  O93  1  0.52804274  0.55809127  0.42526869  1  0  -0.82372  0  2.092965  0  0  -0.767693  0  2.356113  0  0  -0.811848  0  2.342954  0  0  -0.437247  -0.749026  0  2.363413  0
O  O94  1  0.63114720  0.07078738  0.33818178  1  0  -0.573683  0  1.932962  0  0  -0.529223  0  2.143882  0  0  -0.54923  0  2.132668  0  0  -0.307237  -0.514925  0  2.150699  0
O  O95  1  0.36886271  0.92922426  0.66182354  1  0  -0.573902  0  1.932779  0  0  -0.529402  0  2.143772  0  0  -0.549407  0  2.132556  0  0  -0.30732  -0.515103  0  2.150587  0
O  O96  1  0.56484877  0.25823772  0.81649402  1  0  -0.44895  0  1.923932  0  0  -0.410514  0  2.135848  0  0  -0.428554  0  2.130881  0  0  -0.251187  -0.398443  0  2.139216  0
O  O97  1  0.43514448  0.74176177  0.18351481  1  0  -0.448967  0  1.924058  0  0  -0.410493  0  2.136064  0  0  -0.428536  0  2.131093  0  0  -0.251165  -0.398427  0  2.13943  0
O  O98  1  0.55813084  0.73991901  0.90186071  1  0  -0.488868  0  1.978896  0  0  -0.440411  0  2.19883  0  0  -0.460492  0  2.194436  0  0  -0.25431  -0.426816  0  2.201652  0
O  O99  1  0.44183696  0.26007288  0.09814938  1  0  -0.488927  0  1.979064  0  0  -0.440426  0  2.198917  0  0  -0.46051  0  2.194508  0  0  -0.254296  -0.426848  0  2.201777  0
O  O100  1  0.14425861  0.05509431  0.39590155  1  0  -0.614797  0  1.885212  0  0  -0.567985  0  2.080235  0  0  -0.591675  0  2.069467  0  0  -0.322486  -0.551074  0  2.086862  0
O  O101  1  0.85572255  0.94488685  0.60407875  1  0  -0.614838  0  1.885021  0  0  -0.567967  0  2.080073  0  0  -0.591657  0  2.069302  0  0  -0.32257  -0.551059  0  2.086701  0
