# generated using pymatgen
data_KH11C6N4O5
_symmetry_space_group_name_H-M   'P 1'
_cell_length_a   7.43952268
_cell_length_b   10.04290684
_cell_length_c   15.75097492
_cell_angle_alpha   108.58858363
_cell_angle_beta   103.66073191
_cell_angle_gamma   90.00307494
_symmetry_Int_Tables_number   1
_chemical_formula_structural   KH11C6N4O5
_chemical_formula_sum   'K4 H44 C24 N16 O20'
_cell_volume   1080.24600922
_cell_formula_units_Z   4
loop_
 _symmetry_equiv_pos_site_id
 _symmetry_equiv_pos_as_xyz
  1  'x, y, z'
loop_
 _atom_site_type_symbol
 _atom_site_label
 _atom_site_symmetry_multiplicity
 _atom_site_fract_x
 _atom_site_fract_y
 _atom_site_fract_z
 _atom_site_occupancy
 _atom_site_hle17_bader_spin_density
 _atom_site_hle17_ddec_charge
 _atom_site_hle17_ddec_spin_density
 _atom_site_hle17_ddec_sum_bond_order
 _atom_site_hle17_magmom
 _atom_site_hse06_10hf_bader_spin_density
 _atom_site_hse06_10hf_ddec_charge
 _atom_site_hse06_10hf_ddec_spin_density
 _atom_site_hse06_10hf_ddec_sum_bond_order
 _atom_site_hse06_10hf_magmom
 _atom_site_hse06_bader_spin_density
 _atom_site_hse06_ddec_charge
 _atom_site_hse06_ddec_spin_density
 _atom_site_hse06_ddec_sum_bond_order
 _atom_site_hse06_magmom
 _atom_site_pbe_bader_spin_density
 _atom_site_pbe_cm5_charge
 _atom_site_pbe_ddec_charge
 _atom_site_pbe_ddec_spin_density
 _atom_site_pbe_ddec_sum_bond_order
 _atom_site_pbe_magmom
K  K0  1  0.76859117  0.76881343  0.53758125  1  0  0.921847  0  0.500538  0  0  0.877346  0  0.686472  0  0  0.890425  0  0.663891  0  0  0.79241  0.86698  0  0.703528  0
K  K1  1  0.23133808  0.23136728  0.46237761  1  0  0.921848  0  0.501077  0  0  0.877238  0  0.687293  0  0  0.890512  0  0.664487  0  0  0.792878  0.866896  0  0.704335  0
K  K2  1  0.26093691  0.76108422  0.52239300  1  0  0.93187  0  0.479947  0  0  0.892573  0  0.652267  0  0  0.90491  0  0.630874  0  0  0.803409  0.882761  0  0.668463  0
K  K3  1  0.73914279  0.23878130  0.47759643  1  0  0.931953  0  0.479329  0  0  0.892784  0  0.651207  0  0  0.905041  0  0.62992  0  0  0.802559  0.88296  0  0.667433  0
H  H4  1  0.56574118  0.32714513  0.72099540  1  0  0.30723  0  0.949688  0  0  0.27767  0  1.032899  0  0  0.288326  0  1.022539  0  0  0.307598  0.270202  0  1.040213  0
H  H5  1  0.15514389  0.39387637  0.72106674  1  0  0.308792  0  0.949401  0  0  0.278602  0  1.033172  0  0  0.28919  0  1.02292  0  0  0.308216  0.271156  0  1.040461  0
H  H6  1  0.43397199  0.60618024  0.27897933  1  0  0.309037  0  0.949456  0  0  0.278849  0  1.033235  0  0  0.289518  0  1.022822  0  0  0.308405  0.271387  0  1.040541  0
H  H7  1  0.84515903  0.67286871  0.27898237  1  0  0.307208  0  0.950343  0  0  0.278008  0  1.033108  0  0  0.288688  0  1.022728  0  0  0.307863  0.270534  0  1.040418  0
H  H8  1  0.75624660  0.36275778  0.98782076  1  0  0.288689  0  0.941076  0  0  0.257339  0  1.030215  0  0  0.267037  0  1.021283  0  0  0.30188  0.250736  0  1.036213  0
H  H9  1  0.23146177  0.62495655  0.98789454  1  0  0.287623  0  0.943778  0  0  0.256279  0  1.0323  0  0  0.265972  0  1.023395  0  0  0.301267  0.249668  0  1.038296  0
H  H10  1  0.24369604  0.37502555  0.01212901  1  0  0.287691  0  0.943011  0  0  0.256946  0  1.031057  0  0  0.26659  0  1.022175  0  0  0.301673  0.250382  0  1.037031  0
H  H11  1  0.76847274  0.63713241  0.01212260  1  0  0.288179  0  0.941468  0  0  0.25661  0  1.03081  0  0  0.266282  0  1.021855  0  0  0.301515  0.250018  0  1.036833  0
H  H12  1  0.41130644  0.07961944  0.72169829  1  0  0.069209  0  0.913593  0  0  0.079747  0  0.973472  0  0  0.081282  0  0.972377  0  0  0.118261  0.078667  0  0.97446  0
H  H13  1  0.31017114  0.64206476  0.72176403  1  0  0.069791  0  0.91311  0  0  0.079704  0  0.97317  0  0  0.081189  0  0.972131  0  0  0.118393  0.078666  0  0.974093  0
H  H14  1  0.58846230  0.35803750  0.27828889  1  0  0.069289  0  0.914082  0  0  0.079404  0  0.973861  0  0  0.080932  0  0.972766  0  0  0.118468  0.078319  0  0.974843  0
H  H15  1  0.69013898  0.92036349  0.27833970  1  0  0.06928  0  0.913168  0  0  0.079988  0  0.9734  0  0  0.081483  0  0.972409  0  0  0.118432  0.078918  0  0.974335  0
H  H16  1  0.83594223  0.08573299  0.76118342  1  0  0.08349  0  0.966179  0  0  0.09218  0  1.038297  0  0  0.0938  0  1.038081  0  0  0.095792  0.090948  0  1.038429  0
H  H17  1  0.92512446  0.67551102  0.76137643  1  0  0.082858  0  0.96698  0  0  0.091748  0  1.03872  0  0  0.093332  0  1.038534  0  0  0.095667  0.090543  0  1.038842  0
H  H18  1  0.16380455  0.32436092  0.23863421  1  0  0.083174  0  0.966544  0  0  0.091654  0  1.0387  0  0  0.093231  0  1.038534  0  0  0.095702  0.090447  0  1.038811  0
H  H19  1  0.07514058  0.91434116  0.23870180  1  0  0.082949  0  0.96638  0  0  0.091807  0  1.038105  0  0  0.093415  0  1.037876  0  0  0.095533  0.090575  0  1.038273  0
H  H20  1  0.68443920  0.93077081  0.70844847  1  0  0.074444  0  0.952987  0  0  0.090914  0  1.016801  0  0  0.092567  0  1.016305  0  0  0.100961  0.089353  0  1.017664  0
H  H21  1  0.02383326  0.77773961  0.70861176  1  0  0.075012  0  0.953888  0  0  0.091049  0  1.018091  0  0  0.092703  0  1.017617  0  0  0.101355  0.08951  0  1.018924  0
H  H22  1  0.31541719  0.22222014  0.29141268  1  0  0.074866  0  0.953733  0  0  0.090811  0  1.018074  0  0  0.092459  0  1.017614  0  0  0.101273  0.089259  0  1.018904  0
H  H23  1  0.97634953  0.06928933  0.29144859  1  0  0.074671  0  0.952948  0  0  0.091131  0  1.016576  0  0  0.092756  0  1.016069  0  0  0.1011  0.08959  0  1.017451  0
H  H24  1  0.61400474  0.93284735  0.84529146  1  0  0.076246  0  0.936826  0  0  0.095071  0  0.994826  0  0  0.095889  0  0.995073  0  0  0.093466  0.093682  0  0.996167  0
H  H25  1  0.23147746  0.91235734  0.84540662  1  0  0.075396  0  0.937034  0  0  0.094709  0  0.99467  0  0  0.095631  0  0.994761  0  0  0.093393  0.093262  0  0.996095  0
H  H26  1  0.38613599  0.08760407  0.15460773  1  0  0.076181  0  0.936673  0  0  0.095324  0  0.994585  0  0  0.096208  0  0.994708  0  0  0.093543  0.093935  0  0.995926  0
H  H27  1  0.76859655  0.06698659  0.15469097  1  0  0.076152  0  0.936703  0  0  0.094965  0  0.994849  0  0  0.095844  0  0.995004  0  0  0.093616  0.093549  0  0.996233  0
H  H28  1  0.84126626  0.01490987  0.88877961  1  0  0.077808  0  0.94157  0  0  0.09583  0  0.999024  0  0  0.09699  0  0.998862  0  0  0.094407  0.095033  0  0.998933  0
H  H29  1  0.04759885  0.87399203  0.88892442  1  0  0.077752  0  0.941651  0  0  0.095553  0  0.999484  0  0  0.096648  0  0.999444  0  0  0.094671  0.094765  0  0.999362  0
H  H30  1  0.15881015  0.12599498  0.11106983  1  0  0.077296  0  0.941769  0  0  0.095689  0  0.999156  0  0  0.096801  0  0.999063  0  0  0.094591  0.094922  0  0.999032  0
H  H31  1  0.95242450  0.98514831  0.11111504  1  0  0.078282  0  0.941007  0  0  0.096311  0  0.998676  0  0  0.097394  0  0.99861  0  0  0.094816  0.095551  0  0.998528  0
H  H32  1  0.65625541  0.15031615  0.98612565  1  0  0.071512  0  0.938628  0  0  0.089376  0  0.998516  0  0  0.090132  0  0.998064  0  0  0.112219  0.088923  0  0.998866  0
H  H33  1  0.32984820  0.83567760  0.98623781  1  0  0.071602  0  0.938919  0  0  0.089437  0  0.998836  0  0  0.090209  0  0.998329  0  0  0.111955  0.088985  0  0.999196  0
H  H34  1  0.34382830  0.16434527  0.01380556  1  0  0.071381  0  0.939116  0  0  0.089247  0  0.998836  0  0  0.089954  0  0.998404  0  0  0.11197  0.088833  0  0.999157  0
H  H35  1  0.67012668  0.84958384  0.01388472  1  0  0.071955  0  0.938916  0  0  0.090056  0  0.99841  0  0  0.090842  0  0.997939  0  0  0.112455  0.0896  0  0.998765  0
H  H36  1  0.47273434  0.14940243  0.89101697  1  0  0.052873  0  0.95754  0  0  0.064538  0  1.030043  0  0  0.064591  0  1.030275  0  0  0.098464  0.064015  0  1.030414  0
H  H37  1  0.41820637  0.74143167  0.89112309  1  0  0.054785  0  0.957466  0  0  0.066007  0  1.030411  0  0  0.066087  0  1.030627  0  0  0.099114  0.065465  0  1.030811  0
H  H38  1  0.52726681  0.25859481  0.10894751  1  0  0.053271  0  0.957537  0  0  0.064474  0  1.030142  0  0  0.064508  0  1.03043  0  0  0.098516  0.063978  0  1.030508  0
H  H39  1  0.58190427  0.85031581  0.10901897  1  0  0.053982  0  0.958035  0  0  0.065696  0  1.030201  0  0  0.065756  0  1.030463  0  0  0.098945  0.065165  0  1.030591  0
H  H40  1  0.59174265  0.59682961  0.66031038  1  0  0.417177  0  0.88605  0  0  0.387093  0  0.948941  0  0  0.397555  0  0.933304  0  0  0.289192  0.379519  0  0.960337  0
H  H41  1  0.06850353  0.06346659  0.66036548  1  0  0.41769  0  0.885344  0  0  0.387947  0  0.947798  0  0  0.398405  0  0.932169  0  0  0.289483  0.380355  0  0.959223  0
H  H42  1  0.40832273  0.93657880  0.33965325  1  0  0.415977  0  0.887672  0  0  0.386334  0  0.950026  0  0  0.396784  0  0.934382  0  0  0.288588  0.37876  0  0.961439  0
H  H43  1  0.93153702  0.40326187  0.33966103  1  0  0.417913  0  0.885028  0  0  0.38812  0  0.947551  0  0  0.398625  0  0.931817  0  0  0.289565  0.380552  0  0.958958  0
H  H44  1  0.52233530  0.54561231  0.55127911  1  0  0.402198  0  0.910093  0  0  0.371639  0  0.974985  0  0  0.383717  0  0.95704  0  0  0.28259  0.363012  0  0.987785  0
H  H45  1  0.02917791  0.00553214  0.55135920  1  0  0.403017  0  0.908957  0  0  0.372852  0  0.973444  0  0  0.384971  0  0.955427  0  0  0.282984  0.364211  0  0.986265  0
H  H46  1  0.47757658  0.99446550  0.44867860  1  0  0.401553  0  0.911063  0  0  0.371616  0  0.975215  0  0  0.383676  0  0.957255  0  0  0.282502  0.36298  0  0.988058  0
H  H47  1  0.97095098  0.45435615  0.44868144  1  0  0.403418  0  0.908491  0  0  0.373108  0  0.972919  0  0  0.385187  0  0.954963  0  0  0.283365  0.364498  0  0.98569  0
C  C48  1  0.53289933  0.09968858  0.61646376  1  0  0.662532  0  3.875019  0  0  0.617532  0  4.176692  0  0  0.649719  0  4.169173  0  0  0.212454  0.595661  0  4.180784  0
C  C49  1  0.08323187  0.51690148  0.61657215  1  0  0.663455  0  3.875942  0  0  0.618317  0  4.177256  0  0  0.650518  0  4.169673  0  0  0.212261  0.596438  0  4.181405  0
C  C50  1  0.46668681  0.48316786  0.38346753  1  0  0.66185  0  3.873279  0  0  0.617055  0  4.174073  0  0  0.649224  0  4.166541  0  0  0.212109  0.595199  0  4.178185  0
C  C51  1  0.91703437  0.90031991  0.38352351  1  0  0.664167  0  3.876115  0  0  0.619082  0  4.178703  0  0  0.651314  0  4.171102  0  0  0.212017  0.597167  0  4.182863  0
C  C52  1  0.54826725  0.11976829  0.72006302  1  0  0.053404  0  3.579261  0  0  0.035513  0  3.819011  0  0  0.036354  0  3.831158  0  0  0.018939  0.034913  0  3.810655  0
C  C53  1  0.17155284  0.60031758  0.72015983  1  0  0.052099  0  3.580606  0  0  0.035565  0  3.818721  0  0  0.036436  0  3.830803  0  0  0.018818  0.034944  0  3.810402  0
C  C54  1  0.45142368  0.39973776  0.27988163  1  0  0.053089  0  3.580425  0  0  0.03649  0  3.8183  0  0  0.037384  0  3.830408  0  0  0.018592  0.035873  0  3.809982  0
C  C55  1  0.82877313  0.88025313  0.27994613  1  0  0.054022  0  3.577056  0  0  0.034453  0  3.820154  0  0  0.035216  0  3.832316  0  0  0.018662  0.033945  0  3.811654  0
C  C56  1  0.70134953  0.03765515  0.75850767  1  0  -0.146705  0  3.658372  0  0  -0.188915  0  3.913064  0  0  -0.190836  0  3.9266  0  0  -0.161306  -0.187147  0  3.903394  0
C  C57  1  0.05701250  0.72089306  0.75865885  1  0  -0.145933  0  3.659728  0  0  -0.188116  0  3.914223  0  0  -0.190049  0  3.927841  0  0  -0.160807  -0.186369  0  3.904534  0
C  C58  1  0.29849227  0.27907236  0.24136898  1  0  -0.145657  0  3.658534  0  0  -0.187307  0  3.912692  0  0  -0.189273  0  3.926379  0  0  -0.160785  -0.185508  0  3.902922  0
C  C59  1  0.94320639  0.96237822  0.24143234  1  0  -0.147051  0  3.657176  0  0  -0.18851  0  3.912262  0  0  -0.19034  0  3.925677  0  0  -0.160982  -0.186816  0  3.90267  0
C  C60  1  0.69950087  0.02772054  0.85362763  1  0  -0.124505  0  3.660915  0  0  -0.165579  0  3.924204  0  0  -0.167039  0  3.937608  0  0  -0.163551  -0.16401  0  3.915093  0
C  C61  1  0.15415679  0.82590932  0.85376679  1  0  -0.1221  0  3.6611  0  0  -0.163328  0  3.924305  0  0  -0.164816  0  3.937788  0  0  -0.163301  -0.161742  0  3.915221  0
C  C62  1  0.30052273  0.17406172  0.14625766  1  0  -0.123806  0  3.660237  0  0  -0.165976  0  3.924058  0  0  -0.167392  0  3.937465  0  0  -0.164104  -0.164448  0  3.915031  0
C  C63  1  0.84594890  0.97221128  0.14631969  1  0  -0.123555  0  3.660291  0  0  -0.165179  0  3.924053  0  0  -0.166669  0  3.937474  0  0  -0.163634  -0.163598  0  3.914992  0
C  C64  1  0.62487569  0.15338472  0.91529595  1  0  0.057182  0  3.641113  0  0  -0.00422  0  3.908019  0  0  0.001144  0  3.919307  0  0  -0.06337  -0.007923  0  3.90029  0
C  C65  1  0.29034852  0.76180696  0.91540299  1  0  0.054091  0  3.643546  0  0  -0.007786  0  3.910617  0  0  -0.002344  0  3.92186  0  0  -0.064587  -0.011534  0  3.902943  0
C  C66  1  0.37513108  0.23818726  0.08464827  1  0  0.056509  0  3.640874  0  0  -0.004034  0  3.907457  0  0  0.001396  0  3.918722  0  0  -0.063239  -0.007853  0  3.89987  0
C  C67  1  0.70972191  0.84648491  0.08470800  1  0  0.05511  0  3.643403  0  0  -0.006623  0  3.909923  0  0  -0.00129  0  3.921217  0  0  -0.064348  -0.010353  0  3.902276  0
C  C68  1  0.65957708  0.34716238  0.85460373  1  0  0.593732  0  3.800539  0  0  0.533175  0  4.101042  0  0  0.563776  0  4.104152  0  0  0.357777  0.512533  0  4.098432  0
C  C69  1  0.19472724  0.50743260  0.85466471  1  0  0.594727  0  3.800431  0  0  0.53326  0  4.101851  0  0  0.563848  0  4.104954  0  0  0.356518  0.512634  0  4.099221  0
C  C70  1  0.34015969  0.49261002  0.14536006  1  0  0.591585  0  3.801332  0  0  0.53107  0  4.102836  0  0  0.561634  0  4.105997  0  0  0.355948  0.510475  0  4.100182  0
C  C71  1  0.80546450  0.65283594  0.14537586  1  0  0.595254  0  3.798646  0  0  0.533482  0  4.100652  0  0  0.564064  0  4.103756  0  0  0.35744  0.512857  0  4.09803  0
N  N72  1  0.57545951  0.27281190  0.76748762  1  0  -0.446614  0  3.294974  0  0  -0.396319  0  3.552439  0  0  -0.417311  0  3.560265  0  0  -0.412608  -0.382277  0  3.546989  0
N  N73  1  0.19183411  0.49469206  0.76756690  1  0  -0.447832  0  3.295595  0  0  -0.397199  0  3.553193  0  0  -0.418059  0  3.560899  0  0  -0.413237  -0.383186  0  3.547745  0
N  N74  1  0.42426127  0.50537049  0.23247884  1  0  -0.447435  0  3.295043  0  0  -0.397233  0  3.552948  0  0  -0.418217  0  3.560781  0  0  -0.413169  -0.383205  0  3.547478  0
N  N75  1  0.80852938  0.72721286  0.23249637  1  0  -0.446294  0  3.294875  0  0  -0.396082  0  3.553391  0  0  -0.416968  0  3.561054  0  0  -0.412468  -0.382058  0  3.547932  0
N  N76  1  0.70427225  0.29098100  0.92261530  1  0  -0.408827  0  3.251683  0  0  -0.345991  0  3.504304  0  0  -0.367186  0  3.510973  0  0  -0.409886  -0.331025  0  3.499156  0
N  N77  1  0.21809434  0.63159236  0.92269399  1  0  -0.408303  0  3.254824  0  0  -0.344017  0  3.505922  0  0  -0.365353  0  3.512862  0  0  -0.408355  -0.328973  0  3.500672  0
N  N78  1  0.29558879  0.36842865  0.07733958  1  0  -0.407204  0  3.253733  0  0  -0.345212  0  3.506153  0  0  -0.366392  0  3.512978  0  0  -0.409222  -0.330271  0  3.500963  0
N  N79  1  0.78197108  0.70895566  0.07733832  1  0  -0.409485  0  3.252389  0  0  -0.34515  0  3.503785  0  0  -0.366288  0  3.51055  0  0  -0.409239  -0.330216  0  3.498607  0
N  N80  1  0.70093222  0.49168972  0.88677499  1  0  -0.467335  0  2.824517  0  0  -0.458658  0  3.121145  0  0  -0.477396  0  3.124531  0  0  -0.231865  -0.446071  0  3.118479  0
N  N81  1  0.18552621  0.39506275  0.88681351  1  0  -0.459682  0  2.836292  0  0  -0.459526  0  3.12376  0  0  -0.478278  0  3.127153  0  0  -0.231284  -0.446958  0  3.121112  0
N  N82  1  0.29887462  0.60498283  0.11320538  1  0  -0.457985  0  2.835612  0  0  -0.458063  0  3.123182  0  0  -0.476814  0  3.12661  0  0  -0.23066  -0.445487  0  3.120493  0
N  N83  1  0.81454705  0.50830564  0.11320768  1  0  -0.460121  0  2.833653  0  0  -0.459221  0  3.12172  0  0  -0.478011  0  3.125178  0  0  -0.232115  -0.446636  0  3.119008  0
N  N84  1  0.69047017  0.56332295  0.82828277  1  0  0.646565  0  4.011794  0  0  0.660236  0  4.328286  0  0  0.685686  0  4.337721  0  0  0.11674  0.643356  0  4.321139  0
N  N85  1  0.13754124  0.26495161  0.82830547  1  0  0.621078  0  4.051725  0  0  0.662478  0  4.327555  0  0  0.6879  0  4.337003  0  0  0.117294  0.645597  0  4.320438  0
N  N86  1  0.30943812  0.73509936  0.17171301  1  0  0.620462  0  4.049564  0  0  0.661739  0  4.326129  0  0  0.687155  0  4.335591  0  0  0.117061  0.64486  0  4.319008  0
N  N87  1  0.86239000  0.43666281  0.17169243  1  0  0.620477  0  4.051379  0  0  0.659894  0  4.329988  0  0  0.685419  0  4.339414  0  0  0.117134  0.643006  0  4.322826  0
O  O88  1  0.52101431  0.97360900  0.56166852  1  0  -0.743256  0  1.99683  0  0  -0.692116  0  2.231711  0  0  -0.717419  0  2.220611  0  0  -0.459294  -0.673835  0  2.23885  0
O  O89  1  0.04005084  0.58825150  0.56182994  1  0  -0.744229  0  1.995945  0  0  -0.693163  0  2.230874  0  0  -0.718432  0  2.219691  0  0  -0.460342  -0.674942  0  2.238081  0
O  O90  1  0.47860280  0.41182443  0.43824105  1  0  -0.743593  0  1.995156  0  0  -0.692451  0  2.229828  0  0  -0.717751  0  2.218708  0  0  -0.459598  -0.674208  0  2.236998  0
O  O91  1  0.96030027  0.02638973  0.43829641  1  0  -0.744417  0  1.997494  0  0  -0.692979  0  2.232666  0  0  -0.718289  0  2.221469  0  0  -0.459415  -0.674728  0  2.239876  0
O  O92  1  0.52977107  0.20924454  0.59334569  1  0  -0.690114  0  1.954472  0  0  -0.641831  0  2.182087  0  0  -0.664842  0  2.171851  0  0  -0.453486  -0.625554  0  2.188976  0
O  O93  1  0.06353661  0.38421018  0.59338428  1  0  -0.691276  0  1.95664  0  0  -0.642899  0  2.184218  0  0  -0.665905  0  2.173955  0  0  -0.45359  -0.626614  0  2.191121  0
O  O94  1  0.46991207  0.61584189  0.40662013  1  0  -0.689954  0  1.954483  0  0  -0.641708  0  2.181773  0  0  -0.664691  0  2.171546  0  0  -0.453476  -0.625436  0  2.188644  0
O  O95  1  0.93655167  0.79077383  0.40667657  1  0  -0.691662  0  1.955928  0  0  -0.643131  0  2.183652  0  0  -0.666136  0  2.173361  0  0  -0.453967  -0.626837  0  2.190567  0
O  O96  1  0.65947090  0.50484680  0.74075795  1  0  -0.471725  0  1.806929  0  0  -0.433603  0  2.016287  0  0  -0.448945  0  2.008924  0  0  -0.160205  -0.422902  0  2.021407  0
O  O97  1  0.08105781  0.23595851  0.74078511  1  0  -0.462189  0  1.817349  0  0  -0.434536  0  2.016652  0  0  -0.449941  0  2.009391  0  0  -0.160742  -0.423812  0  2.021774  0
O  O98  1  0.34038835  0.76412766  0.25923605  1  0  -0.462113  0  1.817544  0  0  -0.434151  0  2.016642  0  0  -0.449558  0  2.009317  0  0  -0.160205  -0.423417  0  2.021762  0
O  O99  1  0.91880913  0.49515540  0.25922209  1  0  -0.462341  0  1.816784  0  0  -0.433446  0  2.016286  0  0  -0.449102  0  2.009072  0  0  -0.160626  -0.422682  0  2.021388  0
O  O100  1  0.71513638  0.69530404  0.86352061  1  0  -0.442774  0  1.728412  0  0  -0.42603  0  1.947002  0  0  -0.438596  0  1.941872  0  0  -0.168  -0.417581  0  1.951496  0
O  O101  1  0.14811874  0.16817400  0.86350760  1  0  -0.435179  0  1.738754  0  0  -0.427186  0  1.945113  0  0  -0.43956  0  1.939775  0  0  -0.168204  -0.418745  0  1.949603  0
O  O102  1  0.28497397  0.83186714  0.13649631  1  0  -0.434668  0  1.737462  0  0  -0.426772  0  1.944163  0  0  -0.439148  0  1.93882  0  0  -0.168506  -0.418348  0  1.948681  0
O  O103  1  0.85173665  0.30468312  0.13645408  1  0  -0.43459  0  1.740681  0  0  -0.425846  0  1.947569  0  0  -0.438191  0  1.942196  0  0  -0.167878  -0.417424  0  1.952068  0
O  O104  1  0.54614894  0.63090443  0.60747516  1  0  -0.918788  0  1.779189  0  0  -0.879212  0  1.946683  0  0  -0.896438  0  1.913361  0  0  -0.714441  -0.866683  0  1.970748  0
O  O105  1  0.06123377  0.97648914  0.60758078  1  0  -0.920322  0  1.777777  0  0  -0.881288  0  1.943723  0  0  -0.898506  0  1.910279  0  0  -0.7152  -0.868812  0  1.967993  0
O  O106  1  0.45393908  0.02351293  0.39246230  1  0  -0.917326  0  1.781543  0  0  -0.878517  0  1.946866  0  0  -0.895668  0  1.913712  0  0  -0.713667  -0.866092  0  1.970963  0
O  O107  1  0.93881165  0.36909967  0.39246421  1  0  -0.920867  0  1.77762  0  0  -0.881602  0  1.944366  0  0  -0.898792  0  1.910982  0  0  -0.715821  -0.86917  0  1.968507  0
