# generated using pymatgen
data_Cu2H26(C8O5)3
_symmetry_space_group_name_H-M   'P 1'
_cell_length_a   11.94147182
_cell_length_b   18.23387581
_cell_length_c   18.27532328
_cell_angle_alpha   90.03047099
_cell_angle_beta   90.02912874
_cell_angle_gamma   89.97784047
_symmetry_Int_Tables_number   1
_chemical_formula_structural   Cu2H26(C8O5)3
_chemical_formula_sum   'Cu8 H104 C96 O60'
_cell_volume   3979.25498333
_cell_formula_units_Z   4
loop_
 _symmetry_equiv_pos_site_id
 _symmetry_equiv_pos_as_xyz
  1  'x, y, z'
loop_
 _atom_site_type_symbol
 _atom_site_label
 _atom_site_symmetry_multiplicity
 _atom_site_fract_x
 _atom_site_fract_y
 _atom_site_fract_z
 _atom_site_occupancy
 _atom_site_pbe_bader_charge
 _atom_site_pbe_bader_spin_density
 _atom_site_pbe_cm5_charge
 _atom_site_pbe_ddec_charge
 _atom_site_pbe_ddec_spin_density
 _atom_site_pbe_ddec_sum_bond_order
 _atom_site_pbe_magmom
Cu  Cu0  1  0.91891507  0.72274331  0.72698876  1  1.078865  0.537334  0.682823  0.816955  0.692975  2.275681  0.534
Cu  Cu1  1  0.91888009  0.27727323  0.27298526  1  1.078355  0.537355  0.682791  0.816994  0.693009  2.275509  0.534
Cu  Cu2  1  0.08181076  0.77750904  0.22668046  1  1.05282  -0.001706  0.666054  0.791363  -0.00216  2.277643  -0.004
Cu  Cu3  1  0.08111606  0.22271340  0.77300450  1  1.078526  -0.537311  0.683014  0.816825  -0.691789  2.277372  -0.534
Cu  Cu4  1  0.06539698  0.79425285  0.80028137  1  1.093803  -0.547803  0.681364  0.851627  -0.703627  2.288926  -0.545
Cu  Cu5  1  0.06538658  0.20578344  0.19972432  1  1.093599  -0.547738  0.68125  0.851632  -0.703571  2.288771  -0.545
Cu  Cu6  1  0.93374665  0.70544334  0.30066692  1  1.062587  0.00179  0.662166  0.823423  0.002261  2.289106  0.004
Cu  Cu7  1  0.93458856  0.29423655  0.69971755  1  1.094137  0.547737  0.681721  0.851951  0.704797  2.289825  0.545
H  H8  1  0.03728181  0.50591329  0.75864799  1  0.093674  0.000385  0.10872  0.121113  0.000379  1.030116  0.0
H  H9  1  0.03705472  0.49433800  0.24139490  1  0.09357  0.0002  0.108911  0.121673  0.000194  1.030138  0.0
H  H10  1  0.96302679  0.99386030  0.25872115  1  0.092044  -0.000185  0.10876  0.121393  -0.000184  1.030454  0.0
H  H11  1  0.96268896  0.00594606  0.74134184  1  0.093426  -0.000386  0.108633  0.120897  -0.000378  1.030439  0.0
H  H12  1  0.33696278  0.62960811  0.80342200  1  0.128352  -0.000219  0.116196  0.138598  -0.000188  0.977449  0.0
H  H13  1  0.33672622  0.37052070  0.19660549  1  0.130858  -0.000227  0.116349  0.138787  -0.000191  0.97742  0.0
H  H14  1  0.66328343  0.87031765  0.30340059  1  0.128665  -3e-06  0.11637  0.138936  1e-06  0.977466  0.0
H  H15  1  0.66289724  0.12965177  0.69658093  1  0.126921  0.00022  0.116204  0.13863  0.000188  0.977832  0.0
H  H16  1  0.35059930  0.39289921  0.78302693  1  0.111717  -0.000271  0.108194  0.122697  -0.000245  1.021508  0.0
H  H17  1  0.35035274  0.60720425  0.21714516  1  0.113842  4e-06  0.10835  0.123145  1e-06  1.02175  0.0
H  H18  1  0.64974966  0.10699234  0.28293296  1  0.11715  0.000278  0.108228  0.12304  0.00025  1.021743  0.0
H  H19  1  0.64946697  0.89296897  0.71699045  1  0.113815  0.00027  0.108277  0.12267  0.000246  1.021666  0.0
H  H20  1  0.52073215  0.43168640  0.73638833  1  0.059549  -9e-06  0.108019  0.080552  1e-06  0.961597  0.0
H  H21  1  0.52064021  0.56837942  0.26363619  1  0.058838  -5e-06  0.107923  0.080405  -3e-06  0.961212  0.0
H  H22  1  0.47943320  0.06823028  0.23647934  1  0.06217  1.1e-05  0.108172  0.080893  -0.0  0.961734  0.0
H  H23  1  0.47939324  0.93176702  0.76355827  1  0.061189  1e-05  0.108084  0.080668  -1e-06  0.961655  0.0
H  H24  1  0.52649541  0.41770253  0.83379234  1  0.079356  2.2e-05  0.104099  0.071951  1e-05  0.999195  0.0
H  H25  1  0.52619466  0.58232401  0.16622639  1  0.078508  -2e-06  0.104017  0.07188  -2e-06  0.998972  0.0
H  H26  1  0.47390821  0.08215414  0.33389928  1  0.078469  -2.2e-05  0.104263  0.072302  -1.1e-05  0.998937  0.0
H  H27  1  0.47368264  0.91774311  0.66614683  1  0.079332  -2.4e-05  0.104202  0.072088  -1.1e-05  0.999257  0.0
H  H28  1  0.68091043  0.51320468  0.84010915  1  0.054335  1.8e-05  0.098794  0.065997  6e-06  0.97928  0.0
H  H29  1  0.68060672  0.48681840  0.15983502  1  0.052758  1.2e-05  0.098597  0.065516  5e-06  0.97972  0.0
H  H30  1  0.31939531  0.98674722  0.34011790  1  0.053548  -6e-06  0.098639  0.065633  -1e-06  0.979615  0.0
H  H31  1  0.31908033  0.01318257  0.65986648  1  0.054384  -1.9e-05  0.098808  0.066033  -7e-06  0.979358  0.0
H  H32  1  0.71433196  0.43044461  0.79282244  1  0.055569  7.1e-05  0.102456  0.070888  7.1e-05  1.007062  0.0
H  H33  1  0.71408403  0.56951683  0.20720505  1  0.057599  1.2e-05  0.102612  0.07085  6e-06  1.006903  0.0
H  H34  1  0.28599704  0.06951035  0.29292097  1  0.058996  -6.2e-05  0.102395  0.070756  -6.6e-05  1.006861  0.0
H  H35  1  0.28581177  0.93042843  0.70709338  1  0.056756  -7.1e-05  0.102481  0.070904  -7.1e-05  1.007106  0.0
H  H36  1  0.84658079  0.47141549  0.71319430  1  0.078521  -2e-06  0.104643  0.089124  -1.1e-05  0.995698  0.0
H  H37  1  0.84641148  0.52857718  0.28686784  1  0.080238  -2e-06  0.104675  0.089293  -1e-06  0.995442  0.0
H  H38  1  0.15350788  0.02857933  0.21329334  1  0.079386  -4e-06  0.104432  0.088927  7e-06  0.995961  0.0
H  H39  1  0.15343240  0.97140176  0.78676075  1  0.078767  2e-06  0.10455  0.08885  1.1e-05  0.99583  0.0
H  H40  1  0.84569972  0.55608209  0.76426852  1  0.03956  -1e-05  0.098185  0.073945  -1.5e-05  1.002072  0.0
H  H41  1  0.84576678  0.44390200  0.23578078  1  0.039721  -9e-06  0.098101  0.073581  -1.2e-05  1.002658  0.0
H  H42  1  0.15443476  0.94376684  0.26406402  1  0.041021  -4e-06  0.098148  0.073552  1e-06  1.002494  0.0
H  H43  1  0.15416524  0.05605877  0.73575884  1  0.040774  1e-05  0.09818  0.073762  1.6e-05  1.002624  0.0
H  H44  1  0.92062815  0.57108979  0.63696517  1  0.055215  -1.8e-05  0.118916  0.103522  -4e-06  0.951798  0.0
H  H45  1  0.92070265  0.42883529  0.36309697  1  0.055696  -1.9e-05  0.118746  0.103201  -4e-06  0.951605  0.0
H  H46  1  0.07955885  0.92877630  0.13676394  1  0.056963  -5e-06  0.118689  0.102698  -3e-06  0.952267  0.0
H  H47  1  0.07927983  0.07118235  0.86305871  1  0.055588  1.8e-05  0.118803  0.103225  3e-06  0.951634  0.0
H  H48  1  0.78887180  0.53968072  0.60134652  1  0.071636  -3.1e-05  0.105876  0.074006  -7e-06  0.963829  0.0
H  H49  1  0.78899560  0.46035228  0.39867243  1  0.07154  -2.5e-05  0.105904  0.073999  -3e-06  0.963949  0.0
H  H50  1  0.21094232  0.96076533  0.10118394  1  0.069591  1.3e-05  0.105944  0.074476  8e-06  0.963213  0.0
H  H51  1  0.21101288  0.03968322  0.89866668  1  0.072109  3.1e-05  0.105955  0.074027  7e-06  0.963786  0.0
H  H52  1  0.95584436  0.75453271  0.01052074  1  0.130048  -0.000225  0.110579  0.123084  -0.000228  1.036038  0.0
H  H53  1  0.95568046  0.24545039  0.98953555  1  0.13065  -0.000444  0.11058  0.12314  -0.000437  1.035261  0.0
H  H54  1  0.04426013  0.74541515  0.51021420  1  0.131967  0.000217  0.11063  0.123244  0.00021  1.035616  0.0
H  H55  1  0.04432337  0.25456883  0.48956943  1  0.130476  0.000444  0.110569  0.123101  0.000438  1.035179  0.0
H  H56  1  0.68625935  0.65028563  0.89553695  1  0.112259  0.000405  0.108353  0.125396  0.000357  1.024711  0.0
H  H57  1  0.68617187  0.34975746  0.10444515  1  0.111764  0.000402  0.108467  0.125486  0.000356  1.024192  0.0
H  H58  1  0.31378550  0.84968760  0.39551383  1  0.114442  -3e-06  0.108512  0.12561  -3e-06  1.025178  0.0
H  H59  1  0.31387155  0.15021559  0.60448900  1  0.112624  -0.000402  0.108389  0.125413  -0.000356  1.024414  0.0
H  H60  1  0.69070430  0.65174946  0.13218245  1  0.115169  -3e-06  0.107631  0.119583  -1e-06  1.031613  0.0
H  H61  1  0.69039168  0.34833587  0.86780110  1  0.108401  0.000287  0.107374  0.118923  0.000264  1.031204  0.0
H  H62  1  0.30944803  0.84824356  0.63214111  1  0.109389  -0.000292  0.107437  0.119065  -0.000267  1.031153  0.0
H  H63  1  0.30956768  0.15170953  0.36784770  1  0.109905  -0.000286  0.107351  0.119055  -0.000263  1.030861  0.0
H  H64  1  0.53858206  0.53951409  0.93971864  1  0.054961  -4e-06  0.101403  0.070337  -4e-06  1.007518  0.0
H  H65  1  0.53834541  0.46052969  0.06036814  1  0.054979  -9e-06  0.101466  0.070601  -6e-06  1.007476  0.0
H  H66  1  0.46135231  0.96042622  0.43970976  1  0.055454  6e-06  0.101326  0.070057  3e-06  1.007516  0.0
H  H67  1  0.46178929  0.03949937  0.56036075  1  0.055172  9e-06  0.10143  0.070313  6e-06  1.007771  0.0
H  H68  1  0.51960681  0.63401784  0.91622634  1  0.063235  3e-06  0.11134  0.085722  -1.3e-05  0.98049  0.0
H  H69  1  0.51955310  0.36598517  0.08376551  1  0.063201  3e-06  0.111451  0.086173  -1.3e-05  0.980033  0.0
H  H70  1  0.48033105  0.86590171  0.41618181  1  0.062293  -3e-06  0.111486  0.086116  -2e-06  0.979836  0.0
H  H71  1  0.48062998  0.13405143  0.58382604  1  0.062436  -3e-06  0.111321  0.085739  1.2e-05  0.980164  0.0
H  H72  1  0.33928077  0.55785386  0.94488485  1  0.027813  -2e-06  0.092223  0.05354  5e-06  1.013809  0.0
H  H73  1  0.33903250  0.44215536  0.05514557  1  0.025403  -2.3e-05  0.092201  0.053475  -8e-06  1.014157  0.0
H  H74  1  0.66069112  0.94209852  0.44489249  1  0.028092  1e-05  0.092072  0.053368  3e-06  1.014001  0.0
H  H75  1  0.66110902  0.05788298  0.55512495  1  0.024569  1.7e-05  0.09216  0.053437  3e-06  1.014232  0.0
H  H76  1  0.38327454  0.56582383  0.03817208  1  0.049808  -3e-06  0.098364  0.059151  -1e-06  1.008959  0.0
H  H77  1  0.38291650  0.43420662  0.96185269  1  0.050783  -1.1e-05  0.098277  0.058815  -2e-06  1.009398  0.0
H  H78  1  0.61677200  0.93423045  0.53817230  1  0.050055  5e-06  0.098328  0.059066  -1e-06  1.009295  0.0
H  H79  1  0.61701555  0.06574520  0.46185023  1  0.050887  1.3e-05  0.098285  0.058792  4e-06  1.009443  0.0
H  H80  1  0.29073628  0.68654186  0.09044828  1  0.073956  -3e-06  0.092594  0.064507  -1e-06  0.991139  0.0
H  H81  1  0.29067184  0.31342806  0.90954688  1  0.074203  -7.8e-05  0.092367  0.064344  -7.8e-05  0.99128  0.0
H  H82  1  0.70938691  0.81360608  0.59048581  1  0.075449  7.7e-05  0.09231  0.064148  7.8e-05  0.99101  0.0
H  H83  1  0.70920782  0.18643612  0.40954992  1  0.073759  7.7e-05  0.092439  0.064295  7.8e-05  0.991147  0.0
H  H84  1  0.20710110  0.62392567  0.03922087  1  0.032253  1e-06  0.098026  0.062064  1e-06  0.973051  0.0
H  H85  1  0.20699594  0.37607363  0.96068796  1  0.031288  1e-05  0.098073  0.062043  7e-06  0.97294  0.0
H  H86  1  0.79297725  0.87613466  0.53925645  1  0.030606  -1e-05  0.097871  0.061768  -6e-06  0.972852  0.0
H  H87  1  0.79296621  0.12386825  0.46071459  1  0.03111  -1e-05  0.09798  0.061819  -7e-06  0.972744  0.0
H  H88  1  0.15208441  0.72178292  0.95312255  1  0.069131  1.8e-05  0.1029  0.081763  2.3e-05  0.9996  0.0
H  H89  1  0.15219702  0.27825058  0.04684466  1  0.069958  -0.0  0.102971  0.081941  1.5e-05  0.998973  0.0
H  H90  1  0.84770887  0.77800496  0.45316387  1  0.068767  2e-05  0.103311  0.082079  8e-06  0.999413  0.0
H  H91  1  0.84785933  0.22181461  0.54684722  1  0.069572  -1e-06  0.103077  0.082055  -1.6e-05  0.999275  0.0
H  H92  1  0.10863953  0.73640694  0.04582741  1  0.095204  -1.1e-05  0.097972  0.069642  1e-06  1.039594  0.0
H  H93  1  0.10857474  0.26363376  0.95414942  1  0.094206  -4e-05  0.097943  0.069808  -4.7e-05  1.039288  0.0
H  H94  1  0.89143726  0.76363388  0.54586336  1  0.093484  3.3e-05  0.097898  0.069775  5.2e-05  1.039654  0.0
H  H95  1  0.89137896  0.23629366  0.45415732  1  0.094219  4e-05  0.097994  0.069745  4.7e-05  1.039411  0.0
H  H96  1  0.71766285  0.64100795  0.67619145  1  0.633248  -3.5e-05  0.336768  0.371377  -1.9e-05  0.869644  0.0
H  H97  1  0.71771289  0.35905076  0.32380329  1  0.633564  -3.5e-05  0.33663  0.371233  -1.9e-05  0.870176  0.0
H  H98  1  0.28304768  0.85949538  0.17586704  1  0.62551  -2e-06  0.336591  0.371466  -2e-06  0.869303  0.0
H  H99  1  0.28227341  0.14091361  0.82386237  1  0.634472  3.4e-05  0.336621  0.371322  1.8e-05  0.870139  0.0
H  H100  1  0.23038341  0.82716231  0.05468632  1  0.634256  1e-06  0.29536  0.331182  2e-06  0.995832  0.0
H  H101  1  0.23017441  0.17285197  0.94527291  1  0.632241  6e-06  0.295878  0.331782  -1.7e-05  0.9949  0.0
H  H102  1  0.76984355  0.67295513  0.55499760  1  0.631094  -5e-06  0.295288  0.330977  1.9e-05  0.996154  0.0
H  H103  1  0.76988122  0.32711677  0.44524540  1  0.631802  -6e-06  0.295847  0.331641  1.7e-05  0.994846  0.0
H  H104  1  0.20437377  0.84223340  0.92010331  1  0.642288  4.8e-05  0.290605  0.387901  2.4e-05  0.946952  0.0
H  H105  1  0.20435882  0.15774248  0.07993485  1  0.642271  4.8e-05  0.290659  0.387834  2.4e-05  0.946935  0.0
H  H106  1  0.79458761  0.65714877  0.42037772  1  0.635685  0.0  0.290148  0.386963  1e-06  0.948004  0.0
H  H107  1  0.79558343  0.34227619  0.57993421  1  0.642477  -4.8e-05  0.290708  0.387898  -2.4e-05  0.946793  0.0
H  H108  1  0.26680733  0.84083017  0.84553131  1  0.600663  7.5e-05  0.320878  0.397967  5e-05  0.878  0.0
H  H109  1  0.26685460  0.15913594  0.15451775  1  0.601226  7.5e-05  0.321036  0.398  5e-05  0.877622  0.0
H  H110  1  0.73217882  0.65894662  0.34579952  1  0.592326  3e-06  0.320323  0.397072  2e-06  0.878798  0.0
H  H111  1  0.73311051  0.34083472  0.65448411  1  0.600553  -7.5e-05  0.321115  0.398132  -4.9e-05  0.877292  0.0
C  C112  1  0.18834776  0.44286149  0.77100141  1  0.027305  -0.000363  -0.014267  0.007169  -0.000332  3.989135  0.0
C  C113  1  0.18809146  0.55731594  0.22912118  1  0.027969  -0.000577  -0.012192  0.011036  -0.000423  3.985602  0.0
C  C114  1  0.81197683  0.05699297  0.27103112  1  0.029004  -0.000259  -0.013949  0.008277  -0.000117  3.987624  0.0
C  C115  1  0.81166389  0.94291524  0.72903809  1  0.027394  0.000359  -0.014451  0.007  0.000335  3.988733  0.0
C  C116  1  0.12659443  0.50763297  0.76945762  1  -0.0404  -0.001333  -0.087981  -0.135357  -0.000785  3.941259  -0.001
C  C117  1  0.12632647  0.49255623  0.23056840  1  -0.042413  -0.000763  -0.088409  -0.136772  -0.000452  3.940488  -0.001
C  C118  1  0.87372088  0.99218861  0.26951936  1  -0.045173  0.000512  -0.088424  -0.137227  0.000289  3.940829  0.001
C  C119  1  0.87337281  0.00767437  0.73054407  1  -0.039618  0.001335  -0.08779  -0.13497  0.00079  3.940617  0.001
C  C120  1  0.18000184  0.57463731  0.78221509  1  0.016492  -0.000823  -0.014264  0.000104  -0.000598  3.995788  -0.001
C  C121  1  0.17975262  0.42552574  0.21776355  1  0.016637  -0.000107  -0.014006  0.000595  -9.3e-05  3.993492  0.0
C  C122  1  0.82025640  0.92519929  0.28224706  1  0.018584  0.000668  -0.011851  0.004247  0.000474  3.989666  0.001
C  C123  1  0.81993251  0.07467939  0.71775429  1  0.016499  0.000815  -0.013768  0.000525  0.000594  3.99505  0.001
C  C124  1  0.29527118  0.57729179  0.79404978  1  -0.027649  0.001146  -0.08447  -0.193129  0.000717  3.91299  0.001
C  C125  1  0.29501855  0.42284374  0.20598520  1  -0.032709  0.00075  -0.084876  -0.193586  0.00045  3.912516  0.001
C  C126  1  0.70497695  0.92260759  0.29401964  1  -0.029719  -0.000397  -0.084803  -0.194313  -0.000269  3.913129  0.0
C  C127  1  0.70465240  0.07734085  0.70594892  1  -0.028157  -0.001149  -0.084873  -0.193765  -0.000716  3.913386  -0.001
C  C128  1  0.35820062  0.51223512  0.79201893  1  0.446776  0.001423  0.083327  0.248945  0.000976  4.080395  0.001
C  C129  1  0.35795221  0.48787517  0.20809057  1  0.454519  0.000739  0.083022  0.248876  0.000511  4.078764  0.001
C  C130  1  0.64206936  0.98767577  0.29194277  1  0.450065  -0.000705  0.083036  0.249114  -0.000478  4.079567  -0.001
C  C131  1  0.64177395  0.01229680  0.70798903  1  0.446868  -0.001423  0.083232  0.248925  -0.000974  4.079355  -0.001
C  C132  1  0.30459795  0.44441508  0.78258372  1  -0.044311  0.000851  -0.099311  -0.238241  0.00052  3.95766  0.001
C  C133  1  0.30433108  0.55571867  0.21757638  1  -0.043744  4.9e-05  -0.099446  -0.239815  3.7e-05  3.958224  0.0
C  C134  1  0.69571551  0.05547021  0.28253240  1  -0.043814  -0.000795  -0.099389  -0.239369  -0.00048  3.958616  -0.001
C  C135  1  0.69542533  0.94447399  0.71743800  1  -0.045109  -0.000843  -0.099164  -0.23801  -0.000513  3.95719  -0.001
C  C136  1  0.12687985  0.37223925  0.75885667  1  1.543787  0.000382  0.217507  0.581909  0.000454  4.147271  0.001
C  C137  1  0.12675785  0.62815828  0.24124066  1  1.538415  -0.000136  0.217105  0.577961  -9.6e-05  4.151566  0.0
C  C138  1  0.87336743  0.12761641  0.25880090  1  1.541949  -0.000504  0.217184  0.581213  -0.000524  4.147311  -0.001
C  C139  1  0.87315008  0.87230366  0.74121813  1  1.542946  -0.000375  0.217459  0.581779  -0.000436  4.147429  -0.001
C  C140  1  0.11191932  0.64343364  0.77945875  1  1.548806  0.000509  0.217424  0.580799  0.000512  4.15423  0.001
C  C141  1  0.11173635  0.35671264  0.22055036  1  1.546872  0.000628  0.217593  0.580694  0.0006  4.152893  0.001
C  C142  1  0.88803872  0.85610262  0.27945262  1  1.542798  0.000129  0.217179  0.577038  9.2e-05  4.157941  0.0
C  C143  1  0.88800537  0.14345775  0.72047217  1  1.549069  -0.000524  0.217091  0.58046  -0.000512  4.155157  -0.001
C  C144  1  0.54103323  0.45753995  0.78933661  1  0.384651  5.7e-05  -0.066071  -0.006111  5.9e-05  3.91687  0.0
C  C145  1  0.54081573  0.54249223  0.21068806  1  0.386256  5.6e-05  -0.065648  -0.005467  4.6e-05  3.915575  0.0
C  C146  1  0.45926040  0.04235611  0.28938912  1  0.382318  2e-06  -0.066938  -0.007982  -1.1e-05  3.918948  0.0
C  C147  1  0.45904676  0.95759476  0.71062095  1  0.382268  -5.7e-05  -0.066192  -0.006585  -5.9e-05  3.917204  0.0
C  C148  1  0.66239045  0.48059841  0.79042169  1  0.444331  0.000127  -0.072117  -0.001474  8.1e-05  3.956028  0.0
C  C149  1  0.66217735  0.51937506  0.20956065  1  0.444975  2.4e-05  -0.072126  -0.001194  2e-05  3.956467  0.0
C  C150  1  0.33790485  0.01934922  0.29048131  1  0.441711  -0.000103  -0.071917  -0.000692  -6.1e-05  3.956268  0.0
C  C151  1  0.33764327  0.98060385  0.70953441  1  0.443172  -0.000127  -0.072393  -0.001824  -8.1e-05  3.956974  0.0
C  C152  1  0.80879689  0.52654788  0.71730326  1  0.446614  -2.8e-05  -0.082559  -0.042559  -1e-05  3.957513  0.0
C  C153  1  0.80877586  0.47341868  0.28271734  1  0.445543  -2.6e-05  -0.08224  -0.041661  -9e-06  3.956178  0.0
C  C154  1  0.19132031  0.97344113  0.21722632  1  0.443962  -1e-06  -0.082153  -0.042283  -2e-06  3.956939  0.0
C  C155  1  0.19113239  0.02653969  0.78268984  1  0.445618  2.8e-05  -0.082505  -0.041875  1e-05  3.958082  0.0
C  C156  1  0.83041817  0.56772455  0.64734035  1  0.416367  -7.6e-05  -0.070963  0.044523  -5.6e-05  3.894074  0.0
C  C157  1  0.83048091  0.43225518  0.35270605  1  0.415333  -7.5e-05  -0.071082  0.044496  -5.7e-05  3.893731  0.0
C  C158  1  0.16978183  0.93241579  0.14708614  1  0.417113  -3e-06  -0.07122  0.044226  -3e-06  3.894805  0.0
C  C159  1  0.16948847  0.06774761  0.85269047  1  0.415  7.5e-05  -0.071087  0.044362  5.6e-05  3.894369  0.0
C  C160  1  0.83167558  0.70234519  0.07899943  1  0.050916  0.000607  -0.014737  -0.001251  0.000441  4.000561  0.001
C  C161  1  0.83136309  0.29764523  0.92103913  1  0.05011  0.000777  -0.017007  -0.006142  0.000591  4.004179  0.001
C  C162  1  0.16853584  0.79755802  0.57884008  1  0.052142  -0.00015  -0.01716  -0.006025  -0.000128  4.003794  0.0
C  C163  1  0.16862345  0.20238685  0.42107565  1  0.050111  -0.000773  -0.017103  -0.006688  -0.000585  4.004826  -0.001
C  C164  1  0.87819448  0.72388249  0.01226658  1  -0.064342  0.000814  -0.08617  -0.131615  0.000512  3.937348  0.001
C  C165  1  0.87798179  0.27610765  0.98775954  1  -0.063667  0.001785  -0.085841  -0.130375  0.001114  3.936175  0.002
C  C166  1  0.12191141  0.77606359  0.51206119  1  -0.065372  -0.000955  -0.085932  -0.130767  -0.000584  3.935725  -0.001
C  C167  1  0.12201563  0.22389636  0.48780022  1  -0.06325  -0.001788  -0.085823  -0.129693  -0.001113  3.936057  -0.002
C  C168  1  0.82487863  0.70469432  0.94721126  1  -0.057226  7.9e-05  -0.016134  0.001945  0.000103  3.993643  0.0
C  C169  1  0.82473789  0.29531808  0.05279060  1  -0.060783  0.000699  -0.015962  0.001962  0.000545  3.994232  0.001
C  C170  1  0.17511926  0.79531738  0.44703497  1  -0.05944  -0.000586  -0.014158  0.004778  -0.000418  3.989861  0.0
C  C171  1  0.17526535  0.20465981  0.55283208  1  -0.061649  -0.000697  -0.016131  0.000649  -0.00054  3.995104  -0.001
C  C172  1  0.72374452  0.66554275  0.94759063  1  -0.023085  -0.000921  -0.097466  -0.226799  -0.000553  3.939182  -0.001
C  C173  1  0.72360294  0.33450238  0.05239132  1  -0.017289  -0.000814  -0.097476  -0.226429  -0.000487  3.938308  -0.001
C  C174  1  0.27630230  0.83441323  0.44751631  1  -0.019222  -0.000112  -0.097788  -0.227885  -7.4e-05  3.939806  0.0
C  C175  1  0.27641589  0.16547969  0.55243959  1  -0.018793  0.000813  -0.097242  -0.225942  0.000488  3.938619  0.001
C  C176  1  0.67436441  0.64809459  0.01481832  1  0.493453  -0.000561  0.085539  0.263491  -0.000401  4.08014  0.0
C  C177  1  0.67414596  0.35198718  0.98516092  1  0.487246  -0.001121  0.084749  0.262172  -0.000799  4.080172  -0.001
C  C178  1  0.32573682  0.85186606  0.51478542  1  0.490773  0.00056  0.085151  0.263379  0.0004  4.078539  0.0
C  C179  1  0.32584777  0.14801435  0.48520933  1  0.488863  0.001121  0.085012  0.262509  0.0008  4.080552  0.001
C  C180  1  0.72902352  0.66615283  0.08023733  1  -0.02416  -5.5e-05  -0.089925  -0.199189  -3.7e-05  3.932204  0.0
C  C181  1  0.72873639  0.33389922  0.91975950  1  -0.018693  -0.000991  -0.089105  -0.196873  -0.000608  3.928955  -0.001
C  C182  1  0.27113780  0.83378892  0.58016028  1  -0.019557  0.000922  -0.089132  -0.197277  0.000565  3.92977  0.001
C  C183  1  0.27123912  0.16611902  0.41980704  1  -0.02106  0.000988  -0.089242  -0.196996  0.000608  3.92923  0.001
C  C184  1  0.89416510  0.71569696  0.14873524  1  1.533102  0.000127  0.21744  0.578462  8.9e-05  4.153743  0.0
C  C185  1  0.89387250  0.28426014  0.85151723  1  1.539786  -0.000348  0.217563  0.581579  -0.000367  4.149416  -0.001
C  C186  1  0.10607622  0.78417645  0.64839155  1  1.538787  0.00047  0.217824  0.581443  0.000463  4.148884  0.001
C  C187  1  0.10611605  0.21580618  0.35153682  1  1.540001  0.000339  0.217909  0.582233  0.000372  4.149197  0.001
C  C188  1  0.88001010  0.72497580  0.87668039  1  1.541044  -0.000765  0.216267  0.580227  -0.000741  4.150256  -0.001
C  C189  1  0.87992197  0.27503086  0.12332228  1  1.538166  -0.000638  0.215862  0.579687  -0.000649  4.151311  -0.001
C  C190  1  0.11986994  0.77532952  0.37626880  1  1.533231  -0.000131  0.216184  0.577291  -9.2e-05  4.154263  0.0
C  C191  1  0.12005324  0.22490729  0.62335728  1  1.538315  0.000636  0.216393  0.580644  0.000661  4.150448  0.001
C  C192  1  0.51003407  0.59319574  0.96000959  1  0.414309  3e-06  -0.069464  -0.009361  -1.2e-05  3.913682  0.0
C  C193  1  0.50985435  0.40685470  0.04001792  1  0.416213  -5.7e-05  -0.069517  -0.01043  -6e-05  3.913529  0.0
C  C194  1  0.48996046  0.90675866  0.45998445  1  0.414826  5.8e-05  -0.069306  -0.009574  4.6e-05  3.912424  0.0
C  C195  1  0.49024025  0.09316957  0.54004683  1  0.416373  5.6e-05  -0.069273  -0.009729  6e-05  3.913075  0.0
C  C196  1  0.38904524  0.59138336  0.98348956  1  0.475023  -7e-06  -0.076412  -0.010531  -4e-06  3.983525  0.0
C  C197  1  0.38880014  0.40863739  0.01653441  1  0.475659  -2.9e-05  -0.076397  -0.009991  -2e-05  3.984114  0.0
C  C198  1  0.61098514  0.90860330  0.48348972  1  0.474894  5e-06  -0.076291  -0.009983  4e-06  3.983462  0.0
C  C199  1  0.61124772  0.09136394  0.51653691  1  0.475793  2.3e-05  -0.076176  -0.009837  1.5e-05  3.983817  0.0
C  C200  1  0.25793593  0.67451518  0.03514103  1  0.396536  -6e-06  -0.078702  -0.007813  -8e-06  3.959227  0.0
C  C201  1  0.25786468  0.32547674  0.96482299  1  0.397539  -0.000107  -0.078478  -0.007106  -7.4e-05  3.959706  0.0
C  C202  1  0.74214344  0.82553474  0.53518376  1  0.39711  0.000103  -0.078393  -0.006904  6.8e-05  3.958079  0.0
C  C203  1  0.74209816  0.17446678  0.46482948  1  0.398527  0.000106  -0.078391  -0.006772  7.3e-05  3.958683  0.0
C  C204  1  0.18100864  0.73467295  0.00870911  1  0.401238  4e-06  -0.086213  0.029376  -3e-06  3.925242  0.0
C  C205  1  0.18101525  0.26536312  0.99124908  1  0.401649  -0.000186  -0.086301  0.028917  -0.00011  3.925474  0.0
C  C206  1  0.81895725  0.76529382  0.50879906  1  0.402505  0.000198  -0.08661  0.028612  0.000112  3.925561  0.0
C  C207  1  0.81898488  0.23462355  0.49124352  1  0.401503  0.000184  -0.086397  0.028818  0.000109  3.925271  0.0
O  O208  1  0.15117523  0.70037931  0.81049324  1  -1.102642  -0.087787  -0.308428  -0.523136  -0.056964  2.34837  -0.079
O  O209  1  0.15113827  0.29976580  0.18956286  1  -1.102658  -0.087761  -0.308381  -0.523285  -0.056942  2.345709  -0.079
O  O210  1  0.84800125  0.79957177  0.31053576  1  -1.097874  0.000333  -0.304532  -0.515265  0.000215  2.348473  0.001
O  O211  1  0.84872003  0.20038860  0.68945968  1  -1.104162  0.087801  -0.308566  -0.523351  0.057075  2.348286  0.079
O  O212  1  0.01911054  0.63850798  0.74485222  1  -1.108899  0.0857  -0.311263  -0.529506  0.055938  2.40142  0.078
O  O213  1  0.01894906  0.36164149  0.25512060  1  -1.107301  0.085807  -0.311068  -0.529125  0.05604  2.399021  0.078
O  O214  1  0.98057179  0.86109978  0.24469674  1  -1.101991  -0.000391  -0.308053  -0.522214  -0.000238  2.403014  -0.001
O  O215  1  0.98086394  0.13852866  0.75502357  1  -1.108485  -0.085708  -0.311001  -0.529211  -0.05584  2.401589  -0.078
O  O216  1  0.03393007  0.37759187  0.72480659  1  -1.104103  0.083628  -0.310799  -0.524522  0.054435  2.356898  0.076
O  O217  1  0.03366598  0.62259931  0.27492436  1  -1.097772  0.000387  -0.307726  -0.518257  0.000235  2.36005  0.001
O  O218  1  0.96623460  0.12224948  0.22471755  1  -1.101813  -0.083771  -0.310047  -0.523594  -0.054419  2.354877  -0.076
O  O219  1  0.96609585  0.87765803  0.77526284  1  -1.10371  -0.083527  -0.31074  -0.52437  -0.05427  2.356986  -0.076
O  O220  1  0.17103967  0.31349636  0.78384169  1  -1.103871  -0.089121  -0.313726  -0.51797  -0.057912  2.325652  -0.08
O  O221  1  0.17174720  0.68658831  0.21649033  1  -1.098863  -0.000302  -0.309908  -0.510046  -0.000194  2.328571  -0.001
O  O222  1  0.82910896  0.18636110  0.28376300  1  -1.101148  0.089128  -0.313708  -0.517886  0.058004  2.324184  0.08
O  O223  1  0.82899064  0.81354274  0.71626049  1  -1.102783  0.089033  -0.313793  -0.518031  0.057939  2.325821  0.08
O  O224  1  0.47138149  0.52092813  0.79993101  1  -1.06866  0.000669  -0.183463  -0.204015  0.000428  2.541621  0.001
O  O225  1  0.47113707  0.47913704  0.20012580  1  -1.068204  0.000166  -0.183154  -0.20348  0.000107  2.539833  0.0
O  O226  1  0.52889465  0.97896614  0.29985093  1  -1.067014  -0.000515  -0.182744  -0.202601  -0.000329  2.540739  0.0
O  O227  1  0.52857957  0.02099560  0.70008540  1  -1.068402  -0.000669  -0.183389  -0.203559  -0.000427  2.540785  -0.001
O  O228  1  0.68959726  0.52084794  0.72611682  1  -1.075966  3.9e-05  -0.245778  -0.248109  3.5e-05  2.471993  0.0
O  O229  1  0.68954087  0.47904512  0.27381930  1  -1.076093  2.3e-05  -0.245722  -0.248284  2.7e-05  2.471798  0.0
O  O230  1  0.31053354  0.97911783  0.22612626  1  -1.076579  -1.4e-05  -0.245915  -0.248373  -7e-06  2.472656  0.0
O  O231  1  0.31034626  0.02086849  0.77386561  1  -1.075696  -4e-05  -0.245544  -0.247963  -3.5e-05  2.472707  0.0
O  O232  1  0.79033046  0.64318483  0.65161575  1  -1.12929  -0.001297  -0.382305  -0.479216  -0.000829  2.285724  0.0
O  O233  1  0.79036326  0.35681986  0.34844853  1  -1.129565  -0.001296  -0.382499  -0.479469  -0.000827  2.285486  0.0
O  O234  1  0.21052171  0.85712106  0.15107614  1  -1.120647  -1.2e-05  -0.382022  -0.47885  -6e-06  2.286831  0.0
O  O235  1  0.20963549  0.14316860  0.84847646  1  -1.130418  0.001292  -0.382281  -0.479202  0.000827  2.285938  0.0
O  O236  1  0.85085060  0.69038716  0.20725601  1  -1.102407  0.000294  -0.311184  -0.519598  0.000187  2.345593  0.001
O  O237  1  0.85139086  0.30985165  0.79272839  1  -1.111436  0.084999  -0.315427  -0.527018  0.055333  2.343211  0.077
O  O238  1  0.14865329  0.80977536  0.70717593  1  -1.11024  -0.084894  -0.31525  -0.526756  -0.055178  2.341361  -0.077
O  O239  1  0.14860136  0.19022667  0.29274141  1  -1.110514  -0.084961  -0.315761  -0.527359  -0.055221  2.343467  -0.077
O  O240  1  0.98693014  0.75005592  0.14275385  1  -1.104687  -0.000287  -0.308115  -0.515059  -0.00017  2.38797  -0.001
O  O241  1  0.98648412  0.24952830  0.85723875  1  -1.109288  -0.080959  -0.311023  -0.521063  -0.052631  2.385144  -0.073
O  O242  1  0.01347337  0.74947213  0.64264832  1  -1.109842  0.081084  -0.310637  -0.520628  0.052827  2.383738  0.073
O  O243  1  0.01351976  0.25055532  0.35725203  1  -1.10909  0.08095  -0.310861  -0.521154  0.052719  2.385519  0.073
O  O244  1  0.96666612  0.76557193  0.88174678  1  -1.107386  -0.080541  -0.310474  -0.523799  -0.052336  2.373854  -0.073
O  O245  1  0.96665665  0.23446326  0.11829674  1  -1.107522  -0.080282  -0.31053  -0.523939  -0.052152  2.375362  -0.073
O  O246  1  0.03308386  0.73494619  0.38146218  1  -1.098107  0.000288  -0.307924  -0.518308  0.000169  2.378383  0.001
O  O247  1  0.03333139  0.26547769  0.61832445  1  -1.10717  0.080316  -0.310675  -0.52407  0.052272  2.375168  0.073
O  O248  1  0.83723786  0.69944654  0.81778657  1  -1.100078  0.092369  -0.317866  -0.521245  0.060017  2.339769  0.083
O  O249  1  0.83715285  0.30048211  0.18222048  1  -1.098875  0.092232  -0.317768  -0.520899  0.05992  2.341604  0.083
O  O250  1  0.16305704  0.80103585  0.31776781  1  -1.096289  -0.000285  -0.313832  -0.513569  -0.00018  2.342645  -0.001
O  O251  1  0.16280035  0.19941175  0.68225014  1  -1.099289  -0.092332  -0.318222  -0.521452  -0.059888  2.340354  -0.083
O  O252  1  0.57426227  0.61328922  0.02350858  1  -1.08671  -0.000352  -0.184908  -0.209219  -0.000223  2.565326  0.0
O  O253  1  0.57401901  0.38682777  0.97649158  1  -1.087396  -0.000485  -0.184842  -0.208971  -0.000313  2.565754  0.0
O  O254  1  0.42583735  0.88670623  0.52349185  1  -1.086851  0.000132  -0.185128  -0.209371  9e-05  2.56478  0.0
O  O255  1  0.42596881  0.11317463  0.47653670  1  -1.087268  0.000484  -0.185127  -0.209056  0.000312  2.566104  0.0
O  O256  1  0.34846811  0.66453409  0.98506937  1  -1.046868  -7.2e-05  -0.242781  -0.227654  -4.9e-05  2.476538  0.0
O  O257  1  0.34838222  0.33547332  0.01494278  1  -1.047342  -0.00018  -0.242607  -0.227582  -0.000113  2.477249  0.0
O  O258  1  0.65155010  0.83545451  0.48508960  1  -1.047444  0.000103  -0.242657  -0.227767  6.2e-05  2.476446  0.0
O  O259  1  0.65165686  0.16453320  0.51494555  1  -1.047606  0.000176  -0.242906  -0.227825  0.000111  2.476838  0.0
O  O260  1  0.23275366  0.80590425  0.00501684  1  -1.160808  3.5e-05  -0.412078  -0.489507  1.5e-05  2.279708  0.0
O  O261  1  0.23278763  0.19409732  0.99492407  1  -1.159348  -1.5e-05  -0.412325  -0.489988  -1.4e-05  2.27869  0.0
O  O262  1  0.76711983  0.69407543  0.50531936  1  -1.157263  4.8e-05  -0.411812  -0.489128  2.8e-05  2.280149  0.0
O  O263  1  0.76722288  0.30589513  0.49488168  1  -1.158474  1.4e-05  -0.412206  -0.489705  1.4e-05  2.278504  0.0
O  O264  1  0.19574656  0.85521324  0.86717383  1  -1.216896  0.001601  -0.581487  -0.751806  0.000883  2.005265  0.0
O  O265  1  0.19576787  0.14480156  0.13285437  1  -1.217394  0.001592  -0.581369  -0.751475  0.000877  2.005055  0.0
O  O266  1  0.80302713  0.64408426  0.36746332  1  -1.203429  2.9e-05  -0.581259  -0.750865  1.8e-05  2.004187  0.0
O  O267  1  0.80416698  0.35522338  0.63287439  1  -1.216893  -0.001587  -0.581578  -0.751681  -0.000873  2.00491  0.0
