# generated using pymatgen
data_CuH13C9SIN
_symmetry_space_group_name_H-M   'P 1'
_cell_length_a   9.67176755
_cell_length_b   9.90367081
_cell_length_c   17.06449543
_cell_angle_alpha   89.99943757
_cell_angle_beta   90.00011151
_cell_angle_gamma   116.12078352
_symmetry_Int_Tables_number   1
_chemical_formula_structural   CuH13C9SIN
_chemical_formula_sum   'Cu4 H52 C36 S4 I4 N4'
_cell_volume   1467.60086555
_cell_formula_units_Z   4
loop_
 _symmetry_equiv_pos_site_id
 _symmetry_equiv_pos_as_xyz
  1  'x, y, z'
loop_
 _atom_site_type_symbol
 _atom_site_label
 _atom_site_symmetry_multiplicity
 _atom_site_fract_x
 _atom_site_fract_y
 _atom_site_fract_z
 _atom_site_occupancy
 _atom_site_hle17_bader_spin_density
 _atom_site_hle17_ddec_charge
 _atom_site_hle17_ddec_spin_density
 _atom_site_hle17_ddec_sum_bond_order
 _atom_site_hle17_magmom
 _atom_site_hse06_10hf_bader_spin_density
 _atom_site_hse06_10hf_ddec_charge
 _atom_site_hse06_10hf_ddec_spin_density
 _atom_site_hse06_10hf_ddec_sum_bond_order
 _atom_site_hse06_10hf_magmom
 _atom_site_hse06_bader_spin_density
 _atom_site_hse06_ddec_charge
 _atom_site_hse06_ddec_spin_density
 _atom_site_hse06_ddec_sum_bond_order
 _atom_site_hse06_magmom
 _atom_site_pbe_bader_spin_density
 _atom_site_pbe_cm5_charge
 _atom_site_pbe_ddec_charge
 _atom_site_pbe_ddec_spin_density
 _atom_site_pbe_ddec_sum_bond_order
 _atom_site_pbe_magmom
Cu  Cu0  1  0.40959593  0.52600098  0.89607912  1  0  0.212398  0  2.300158  0  0  0.141606  0  2.771941  0  0  0.144674  0  2.726408  0  0  0.294441  0.142858  0  2.799835  0
Cu  Cu1  1  0.59040402  0.47399897  0.39607748  1  0  0.212414  0  2.300141  0  0  0.141607  0  2.771924  0  0  0.144672  0  2.7264  0  0  0.294446  0.142856  0  2.799826  0
Cu  Cu2  1  0.54585806  0.42717133  0.79797637  1  0  0.212457  0  2.306536  0  0  0.143995  0  2.773742  0  0  0.146345  0  2.729182  0  0  0.297112  0.145821  0  2.800772  0
Cu  Cu3  1  0.45413678  0.57283175  0.29797753  1  0  0.212455  0  2.306472  0  0  0.144006  0  2.773683  0  0  0.146333  0  2.729178  0  0  0.297089  0.145835  0  2.800706  0
H  H4  1  0.37764918  0.97393788  0.91266078  1  0  0.113605  0  0.975348  0  0  0.13522  0  1.036084  0  0  0.136757  0  1.036976  0  0  0.079991  0.134031  0  1.035545  0
H  H5  1  0.62235583  0.02606390  0.41266468  1  0  0.113581  0  0.975335  0  0  0.135214  0  1.036041  0  0  0.136747  0  1.036937  0  0  0.079964  0.134022  0  1.035499  0
H  H6  1  0.45980006  0.84349272  0.91224338  1  0  0.102499  0  0.99387  0  0  0.117596  0  1.066271  0  0  0.120053  0  1.065271  0  0  0.073056  0.115722  0  1.067061  0
H  H7  1  0.54020284  0.15650458  0.41224644  1  0  0.102538  0  0.993904  0  0  0.1176  0  1.06633  0  0  0.120059  0  1.06533  0  0  0.07306  0.115727  0  1.067119  0
H  H8  1  0.34827546  0.85299465  0.99363392  1  0  0.09793  0  0.944591  0  0  0.119802  0  1.002532  0  0  0.120668  0  1.00304  0  0  0.081174  0.11924  0  1.002129  0
H  H9  1  0.65172289  0.14699893  0.49363774  1  0  0.097902  0  0.944596  0  0  0.119777  0  1.002535  0  0  0.120646  0  1.003042  0  0  0.081151  0.119211  0  1.002136  0
H  H10  1  0.08766048  0.87836126  0.89726753  1  0  0.118128  0  0.947614  0  0  0.140872  0  1.004116  0  0  0.142928  0  1.003808  0  0  0.083919  0.139312  0  1.004406  0
H  H11  1  0.91234464  0.12164308  0.39727531  1  0  0.118138  0  0.947608  0  0  0.140884  0  1.004102  0  0  0.142938  0  1.003798  0  0  0.083938  0.139322  0  1.004393  0
H  H12  1  0.05667149  0.75908573  0.97891399  1  0  0.093287  0  0.963994  0  0  0.114595  0  1.024915  0  0  0.11556  0  1.025251  0  0  0.07934  0.113944  0  1.024658  0
H  H13  1  0.94332803  0.24091264  0.47892345  1  0  0.093172  0  0.964059  0  0  0.11454  0  1.024924  0  0  0.115506  0  1.025263  0  0  0.079325  0.113887  0  1.02467  0
H  H14  1  0.96618912  0.68246694  0.88760056  1  0  0.100807  0  0.989255  0  0  0.114365  0  1.064932  0  0  0.115195  0  1.066755  0  0  0.075169  0.11369  0  1.063731  0
H  H15  1  0.03381503  0.31753762  0.38760975  1  0  0.10083  0  0.989319  0  0  0.114376  0  1.065005  0  0  0.115204  0  1.06683  0  0  0.075173  0.113702  0  1.063805  0
H  H16  1  0.24310545  0.86599866  0.78053464  1  0  0.11839  0  0.933342  0  0  0.142488  0  0.984886  0  0  0.144201  0  0.98483  0  0  0.092786  0.141203  0  0.985006  0
H  H17  1  0.75690634  0.13400321  0.28054393  1  0  0.118453  0  0.933419  0  0  0.1425  0  0.985012  0  0  0.144213  0  0.984958  0  0  0.092746  0.141209  0  0.985136  0
H  H18  1  0.12355296  0.66909107  0.77251205  1  0  0.094775  0  0.966047  0  0  0.111657  0  1.034083  0  0  0.112749  0  1.034396  0  0  0.078577  0.110907  0  1.033831  0
H  H19  1  0.87645837  0.33091210  0.27251741  1  0  0.094811  0  0.96612  0  0  0.111694  0  1.034129  0  0  0.112786  0  1.034445  0  0  0.078584  0.110947  0  1.033876  0
H  H20  1  0.32808177  0.73825801  0.78012309  1  0  0.104318  0  0.976349  0  0  0.120698  0  1.044084  0  0  0.1226  0  1.043874  0  0  0.078167  0.119224  0  1.044342  0
H  H21  1  0.67192688  0.26173939  0.28012627  1  0  0.104265  0  0.976387  0  0  0.120704  0  1.044047  0  0  0.122595  0  1.043849  0  0  0.078159  0.11923  0  1.044303  0
H  H22  1  0.14996138  0.63012477  0.03821974  1  0  0.101257  0  0.959665  0  0  0.118482  0  1.021351  0  0  0.119878  0  1.021307  0  0  0.106389  0.117391  0  1.021502  0
H  H23  1  0.85003143  0.36986511  0.53822101  1  0  0.101188  0  0.959683  0  0  0.118389  0  1.021392  0  0  0.119782  0  1.021354  0  0  0.106364  0.1173  0  1.021543  0
H  H24  1  0.09046859  0.43487517  0.03346771  1  0  0.111301  0  0.911577  0  0  0.133382  0  0.960405  0  0  0.134944  0  0.959903  0  0  0.110914  0.132066  0  0.961015  0
H  H25  1  0.90953352  0.56511913  0.53347026  1  0  0.111273  0  0.911471  0  0  0.133318  0  0.960353  0  0  0.134884  0  0.959844  0  0  0.110882  0.132005  0  0.960965  0
H  H26  1  0.66134562  0.50558132  0.94784352  1  0  0.09282  0  1.003914  0  0  0.091525  0  1.089808  0  0  0.098394  0  1.082089  0  0  0.085751  0.086215  0  1.095735  0
H  H27  1  0.33865807  0.49441299  0.44783972  1  0  0.09283  0  1.00392  0  0  0.09156  0  1.08981  0  0  0.098432  0  1.082089  0  0  0.085771  0.086249  0  1.095738  0
H  H28  1  0.87841476  0.48931037  0.01786834  1  0  0.085733  0  0.97131  0  0  0.095064  0  1.036413  0  0  0.097683  0  1.035357  0  0  0.098572  0.093071  0  1.037402  0
H  H29  1  0.12158293  0.51069002  0.51785921  1  0  0.085829  0  0.971136  0  0  0.095007  0  1.036406  0  0  0.097625  0  1.035352  0  0  0.098571  0.093017  0  1.037389  0
H  H30  1  0.90530101  0.52748655  0.16352858  1  0  0.082825  0  0.973297  0  0  0.092991  0  1.037335  0  0  0.095417  0  1.036538  0  0  0.097532  0.091125  0  1.03819  0
H  H31  1  0.09469138  0.47251460  0.66352256  1  0  0.082826  0  0.973069  0  0  0.093025  0  1.037115  0  0  0.095453  0  1.036315  0  0  0.097537  0.091152  0  1.037977  0
H  H32  1  0.71243112  0.57763575  0.23838082  1  0  0.097599  0  0.996053  0  0  0.098459  0  1.077963  0  0  0.104902  0  1.070763  0  0  0.088143  0.09342  0  1.083495  0
H  H33  1  0.28756290  0.42236165  0.73837530  1  0  0.097605  0  0.996073  0  0  0.098458  0  1.078009  0  0  0.104871  0  1.070848  0  0  0.088143  0.093432  0  1.083517  0
H  H34  1  0.10646790  0.45983022  0.17542027  1  0  0.108212  0  0.919325  0  0  0.129224  0  0.971419  0  0  0.130823  0  0.970676  0  0  0.108782  0.127942  0  0.972087  0
H  H35  1  0.89352912  0.54017628  0.67542413  1  0  0.108213  0  0.919393  0  0  0.129189  0  0.971516  0  0  0.13075  0  0.97082  0  0  0.1088  0.127908  0  0.972184  0
H  H36  1  0.17123167  0.65494756  0.16384367  1  0  0.100256  0  0.960811  0  0  0.118529  0  1.021808  0  0  0.120035  0  1.021295  0  0  0.10662  0.117371  0  1.022239  0
H  H37  1  0.82877514  0.34506006  0.66384623  1  0  0.100179  0  0.960817  0  0  0.118398  0  1.021886  0  0  0.119908  0  1.02136  0  0  0.10657  0.117242  0  1.022317  0
H  H38  1  0.29493732  0.92201158  0.41171083  1  0  0.118807  0  0.937063  0  0  0.142892  0  0.98904  0  0  0.144585  0  0.989017  0  0  0.092537  0.141637  0  0.989113  0
H  H39  1  0.70505786  0.07798249  0.91171303  1  0  0.118798  0  0.937128  0  0  0.142915  0  0.989073  0  0  0.144608  0  0.989047  0  0  0.09255  0.14164  0  0.989168  0
H  H40  1  0.37901318  0.79371139  0.41433775  1  0  0.104385  0  0.975293  0  0  0.121875  0  1.041146  0  0  0.123637  0  1.041065  0  0  0.07917  0.120526  0  1.041274  0
H  H41  1  0.62098402  0.20628258  0.91434146  1  0  0.104408  0  0.975293  0  0  0.121897  0  1.041162  0  0  0.123662  0  1.041083  0  0  0.079178  0.120548  0  1.041288  0
H  H42  1  0.17563714  0.72683499  0.42664467  1  0  0.097234  0  0.960058  0  0  0.114514  0  1.026601  0  0  0.115729  0  1.026742  0  0  0.080217  0.113691  0  1.026469  0
H  H43  1  0.82436049  0.27315760  0.92664822  1  0  0.097294  0  0.960034  0  0  0.114601  0  1.026561  0  0  0.115818  0  1.026701  0  0  0.080267  0.113776  0  1.026427  0
H  H44  1  0.12520783  0.91807551  0.29763764  1  0  0.117908  0  0.94655  0  0  0.140715  0  1.002967  0  0  0.142818  0  1.002685  0  0  0.084943  0.139109  0  1.003247  0
H  H45  1  0.87479106  0.08192520  0.79763942  1  0  0.117927  0  0.946475  0  0  0.14073  0  1.002902  0  0  0.142835  0  1.002616  0  0  0.084945  0.139124  0  1.003182  0
H  H46  1  0.00697385  0.72329644  0.31388356  1  0  0.100313  0  0.991086  0  0  0.114539  0  1.065078  0  0  0.115489  0  1.066708  0  0  0.074612  0.113781  0  1.064005  0
H  H47  1  0.99302553  0.27670736  0.81388318  1  0  0.100319  0  0.991079  0  0  0.114559  0  1.065053  0  0  0.11551  0  1.066681  0  0  0.074618  0.113798  0  1.063983  0
H  H48  1  0.08756095  0.79013643  0.21943175  1  0  0.093683  0  0.960676  0  0  0.114578  0  1.021966  0  0  0.11555  0  1.022258  0  0  0.079704  0.113924  0  1.021732  0
H  H49  1  0.91243119  0.20986593  0.71943166  1  0  0.093608  0  0.960731  0  0  0.114509  0  1.022008  0  0  0.115481  0  1.022299  0  0  0.079691  0.113854  0  1.021775  0
H  H50  1  0.41488692  0.01420128  0.27460895  1  0  0.114198  0  0.972281  0  0  0.135792  0  1.032593  0  0  0.137479  0  1.033253  0  0  0.079904  0.134495  0  1.032208  0
H  H51  1  0.58511156  0.98579874  0.77461283  1  0  0.114168  0  0.972272  0  0  0.135744  0  1.032616  0  0  0.137431  0  1.033274  0  0  0.079888  0.134461  0  1.032216  0
H  H52  1  0.37834250  0.88265436  0.19783007  1  0  0.098402  0  0.944874  0  0  0.120302  0  1.002453  0  0  0.121167  0  1.003025  0  0  0.08147  0.119745  0  1.002006  0
H  H53  1  0.62165486  0.11734829  0.69783488  1  0  0.098376  0  0.944811  0  0  0.120269  0  1.002397  0  0  0.121134  0  1.002967  0  0  0.08145  0.119711  0  1.001953  0
H  H54  1  0.49822107  0.88478841  0.27777741  1  0  0.102115  0  0.990073  0  0  0.117101  0  1.062936  0  0  0.119757  0  1.061516  0  0  0.073366  0.115103  0  1.063983  0
H  H55  1  0.50177584  0.11521045  0.77778269  1  0  0.102118  0  0.990187  0  0  0.117089  0  1.063066  0  0  0.119745  0  1.061645  0  0  0.07334  0.11509  0  1.064118  0
C  C56  1  0.35891446  0.85992034  0.92941812  1  0  -0.354495  0  3.669844  0  0  -0.429415  0  3.897788  0  0  -0.433987  0  3.909188  0  0  -0.254141  -0.425961  0  3.889936  0
C  C57  1  0.64108683  0.14007780  0.42942197  1  0  -0.354556  0  3.669889  0  0  -0.429414  0  3.897836  0  0  -0.433994  0  3.909241  0  0  -0.254094  -0.425958  0  3.88999  0
C  C58  1  0.07210391  0.76566869  0.91499530  1  0  -0.358947  0  3.686102  0  0  -0.43622  0  3.916753  0  0  -0.44074  0  3.928665  0  0  -0.251779  -0.432764  0  3.908389  0
C  C59  1  0.92789957  0.23433422  0.41500420  1  0  -0.358885  0  3.685963  0  0  -0.436173  0  3.916662  0  0  -0.440679  0  3.928543  0  0  -0.251766  -0.432717  0  3.9083  0
C  C60  1  0.22845915  0.75465097  0.79999114  1  0  -0.345932  0  3.653111  0  0  -0.416424  0  3.877784  0  0  -0.420436  0  3.888087  0  0  -0.246329  -0.413386  0  3.87071  0
C  C61  1  0.77155152  0.24535056  0.29999394  1  0  -0.346016  0  3.6532  0  0  -0.416506  0  3.877902  0  0  -0.420495  0  3.888186  0  0  -0.246278  -0.41346  0  3.870821  0
C  C62  1  0.21345554  0.74597128  0.88948457  1  0  0.240215  0  3.54316  0  0  0.278494  0  3.780144  0  0  0.281036  0  3.800236  0  0  0.00021  0.276649  0  3.766452  0
C  C63  1  0.78654437  0.25402424  0.38948676  1  0  0.240431  0  3.542602  0  0  0.278568  0  3.779814  0  0  0.281113  0  3.799905  0  0  0.000214  0.276723  0  3.766119  0
C  C64  1  0.18427344  0.54461985  0.01690791  1  0  -0.216884  0  3.672772  0  0  -0.260916  0  3.933626  0  0  -0.26307  0  3.943993  0  0  -0.144876  -0.259207  0  3.926658  0
C  C65  1  0.81572569  0.45537484  0.51690748  1  0  -0.216771  0  3.672657  0  0  -0.260698  0  3.933432  0  0  -0.262854  0  3.943805  0  0  -0.144782  -0.258994  0  3.926472  0
C  C66  1  0.32945072  0.55931714  0.05701579  1  0  0.19171  0  3.650976  0  0  0.187261  0  3.903738  0  0  0.195033  0  3.916702  0  0  0.123838  0.181407  0  3.896108  0
C  C67  1  0.67054620  0.44067911  0.55701294  1  0  0.191862  0  3.650988  0  0  0.187347  0  3.903845  0  0  0.195118  0  3.916809  0  0  0.12388  0.181494  0  3.896219  0
C  C68  1  0.56310174  0.54705583  0.05313714  1  0  0.167934  0  3.746467  0  0  0.166945  0  3.980362  0  0  0.169502  0  4.001662  0  0  0.110635  0.164958  0  3.966885  0
C  C69  1  0.43689989  0.45294607  0.55313689  1  0  0.167854  0  3.746536  0  0  0.166974  0  3.980295  0  0  0.169527  0  4.001591  0  0  0.110583  0.164988  0  3.96682  0
C  C70  1  0.67477456  0.52109976  0.01113662  1  0  -0.113659  0  3.707513  0  0  -0.131788  0  3.951682  0  0  -0.135221  0  3.970246  0  0  -0.085454  -0.129796  0  3.940242  0
C  C71  1  0.32524100  0.47889692  0.51113727  1  0  -0.113702  0  3.707645  0  0  -0.13192  0  3.951801  0  0  -0.135358  0  3.970374  0  0  -0.085456  -0.129927  0  3.940364  0
C  C72  1  0.79505506  0.51289903  0.05074702  1  0  -0.052463  0  3.757262  0  0  -0.066189  0  4.002669  0  0  -0.067559  0  4.024104  0  0  -0.084943  -0.065576  0  3.988926  0
C  C73  1  0.20494507  0.48710409  0.55073987  1  0  -0.052541  0  3.756911  0  0  -0.066132  0  4.00239  0  0  -0.067501  0  4.023827  0  0  -0.084942  -0.065517  0  3.988639  0
C  C74  1  0.81012216  0.53445925  0.13271599  1  0  -0.055619  0  3.760303  0  0  -0.069779  0  4.007145  0  0  -0.07125  0  4.028562  0  0  -0.087866  -0.069129  0  3.993421  0
C  C75  1  0.18988682  0.46554664  0.63271305  1  0  -0.055439  0  3.760269  0  0  -0.069604  0  4.007042  0  0  -0.071073  0  4.028455  0  0  -0.087756  -0.068946  0  3.993314  0
C  C76  1  0.70368170  0.56202218  0.17500131  1  0  -0.116865  0  3.711668  0  0  -0.136361  0  3.957662  0  0  -0.139317  0  3.975882  0  0  -0.085946  -0.134607  0  3.946565  0
C  C77  1  0.29631120  0.43798215  0.67499513  1  0  -0.11699  0  3.711894  0  0  -0.136517  0  3.957962  0  0  -0.139459  0  3.976188  0  0  -0.086016  -0.134764  0  3.946863  0
C  C78  1  0.57667859  0.56588312  0.13610351  1  0  0.16708  0  3.747453  0  0  0.166051  0  3.982511  0  0  0.16839  0  4.003799  0  0  0.10964  0.164162  0  3.969077  0
C  C79  1  0.42332110  0.43411838  0.63610218  1  0  0.167096  0  3.747488  0  0  0.166031  0  3.982532  0  0  0.16839  0  4.003806  0  0  0.109637  0.164139  0  3.969103  0
C  C80  1  0.34076620  0.57354714  0.14027693  1  0  0.190367  0  3.652386  0  0  0.185546  0  3.906798  0  0  0.193038  0  3.919722  0  0  0.123795  0.179886  0  3.899206  0
C  C81  1  0.65922885  0.42645326  0.64027708  1  0  0.190176  0  3.652189  0  0  0.185294  0  3.906678  0  0  0.192796  0  3.919596  0  0  0.123766  0.179639  0  3.899087  0
C  C82  1  0.20534056  0.56973584  0.18593834  1  0  -0.215466  0  3.673826  0  0  -0.261431  0  3.936759  0  0  -0.263216  0  3.946588  0  0  -0.145363  -0.259949  0  3.930102  0
C  C83  1  0.79466050  0.43027036  0.68594272  1  0  -0.215259  0  3.673866  0  0  -0.261133  0  3.936816  0  0  -0.262885  0  3.946639  0  0  -0.145289  -0.259662  0  3.93017  0
C  C84  1  0.25428374  0.78892021  0.30661989  1  0  0.240233  0  3.542348  0  0  0.277107  0  3.782255  0  0  0.279585  0  3.802375  0  0  0.000683  0.275291  0  3.768553  0
C  C85  1  0.74571310  0.21108265  0.80662078  1  0  0.240095  0  3.542487  0  0  0.277042  0  3.782281  0  0  0.279502  0  3.802461  0  0  0.000656  0.275231  0  3.768544  0
C  C86  1  0.27784200  0.80833958  0.39545224  1  0  -0.346197  0  3.652215  0  0  -0.416758  0  3.875928  0  0  -0.420788  0  3.886447  0  0  -0.245635  -0.413752  0  3.868688  0
C  C87  1  0.72215583  0.19165588  0.89545557  1  0  -0.346259  0  3.65227  0  0  -0.416883  0  3.875909  0  0  -0.420917  0  3.886429  0  0  -0.245721  -0.413851  0  3.868663  0
C  C88  1  0.10942565  0.80398110  0.28284526  1  0  -0.357558  0  3.683744  0  0  -0.433796  0  3.914196  0  0  -0.438289  0  3.926003  0  0  -0.251328  -0.430386  0  3.905978  0
C  C89  1  0.89057078  0.19602109  0.78284757  1  0  -0.357481  0  3.683715  0  0  -0.433738  0  3.914132  0  0  -0.438229  0  3.925936  0  0  -0.251294  -0.430328  0  3.905918  0
C  C90  1  0.39521120  0.89833369  0.26153540  1  0  -0.353293  0  3.669732  0  0  -0.428198  0  3.898163  0  0  -0.432659  0  3.909092  0  0  -0.253105  -0.424811  0  3.890626  0
C  C91  1  0.60478323  0.10166440  0.76153911  1  0  -0.353162  0  3.669794  0  0  -0.428055  0  3.898161  0  0  -0.432515  0  3.909097  0  0  -0.253035  -0.424678  0  3.890611  0
S  S92  1  0.18486211  0.55000567  0.91058390  1  0  0.000639  0  2.599647  0  0  0.013627  0  3.005057  0  0  0.014664  0  2.992692  0  0  -0.026254  0.012327  0  3.013327  0
S  S93  1  0.81513674  0.44999402  0.41058674  1  0  0.000516  0  2.599553  0  0  0.013556  0  3.004939  0  0  0.014586  0  2.992577  0  0  -0.026304  0.01226  0  3.01322  0
S  S94  1  0.22544491  0.59136796  0.29143980  1  0  0.003344  0  2.605566  0  0  0.017737  0  3.010828  0  0  0.01842  0  2.999273  0  0  -0.02512  0.016692  0  3.018494  0
S  S95  1  0.77455144  0.40863180  0.79144076  1  0  0.003306  0  2.60584  0  0  0.017674  0  3.011044  0  0  0.018368  0  2.999469  0  0  -0.025152  0.016633  0  3.018701  0
I  I96  1  0.30942418  0.23328319  0.87258903  1  0  -0.430527  0  1.388364  0  0  -0.385573  0  1.735413  0  0  -0.403418  0  1.706263  0  0  -0.227256  -0.372378  0  1.753512  0
I  I97  1  0.69057631  0.76671151  0.37258230  1  0  -0.430522  0  1.388426  0  0  -0.385579  0  1.735492  0  0  -0.403427  0  1.706354  0  0  -0.227259  -0.372379  0  1.753582  0
I  I98  1  0.64391354  0.72118677  0.81929236  1  0  -0.432855  0  1.368914  0  0  -0.387784  0  1.712475  0  0  -0.406332  0  1.684632  0  0  -0.230221  -0.374211  0  1.729795  0
I  I99  1  0.35608578  0.27881465  0.31929216  1  0  -0.432867  0  1.368899  0  0  -0.387793  0  1.712449  0  0  -0.406336  0  1.684607  0  0  -0.230224  -0.374217  0  1.729765  0
N  N100  1  0.43919564  0.54829511  0.01458861  1  0  -0.272764  0  3.287015  0  0  -0.216715  0  3.561954  0  0  -0.221062  0  3.566711  0  0  -0.332493  -0.215135  0  3.559527  0
N  N101  1  0.56081028  0.45170743  0.51458967  1  0  -0.272804  0  3.287122  0  0  -0.216718  0  3.561998  0  0  -0.221062  0  3.566754  0  0  -0.332556  -0.215137  0  3.559575  0
N  N102  1  0.46326631  0.58011227  0.17851837  1  0  -0.273625  0  3.287488  0  0  -0.21827  0  3.563318  0  0  -0.222318  0  3.568031  0  0  -0.333027  -0.216892  0  3.560943  0
N  N103  1  0.53672342  0.41988752  0.67851725  1  0  -0.273612  0  3.287542  0  0  -0.218193  0  3.563359  0  0  -0.222272  0  3.568095  0  0  -0.333034  -0.216818  0  3.560987  0
