# generated using pymatgen
data_NiH28C26N4O5
_symmetry_space_group_name_H-M   'P 1'
_cell_length_a   10.28693597
_cell_length_b   10.98071862
_cell_length_c   11.68931296
_cell_angle_alpha   107.06217533
_cell_angle_beta   95.68881377
_cell_angle_gamma   104.48733240
_symmetry_Int_Tables_number   1
_chemical_formula_structural   NiH28C26N4O5
_chemical_formula_sum   'Ni2 H56 C52 N8 O10'
_cell_volume   1200.73036526
_cell_formula_units_Z   2
loop_
 _symmetry_equiv_pos_site_id
 _symmetry_equiv_pos_as_xyz
  1  'x, y, z'
loop_
 _atom_site_type_symbol
 _atom_site_label
 _atom_site_symmetry_multiplicity
 _atom_site_fract_x
 _atom_site_fract_y
 _atom_site_fract_z
 _atom_site_occupancy
 _atom_site_pbe_cm5_charge
 _atom_site_pbe_ddec_charge
 _atom_site_pbe_ddec_spin_density
 _atom_site_pbe_ddec_sum_bond_order
 _atom_site_pbe_magmom
Ni  Ni0  1  0.61603268  0.40135502  0.15438617  1  0.611722  0.658675  0.009734  2.574367  0.009
Ni  Ni1  1  0.38397183  0.59864844  0.84561822  1  0.611754  0.658746  0.009734  2.574367  0.009
H  H2  1  0.80539687  0.55736397  0.09524823  1  0.279998  0.369183  8.6e-05  0.978952  0.0
H  H3  1  0.19459866  0.44263261  0.90475451  1  0.279993  0.369206  8.6e-05  0.978917  0.0
H  H4  1  0.68910757  0.57697113  0.00418051  1  0.28563  0.373065  -4.5e-05  0.96348  0.0
H  H5  1  0.31089310  0.42303242  0.99582619  1  0.285643  0.373072  -4.5e-05  0.963487  0.0
H  H6  1  0.17119030  0.45217243  0.15946703  1  0.1071  0.11343  0.000145  1.010129  0.0
H  H7  1  0.82880749  0.54782815  0.84053866  1  0.1071  0.113447  0.000145  1.010087  0.0
H  H8  1  0.83124586  0.16428185  0.20417803  1  0.103017  0.104904  0.000242  1.046987  0.0
H  H9  1  0.16874511  0.83570971  0.79581876  1  0.102978  0.104864  0.000242  1.04694  0.0
H  H10  1  0.21722021  0.08098015  0.18229571  1  0.101377  0.098481  -0.000113  1.054614  0.0
H  H11  1  0.78278748  0.91902726  0.81770911  1  0.101373  0.098464  -0.000114  1.054734  0.0
H  H12  1  0.13062223  0.89266668  0.17544648  1  0.076261  0.096614  3e-06  1.064652  0.0
H  H13  1  0.86937608  0.10733580  0.82455462  1  0.076236  0.096569  3e-06  1.064693  0.0
H  H14  1  0.01089324  0.85568319  0.04151424  1  0.082548  0.121307  -5e-06  1.045624  0.0
H  H15  1  0.98910628  0.14432021  0.95848377  1  0.082531  0.121293  -5e-06  1.045692  0.0
H  H16  1  0.97388166  0.76553117  0.14396184  1  0.092503  0.142199  -2.2e-05  0.999179  0.0
H  H17  1  0.02612021  0.23447025  0.85603839  1  0.092492  0.142163  -2.2e-05  0.999208  0.0
H  H18  1  0.08074517  0.00625706  0.38352273  1  0.078407  0.103884  -1.1e-05  1.034872  0.0
H  H19  1  0.91925576  0.99374440  0.61647915  1  0.078395  0.103895  -1e-05  1.03492  0.0
H  H20  1  0.92313719  0.87936030  0.35150579  1  0.085407  0.119042  0.0  1.015229  0.0
H  H21  1  0.07686471  0.12064722  0.64850119  1  0.085408  0.119063  0.0  1.015264  0.0
H  H22  1  0.92556484  0.04961133  0.39471710  1  0.079437  0.108848  -3e-06  1.031492  0.0
H  H23  1  0.07443222  0.95039020  0.60528536  1  0.07942  0.108873  -3e-06  1.031408  0.0
H  H24  1  0.75867382  0.81094015  0.15294463  1  0.084714  0.132169  -0.000101  1.043449  0.0
H  H25  1  0.24132267  0.18904961  0.84706664  1  0.084725  0.132096  -0.000101  1.04354  0.0
H  H26  1  0.77795605  0.91451344  0.06035020  1  0.083907  0.123827  9e-06  1.013606  0.0
H  H27  1  0.22203421  0.08547836  0.93965943  1  0.083926  0.123786  9e-06  1.013541  0.0
H  H28  1  0.74230183  0.97484448  0.20880460  1  0.07785  0.103414  -1.6e-05  1.042185  0.0
H  H29  1  0.25769928  0.02515411  0.79120338  1  0.077868  0.103417  -1.6e-05  1.042267  0.0
H  H30  1  0.46515136  0.57779743  0.33020802  1  0.1362  0.106929  -0.000172  1.026333  0.0
H  H31  1  0.53484096  0.42220124  0.66979760  1  0.136163  0.10688  -0.000172  1.02636  0.0
H  H32  1  0.86561126  0.54639298  0.37577084  1  0.12275  0.117374  -0.000238  1.023825  0.0
H  H33  1  0.13438084  0.45360550  0.62422445  1  0.122729  0.117331  -0.000238  1.023828  0.0
H  H34  1  0.84554825  0.75084003  0.57436443  1  0.120212  0.123221  -0.000246  1.046535  0.0
H  H35  1  0.15445151  0.24916432  0.42563043  1  0.120193  0.123201  -0.000246  1.046455  0.0
H  H36  1  0.36545850  0.71380027  0.64327577  1  0.106072  0.116855  -0.00026  1.038477  0.0
H  H37  1  0.63454295  0.28620310  0.35672152  1  0.106109  0.11695  -0.00026  1.038474  0.0
H  H38  1  0.12295879  0.68200576  0.56214617  1  0.101051  0.101222  2.7e-05  1.009682  0.0
H  H39  1  0.87703650  0.31798454  0.43783948  1  0.101098  0.101259  2.7e-05  1.009793  0.0
H  H40  1  0.06286909  0.72705913  0.36759649  1  0.103484  0.101449  1.9e-05  1.020339  0.0
H  H41  1  0.93713745  0.27293903  0.63239211  1  0.103502  0.101446  1.9e-05  1.020275  0.0
H  H42  1  0.24511972  0.80993737  0.26399147  1  0.10252  0.103464  6e-06  1.044151  0.0
H  H43  1  0.75488977  0.19006685  0.73600409  1  0.102519  0.103415  6e-06  1.044161  0.0
H  H44  1  0.48851299  0.63854034  0.13051262  1  0.143839  0.123779  -0.000174  1.007999  0.0
H  H45  1  0.51150941  0.36146468  0.86948156  1  0.143845  0.123802  -0.000174  1.008008  0.0
H  H46  1  0.44373809  0.02689509  0.19928276  1  0.124017  0.137509  -0.000225  1.033034  0.0
H  H47  1  0.55625931  0.97310444  0.80071919  1  0.124008  0.137524  -0.000225  1.033005  0.0
H  H48  1  0.36678136  0.88676364  0.95258343  1  0.12396  0.118483  -0.00038  1.013271  0.0
H  H49  1  0.63320652  0.11322708  0.04741974  1  0.123939  0.118452  -0.00038  1.013269  0.0
H  H50  1  0.65775697  0.89310044  0.55862077  1  0.108454  0.092412  -6.1e-05  0.982728  0.0
H  H51  1  0.34224514  0.10690496  0.44137882  1  0.108452  0.092408  -6.1e-05  0.982742  0.0
H  H52  1  0.59491949  0.78764503  0.64369533  1  0.113901  0.114358  -1.7e-05  1.049829  0.0
H  H53  1  0.40507811  0.21236147  0.35630678  1  0.113927  0.114357  -1.7e-05  1.049807  0.0
H  H54  1  0.56142946  0.97760308  0.37452100  1  0.113314  0.099655  -5.1e-05  1.006293  0.0
H  H55  1  0.43857906  0.02239812  0.62547197  1  0.113324  0.099692  -5.1e-05  1.006228  0.0
H  H56  1  0.60880393  0.82945093  0.34277522  1  0.119927  0.10341  1e-06  0.996436  0.0
H  H57  1  0.39120249  0.17054944  0.65722507  1  0.119896  0.103371  1e-06  0.996421  0.0
C  C58  1  0.35835824  0.30499107  0.16628260  1  0.203399  0.550073  0.001128  4.188909  0.001
C  C59  1  0.64164345  0.69500038  0.83371581  1  0.203384  0.54998  0.001129  4.188939  0.001
C  C60  1  0.20993186  0.27051771  0.17400432  1  -0.023108  -0.044092  -0.002064  4.015577  -0.002
C  C61  1  0.79006535  0.72947788  0.82600000  1  -0.023121  -0.044065  -0.002064  4.01571  -0.002
C  C62  1  0.12990688  0.35601682  0.17135248  1  -0.076114  -0.110156  0.001033  3.936414  0.001
C  C63  1  0.87009769  0.64398670  0.82865536  1  -0.076161  -0.110281  0.001034  3.93661  0.001
C  C64  1  0.99285425  0.31541474  0.18227694  1  -0.018561  -0.032045  0.00283  3.984708  0.002
C  C65  1  0.00714864  0.68459278  0.81773097  1  -0.018531  -0.031976  0.00283  3.984718  0.002
C  C66  1  0.93821935  0.19135182  0.19637725  1  -0.083878  -0.145899  0.000727  3.941146  0.0
C  C67  1  0.06176809  0.80865066  0.80361532  1  -0.08386  -0.145962  0.000727  3.941313  0.0
C  C68  1  0.01516001  0.10260693  0.19572530  1  -0.005439  0.058159  8.6e-05  3.88984  0.0
C  C69  1  0.98482568  0.89739040  0.80425636  1  -0.005473  0.058241  8.6e-05  3.88996  0.0
C  C70  1  0.15172492  0.14522997  0.18472393  1  -0.085739  -0.147836  0.000659  3.948731  0.001
C  C71  1  0.84826470  0.85476054  0.81526904  1  -0.085641  -0.147801  0.00066  3.949018  0.001
C  C72  1  0.89890244  0.39838259  0.17011602  1  0.208295  0.55478  0.000822  4.197532  -0.001
C  C73  1  0.10109666  0.60161596  0.82988837  1  0.208337  0.554858  0.000822  4.197445  -0.001
C  C74  1  0.95246192  0.96543803  0.20669317  1  -0.013389  0.242749  1.6e-05  3.797593  0.0
C  C75  1  0.04753219  0.03456048  0.79330484  1  -0.013395  0.242686  1.7e-05  3.797753  0.0
C  C76  1  0.02110580  0.86422093  0.13802472  1  -0.248483  -0.414332  1.7e-05  3.862105  0.0
C  C77  1  0.97889283  0.13578257  0.86197752  1  -0.248432  -0.414207  1.7e-05  3.862135  0.0
C  C78  1  0.97193801  0.97645300  0.34222660  1  -0.243764  -0.408258  -2.4e-05  3.890946  0.0
C  C79  1  0.02806095  0.02355151  0.65777679  1  -0.243708  -0.408295  -2.6e-05  3.891092  0.0
C  C80  1  0.79856188  0.91396328  0.15419507  1  -0.253249  -0.423781  -0.000183  3.87968  0.0
C  C81  1  0.20143242  0.08602933  0.84580738  1  -0.253316  -0.423647  -0.000182  3.879719  0.0
C  C82  1  0.57124647  0.59610139  0.36817444  1  0.136688  0.074811  -0.000662  3.897983  -0.001
C  C83  1  0.42874864  0.40389713  0.63182536  1  0.136746  0.074983  -0.000662  3.898012  -0.001
C  C84  1  0.77973475  0.58363850  0.39554622  1  0.001524  -0.029883  -0.000896  3.983751  -0.001
C  C85  1  0.22026192  0.41636197  0.60445251  1  0.001589  -0.029667  -0.000896  3.983721  -0.001
C  C86  1  0.77156596  0.68526753  0.49364700  1  -0.002348  -0.114154  -0.000923  3.920994  -0.001
C  C87  1  0.22843291  0.31473993  0.50635461  1  -0.00233  -0.114226  -0.000923  3.921188  -0.001
C  C88  1  0.44293114  0.78273966  0.50162789  1  -0.02133  0.021076  -4.2e-05  3.978157  0.0
C  C89  1  0.55706806  0.21725971  0.49836645  1  -0.021393  0.021079  -4.3e-05  3.978007  0.0
C  C90  1  0.33881998  0.73647243  0.56075076  1  -0.087957  -0.124545  -0.000224  3.954279  0.0
C  C91  1  0.66118439  0.26352179  0.43923833  1  -0.087979  -0.124637  -0.000223  3.954099  0.0
C  C92  1  0.20221288  0.71813460  0.51451056  1  -0.093144  -0.08521  -7.2e-05  4.013016  0.0
C  C93  1  0.79779118  0.28186470  0.48548414  1  -0.093216  -0.085292  -7.2e-05  4.0132  0.0
C  C94  1  0.16895992  0.74435570  0.40735859  1  -0.0862  -0.068593  -1.9e-05  4.003557  0.0
C  C95  1  0.83103966  0.25563866  0.59263445  1  -0.086145  -0.068441  -1.9e-05  4.003352  0.0
C  C96  1  0.27241743  0.79171115  0.34859975  1  -0.095308  -0.139487  -0.000103  3.987478  0.0
C  C97  1  0.72758180  0.20828521  0.65139380  1  -0.095332  -0.139551  -0.000103  3.987437  0.0
C  C98  1  0.40971675  0.81292970  0.39510029  1  -0.016301  0.025874  -9.3e-05  3.962464  0.0
C  C99  1  0.59028627  0.18707866  0.60489931  1  -0.01627  0.025877  -9.3e-05  3.962475  0.0
C  C100  1  0.46268409  0.72264435  0.11421431  1  0.151056  0.099199  8.2e-05  3.840814  0.0
C  C101  1  0.53732616  0.27735894  0.88578533  1  0.151119  0.099212  8.2e-05  3.840636  0.0
C  C102  1  0.43853980  0.92513483  0.14888191  1  -0.001284  -0.124064  -0.001423  3.919207  -0.001
C  C103  1  0.56145217  0.07486281  0.85112169  1  -0.001208  -0.123986  -0.001423  3.919228  -0.001
C  C104  1  0.40174898  0.85543335  0.02647300  1  0.007262  -0.012367  -0.001148  3.960147  -0.001
C  C105  1  0.59825134  0.14456614  0.97352916  1  0.007251  -0.012389  -0.001148  3.960099  -0.001
C  C106  1  0.58820486  0.79588664  0.55191727  1  -0.056212  -0.12679  -0.000442  3.892574  0.0
C  C107  1  0.41179790  0.20411774  0.44808210  1  -0.056185  -0.126752  -0.000442  3.892682  0.0
C  C108  1  0.52168362  0.86856621  0.33265568  1  -0.045682  -0.114777  -0.000446  3.914813  0.0
C  C109  1  0.47832274  0.13143410  0.66734117  1  -0.045622  -0.114651  -0.000446  3.914447  0.0
N  N110  1  0.65449833  0.52932007  0.31753072  1  -0.360566  -0.242711  -0.020153  3.652788  -0.016
N  N111  1  0.34550036  0.47068044  0.68247159  1  -0.360638  -0.242997  -0.020154  3.652883  -0.016
N  N112  1  0.63931128  0.69234166  0.47485860  1  -0.242658  0.048487  -0.000561  3.755223  -0.001
N  N113  1  0.36068574  0.30765984  0.52514213  1  -0.242686  0.048466  -0.000561  3.755273  -0.001
N  N114  1  0.47667781  0.83982596  0.20306578  1  -0.247099  0.036479  -0.000821  3.805762  -0.001
N  N115  1  0.52333181  0.16017534  0.79693329  1  -0.247255  0.036309  -0.000821  3.805694  -0.001
N  N116  1  0.41757855  0.72992664  0.00628080  1  -0.356254  -0.239958  -0.024468  3.648207  -0.022
N  N117  1  0.58242685  0.27007673  0.99371935  1  -0.356231  -0.239956  -0.024467  3.648166  -0.022
O  O118  1  0.42865992  0.23553689  0.19470111  1  -0.307178  -0.543559  -0.016417  2.23465  -0.017
O  O119  1  0.57134168  0.76445751  0.80529552  1  -0.307164  -0.543491  -0.016421  2.234522  -0.017
O  O120  1  0.41212328  0.40636186  0.13287861  1  -0.301645  -0.530867  0.031673  2.284609  0.033
O  O121  1  0.58787844  0.59363871  0.86712908  1  -0.301669  -0.530846  0.031673  2.284728  0.033
O  O122  1  0.93801104  0.50000485  0.13960852  1  -0.310339  -0.526151  0.000175  2.14433  0.0
O  O123  1  0.06199107  0.50000054  0.86039107  1  -0.31034  -0.526158  0.000174  2.144551  0.0
O  O124  1  0.77903209  0.35194013  0.19310789  1  -0.309498  -0.519567  0.044014  2.437621  0.048
O  O125  1  0.22097150  0.64806642  0.80690153  1  -0.309513  -0.519563  0.044017  2.437324  0.048
O  O126  1  0.71856120  0.58231659  0.08867655  1  -0.585116  -0.771804  -0.020211  2.089824  -0.021
O  O127  1  0.28143943  0.41768693  0.91132842  1  -0.58512  -0.77186  -0.020208  2.089816  -0.021
