# generated using pymatgen
data_CoP4H16C4(NO6)2
_symmetry_space_group_name_H-M   'P 1'
_cell_length_a   8.52083359
_cell_length_b   9.33845836
_cell_length_c   9.32412964
_cell_angle_alpha   96.82407501
_cell_angle_beta   89.99997648
_cell_angle_gamma   89.99979310
_symmetry_Int_Tables_number   1
_chemical_formula_structural   CoP4H16C4(NO6)2
_chemical_formula_sum   'Co2 P8 H32 C8 N4 O24'
_cell_volume   736.67840315
_cell_formula_units_Z   2
loop_
 _symmetry_equiv_pos_site_id
 _symmetry_equiv_pos_as_xyz
  1  'x, y, z'
loop_
 _atom_site_type_symbol
 _atom_site_label
 _atom_site_symmetry_multiplicity
 _atom_site_fract_x
 _atom_site_fract_y
 _atom_site_fract_z
 _atom_site_occupancy
 _atom_site_pbe_cm5_charge
 _atom_site_pbe_ddec_charge
 _atom_site_pbe_ddec_spin_density
 _atom_site_pbe_ddec_sum_bond_order
 _atom_site_pbe_magmom
Co  Co0  1  0.00000106  0.00000041  0.49999994  1  0.673621  1.190412  2.825471  2.200413  2.651
Co  Co1  1  0.49999810  0.50000106  0.49999913  1  0.673603  1.19036  2.825468  2.200614  2.651
P  P2  1  0.65972558  0.46276161  0.17049891  1  0.378307  1.329388  0.004007  5.275116  0.005
P  P3  1  0.15972355  0.03724026  0.82949895  1  0.378254  1.329287  0.004007  5.275153  0.005
P  P4  1  0.34027532  0.53723943  0.82949935  1  0.378323  1.329411  0.004006  5.275143  0.005
P  P5  1  0.84027735  0.96276116  0.17050255  1  0.378238  1.329227  0.004008  5.275262  0.005
P  P6  1  0.18665127  0.28267882  0.41246035  1  0.371625  1.321538  0.006247  5.269279  0.006
P  P7  1  0.68665174  0.21732107  0.58753965  1  0.371702  1.32169  0.006247  5.269123  0.006
P  P8  1  0.81334727  0.71732034  0.58754006  1  0.371618  1.321522  0.006247  5.26924  0.006
P  P9  1  0.31334798  0.78267915  0.41246077  1  0.37162  1.321522  0.006247  5.269342  0.006
H  H10  1  0.17107647  0.33065816  0.16167585  1  0.125417  0.157707  1.3e-05  0.965578  0.0
H  H11  1  0.67107701  0.16933951  0.83832308  1  0.12542  0.157717  1.3e-05  0.965594  0.0
H  H12  1  0.82892208  0.66933872  0.83832348  1  0.125391  0.157664  1.3e-05  0.965583  0.0
H  H13  1  0.32892388  0.83065952  0.16167625  1  0.125396  0.157677  1.3e-05  0.965596  0.0
H  H14  1  0.15714673  0.49263374  0.28543573  1  0.123465  0.1597  0.000198  0.998033  0.0
H  H15  1  0.65714680  0.00736600  0.71456213  1  0.123484  0.159753  0.000198  0.998028  0.0
H  H16  1  0.84285416  0.50736529  0.71456360  1  0.123506  0.159756  0.000198  0.998008  0.0
H  H17  1  0.34285292  0.99263410  0.28543721  1  0.123495  0.159744  0.000198  0.998022  0.0
H  H18  1  0.91434777  0.25977943  0.22586054  1  0.315654  0.288869  -1e-05  0.948756  0.0
H  H19  1  0.41434731  0.24022076  0.77413929  1  0.315657  0.288837  -1e-05  0.948806  0.0
H  H20  1  0.08565078  0.74022067  0.77413880  1  0.315655  0.288859  -1e-05  0.948783  0.0
H  H21  1  0.58565241  0.75977827  0.22586004  1  0.315652  0.288871  -1e-05  0.948756  0.0
H  H22  1  0.90448817  0.39945804  0.03487711  1  0.123433  0.146741  0.000231  0.984567  0.0
H  H23  1  0.40448583  0.10054218  0.96512272  1  0.123441  0.146742  0.000231  0.98455  0.0
H  H24  1  0.09551272  0.60054325  0.96512331  1  0.12343  0.14674  0.000231  0.984571  0.0
H  H25  1  0.59551389  0.89945804  0.03487769  1  0.12345  0.146761  0.000231  0.984534  0.0
H  H26  1  0.91833506  0.56294166  0.15756194  1  0.124383  0.149542  7e-05  0.987424  0.0
H  H27  1  0.41833613  0.93705855  0.84243881  1  0.124382  0.149529  7e-05  0.987428  0.0
H  H28  1  0.08166466  0.43705869  0.84243956  1  0.12438  0.149534  7e-05  0.987436  0.0
H  H29  1  0.58166476  0.06294180  0.15756269  1  0.124376  0.149516  7e-05  0.987445  0.0
H  H30  1  0.89430129  0.40902454  0.35057617  1  0.32829  0.283195  -6.8e-05  0.909417  0.0
H  H31  1  0.39430147  0.09097572  0.64942367  1  0.3283  0.283223  -6.8e-05  0.909381  0.0
H  H32  1  0.10569844  0.59097462  0.64942424  1  0.328284  0.283197  -6.8e-05  0.9094  0.0
H  H33  1  0.60569825  0.90902343  0.35057674  1  0.328283  0.283198  -6.8e-05  0.909405  0.0
H  H34  1  0.50697645  0.36617324  0.99265094  1  0.302549  0.391495  6e-05  0.958045  0.0
H  H35  1  0.00697675  0.13382619  0.00734919  1  0.30256  0.391497  6e-05  0.958041  0.0
H  H36  1  0.49302328  0.63382686  0.00734839  1  0.302564  0.39151  6e-05  0.95803  0.0
H  H37  1  0.99302297  0.86617296  0.99265122  1  0.302565  0.391509  6e-05  0.958017  0.0
H  H38  1  0.99577980  0.29558341  0.56743825  1  0.311468  0.394458  -0.00042  0.952269  0.0
H  H39  1  0.49577963  0.20441638  0.43256044  1  0.311445  0.394425  -0.00042  0.952319  0.0
H  H40  1  0.00421758  0.70441549  0.43256001  1  0.311408  0.394351  -0.00042  0.952405  0.0
H  H41  1  0.50422009  0.79558397  0.56744106  1  0.311422  0.3944  -0.00042  0.952364  0.0
C  C42  1  0.12011655  0.37952034  0.26412335  1  -0.070197  -0.346491  0.001365  3.744045  0.002
C  C43  1  0.62011733  0.12047871  0.73587670  1  -0.070227  -0.34659  0.001365  3.744089  0.002
C  C44  1  0.87988200  0.62047869  0.73587599  1  -0.070215  -0.346514  0.001365  3.744022  0.002
C  C45  1  0.37988357  0.87952152  0.26412371  1  -0.070211  -0.34649  0.001365  3.74402  0.002
C  C46  1  0.87334672  0.45204513  0.14235061  1  -0.069429  -0.344983  0.002487  3.756091  0.003
C  C47  1  0.37334699  0.04795507  0.85764816  1  -0.069432  -0.344913  0.002487  3.756031  0.003
C  C48  1  0.12665300  0.54795497  0.85764872  1  -0.069415  -0.34497  0.002487  3.756066  0.003
C  C49  1  0.62665391  0.95204623  0.14235226  1  -0.069426  -0.344896  0.002487  3.756008  0.003
N  N50  1  0.94574940  0.36992276  0.25309174  1  -0.471731  -0.134406  3.3e-05  3.598199  0.0
N  N51  1  0.44574939  0.13007744  0.74690915  1  -0.471748  -0.134443  3.3e-05  3.59826  0.0
N  N52  1  0.05425032  0.63007746  0.74690868  1  -0.471727  -0.134394  3.3e-05  3.598208  0.0
N  N53  1  0.55425151  0.86992291  0.25309235  1  -0.471743  -0.134487  3.3e-05  3.598262  0.0
O  O54  1  0.60841343  0.60593186  0.12177402  1  -0.364449  -0.735146  0.000222  2.232173  0.001
O  O55  1  0.10841583  0.89406890  0.87822265  1  -0.364406  -0.735106  0.000221  2.232166  0.001
O  O56  1  0.39158512  0.39407158  0.87822640  1  -0.364423  -0.735119  0.000222  2.232202  0.001
O  O57  1  0.89158507  0.10593133  0.12177777  1  -0.36442  -0.735094  0.000221  2.23217  0.001
O  O58  1  0.64235522  0.44090519  0.32735069  1  -0.366082  -0.778754  0.023613  2.384079  0.034
O  O59  1  0.14235318  0.05910449  0.67264937  1  -0.366086  -0.778777  0.023613  2.384063  0.034
O  O60  1  0.35764215  0.55909920  0.67264865  1  -0.366127  -0.778807  0.023613  2.384111  0.034
O  O61  1  0.85764772  0.94089787  0.32735106  1  -0.366051  -0.778721  0.023613  2.384117  0.034
O  O62  1  0.09073912  0.35851150  0.54752432  1  -0.384116  -0.65791  -0.000513  2.243488  0.0
O  O63  1  0.59073994  0.14148834  0.45247252  1  -0.384139  -0.657923  -0.000513  2.243404  0.0
O  O64  1  0.90925826  0.64148740  0.45247394  1  -0.384063  -0.657808  -0.000513  2.243559  0.0
O  O65  1  0.40925978  0.85851283  0.54752682  1  -0.384092  -0.657854  -0.000513  2.243482  0.0
O  O66  1  0.14120651  0.12563073  0.37861682  1  -0.367039  -0.778605  0.027252  2.307123  0.041
O  O67  1  0.64120399  0.37436824  0.62138321  1  -0.367054  -0.778661  0.027251  2.307126  0.041
O  O68  1  0.85879439  0.87436855  0.62138467  1  -0.367035  -0.778613  0.027251  2.307074  0.041
O  O69  1  0.35879456  0.62563091  0.37861720  1  -0.367044  -0.77862  0.027254  2.30718  0.041
O  O70  1  0.36144397  0.31256104  0.43174909  1  -0.352994  -0.761771  0.022407  2.372747  0.034
O  O71  1  0.86144221  0.18743706  0.56824970  1  -0.353039  -0.761803  0.022407  2.37271  0.034
O  O72  1  0.63855575  0.68743837  0.56825349  1  -0.352997  -0.761735  0.022406  2.372677  0.034
O  O73  1  0.13855751  0.81255995  0.43175071  1  -0.352986  -0.761743  0.022407  2.372751  0.034
O  O74  1  0.58399852  0.33336694  0.06830104  1  -0.395337  -0.679737  7.3e-05  2.218913  0.0
O  O75  1  0.08399829  0.16663437  0.93169905  1  -0.395346  -0.679724  7.3e-05  2.218943  0.0
O  O76  1  0.41600120  0.66663316  0.93169830  1  -0.395343  -0.679745  7.3e-05  2.218934  0.0
O  O77  1  0.91600261  0.83336573  0.06830029  1  -0.395347  -0.679723  7.3e-05  2.218957  0.0
