# generated using pymatgen
data_RbH5C5N2O5
_symmetry_space_group_name_H-M   'P 1'
_cell_length_a   5.03275764
_cell_length_b   7.88331316
_cell_length_c   18.87968266
_cell_angle_alpha   83.41533053
_cell_angle_beta   89.99963150
_cell_angle_gamma   89.99998107
_symmetry_Int_Tables_number   1
_chemical_formula_structural   RbH5C5N2O5
_chemical_formula_sum   'Rb4 H20 C20 N8 O20'
_cell_volume   744.10661333
_cell_formula_units_Z   4
loop_
 _symmetry_equiv_pos_site_id
 _symmetry_equiv_pos_as_xyz
  1  'x, y, z'
loop_
 _atom_site_type_symbol
 _atom_site_label
 _atom_site_symmetry_multiplicity
 _atom_site_fract_x
 _atom_site_fract_y
 _atom_site_fract_z
 _atom_site_occupancy
 _atom_site_pbe_bader_charge
 _atom_site_pbe_bader_spin_density
 _atom_site_pbe_cm5_charge
 _atom_site_pbe_ddec_charge
 _atom_site_pbe_ddec_spin_density
 _atom_site_pbe_ddec_sum_bond_order
 _atom_site_pbe_magmom
Rb  Rb0  1  0.63996622  0.18929108  0.78235888  1  0.892972  0  0.844669  0.897468  0  0.764053  0
Rb  Rb1  1  0.13997376  0.81070557  0.71763961  1  0.892941  0  0.844684  0.897462  0  0.764082  0
Rb  Rb2  1  0.36002643  0.81071188  0.21764251  1  0.892966  0  0.844736  0.897462  0  0.764111  0
Rb  Rb3  1  0.86002683  0.18927948  0.28235736  1  0.892909  0  0.84476  0.897453  0  0.764161  0
H  H4  1  0.63769112  0.62157796  0.72409784  1  0.630894  0  0.278628  0.356061  0  1.002409  0
H  H5  1  0.13768874  0.37841484  0.77589978  1  0.63081  0  0.27862  0.356061  0  1.002398  0
H  H6  1  0.36229755  0.37842498  0.27590197  1  0.630907  0  0.278626  0.356077  0  1.002372  0
H  H7  1  0.86230391  0.62157533  0.22410012  1  0.630891  0  0.278622  0.356087  0  1.00236  0
H  H8  1  0.76408570  0.51331598  0.66275220  1  0.647129  0  0.280266  0.364479  0  0.99202  0
H  H9  1  0.26408399  0.48667698  0.83724672  1  0.647228  0  0.28027  0.364494  0  0.992012  0
H  H10  1  0.23591092  0.48668825  0.33724807  1  0.647092  0  0.280276  0.364486  0  0.99201  0
H  H11  1  0.73591461  0.51330809  0.16275396  1  0.647096  0  0.280275  0.364438  0  0.992084  0
H  H12  1  0.87089743  0.01289204  0.55698815  1  0.519388  0  0.315479  0.30086  0  0.979474  0
H  H13  1  0.37089074  0.98711636  0.94300873  1  0.519424  0  0.315429  0.300718  0  0.979695  0
H  H14  1  0.12911707  0.98711855  0.44300810  1  0.519445  0  0.315475  0.300726  0  0.979739  0
H  H15  1  0.62911383  0.01288021  0.05699351  1  0.5194  0  0.315481  0.30072  0  0.979745  0
H  H16  1  0.47654993  0.33746079  0.40785913  1  0.559059  0  0.318923  0.308247  0  0.957119  0
H  H17  1  0.97653661  0.66254089  0.09213575  1  0.559169  0  0.318917  0.308235  0  0.957081  0
H  H18  1  0.52345862  0.66255490  0.59213528  1  0.559254  0  0.318941  0.308201  0  0.957166  0
H  H19  1  0.02346200  0.33744675  0.90786745  1  0.559304  0  0.318936  0.308144  0  0.957275  0
H  H20  1  0.17547956  0.41757916  0.49309310  1  0.187081  0  0.129799  0.110266  0  1.021782  0
H  H21  1  0.67546791  0.58242089  0.00690093  1  0.186971  0  0.129825  0.110332  0  1.021805  0
H  H22  1  0.82452501  0.58243270  0.50690150  1  0.187092  0  0.12978  0.110221  0  1.021882  0
H  H23  1  0.32452872  0.41756802  0.99310168  1  0.187093  0  0.129799  0.110263  0  1.021787  0
C  C24  1  0.14957217  0.31981029  0.63536133  1  1.608004  0  0.202648  0.620353  0  4.236853  0
C  C25  1  0.64957994  0.68018506  0.86463243  1  1.608171  0  0.202752  0.620384  0  4.236876  0
C  C26  1  0.85042644  0.68019774  0.36463452  1  1.608334  0  0.2028  0.620247  0  4.237035  0
C  C27  1  0.35042662  0.31979364  0.13537227  1  1.608297  0  0.202653  0.620017  0  4.236968  0
C  C28  1  0.34232190  0.25761460  0.58236319  1  0.088983  0  -0.038266  -0.279518  0  3.900703  0
C  C29  1  0.84231867  0.74239758  0.91763091  1  0.106394  0  -0.038261  -0.27945  0  3.90084  0
C  C30  1  0.65766677  0.74239853  0.41763082  1  0.106522  0  -0.038194  -0.279325  0  3.900824  0
C  C31  1  0.15767795  0.25759133  0.08237116  1  0.106289  0  -0.038245  -0.27932  0  3.900746  0
C  C32  1  0.54583259  0.12853520  0.60096193  1  1.314665  0  0.232176  0.541556  0  4.097818  0
C  C33  1  0.04583089  0.87147155  0.89903415  1  1.297039  0  0.232158  0.541621  0  4.097929  0
C  C34  1  0.45416205  0.87147410  0.39903015  1  1.296583  0  0.232113  0.541603  0  4.097836  0
C  C35  1  0.95416374  0.12851610  0.10097063  1  1.296754  0  0.232179  0.541696  0  4.097773  0
C  C36  1  0.71164926  0.17773924  0.47689177  1  1.853086  0  0.345926  0.644661  0  4.15344  0
C  C37  1  0.21164622  0.82226598  0.02310511  1  1.853193  0  0.345822  0.644406  0  4.153745  0
C  C38  1  0.28835134  0.82227262  0.52310230  1  1.853207  0  0.345945  0.644721  0  4.153591  0
C  C39  1  0.78834444  0.17772167  0.97689915  1  1.853893  0  0.345939  0.644568  0  4.153546  0
C  C40  1  0.32904740  0.32625277  0.51225107  1  0.340972  0  0.064137  0.136985  0  3.910905  0
C  C41  1  0.82903517  0.67375046  0.98774297  1  0.341612  0  0.063996  0.136614  0  3.911207  0
C  C42  1  0.67095717  0.67376548  0.48774375  1  0.341436  0  0.064055  0.136799  0  3.91134  0
C  C43  1  0.17096741  0.32623335  0.01226042  1  0.34161  0  0.064061  0.136712  0  3.911206  0
N  N44  1  0.72065971  0.10271296  0.54557072  1  -1.26275  0  -0.386949  -0.454552  0  3.510691  0
N  N45  1  0.22064906  0.89729399  0.95442549  1  -1.26283  0  -0.386954  -0.454502  0  3.510922  0
N  N46  1  0.27934684  0.89730017  0.45442223  1  -1.262926  0  -0.387023  -0.45464  0  3.510947  0
N  N47  1  0.77935154  0.10269622  0.04558023  1  -1.262897  0  -0.387091  -0.454737  0  3.510933  0
N  N48  1  0.50305785  0.28795625  0.46129566  1  -1.300137  0  -0.37417  -0.326497  0  3.557724  0
N  N49  1  0.00304686  0.71204360  0.03869770  1  -1.300466  0  -0.374066  -0.326142  0  3.557387  0
N  N50  1  0.49694274  0.71205816  0.53869775  1  -1.300568  0  -0.374178  -0.32634  0  3.557862  0
N  N51  1  0.99694777  0.28794532  0.96130544  1  -1.300537  0  -0.374131  -0.326117  0  3.557473  0
O  O52  1  0.15908337  0.25424068  0.70015871  1  -1.205831  0  -0.435298  -0.666617  0  2.252748  0
O  O53  1  0.65909409  0.74576747  0.79983705  1  -1.205856  0  -0.435354  -0.666596  0  2.252675  0
O  O54  1  0.84090530  0.74576226  0.29983845  1  -1.205822  0  -0.435381  -0.666589  0  2.252917  0
O  O55  1  0.34090451  0.25422656  0.20016795  1  -1.205873  0  -0.435313  -0.666443  0  2.252788  0
O  O56  1  0.98858941  0.43645041  0.61058674  1  -1.201091  0  -0.328923  -0.579904  0  2.185095  0
O  O57  1  0.48859854  0.56354661  0.88940672  1  -1.201287  0  -0.328976  -0.579991  0  2.185177  0
O  O58  1  0.01142112  0.56356532  0.38941403  1  -1.201392  0  -0.328999  -0.579877  0  2.185151  0
O  O59  1  0.51141795  0.43642567  0.11059087  1  -1.201305  0  -0.328972  -0.579839  0  2.185046  0
O  O60  1  0.57946982  0.03779886  0.65866981  1  -1.174567  0  -0.433898  -0.578416  0  2.223916  0
O  O61  1  0.07947090  0.96220283  0.84132909  1  -1.174718  0  -0.433893  -0.578431  0  2.22419  0
O  O62  1  0.42053078  0.96220277  0.34132370  1  -1.174391  0  -0.433963  -0.578443  0  2.224082  0
O  O63  1  0.92053566  0.03779248  0.15867532  1  -1.174437  0  -0.433977  -0.578502  0  2.224249  0
O  O64  1  0.87796010  0.14579380  0.43120299  1  -1.182659  0  -0.374831  -0.574974  0  2.223208  0
O  O65  1  0.37794428  0.85421160  0.06879034  1  -1.182592  0  -0.374637  -0.574745  0  2.22349  0
O  O66  1  0.12205242  0.85421805  0.56878950  1  -1.18257  0  -0.374682  -0.574902  0  2.223411  0
O  O67  1  0.62206029  0.14578117  0.93121579  1  -1.183315  0  -0.37461  -0.574735  0  2.22366  0
O  O68  1  0.59900303  0.56885870  0.67997137  1  -1.3152  0  -0.640362  -0.820461  0  2.03349  0
O  O69  1  0.09900175  0.43113280  0.82002905  1  -1.315235  0  -0.640326  -0.820415  0  2.033503  0
O  O70  1  0.40099558  0.43114807  0.32002772  1  -1.315151  0  -0.640327  -0.820452  0  2.033452  0
O  O71  1  0.90099885  0.56885356  0.17997262  1  -1.315158  0  -0.640327  -0.82043  0  2.03342  0
