# generated using pymatgen
data_Zn2H10C16BrN3O5
_symmetry_space_group_name_H-M   'P 1'
_cell_length_a   12.09542878
_cell_length_b   12.09547753
_cell_length_c   14.98974924
_cell_angle_alpha   66.70357292
_cell_angle_beta   66.70369589
_cell_angle_gamma   68.51789000
_symmetry_Int_Tables_number   1
_chemical_formula_structural   Zn2H10C16BrN3O5
_chemical_formula_sum   'Zn8 H40 C64 Br4 N12 O20'
_cell_volume   1791.86704167
_cell_formula_units_Z   4
loop_
 _symmetry_equiv_pos_site_id
 _symmetry_equiv_pos_as_xyz
  1  'x, y, z'
loop_
 _atom_site_type_symbol
 _atom_site_label
 _atom_site_symmetry_multiplicity
 _atom_site_fract_x
 _atom_site_fract_y
 _atom_site_fract_z
 _atom_site_occupancy
 _atom_site_hle17_bader_spin_density
 _atom_site_hle17_ddec_charge
 _atom_site_hle17_ddec_spin_density
 _atom_site_hle17_ddec_sum_bond_order
 _atom_site_hle17_magmom
 _atom_site_hse06_10hf_bader_spin_density
 _atom_site_hse06_10hf_ddec_charge
 _atom_site_hse06_10hf_ddec_spin_density
 _atom_site_hse06_10hf_ddec_sum_bond_order
 _atom_site_hse06_10hf_magmom
 _atom_site_hse06_bader_spin_density
 _atom_site_hse06_ddec_charge
 _atom_site_hse06_ddec_spin_density
 _atom_site_hse06_ddec_sum_bond_order
 _atom_site_hse06_magmom
 _atom_site_pbe_bader_spin_density
 _atom_site_pbe_cm5_charge
 _atom_site_pbe_ddec_charge
 _atom_site_pbe_ddec_spin_density
 _atom_site_pbe_ddec_sum_bond_order
 _atom_site_pbe_magmom
Zn  Zn0  1  0.94735764  0.67256796  0.84330351  1  0  1.11552  0  1.901571  0  0  0.945664  0  2.394422  0  0  0.989195  0  2.333874  0  0  0.699411  0.915  0  2.436298  0
Zn  Zn1  1  0.32742943  0.05264253  0.65669682  1  0  1.11547  0  1.901564  0  0  0.945601  0  2.39445  0  0  0.989131  0  2.333906  0  0  0.699398  0.914937  0  2.436343  0
Zn  Zn2  1  0.05264208  0.32743058  0.15669638  1  0  1.115512  0  1.901572  0  0  0.945666  0  2.394433  0  0  0.989198  0  2.333884  0  0  0.699408  0.914998  0  2.436312  0
Zn  Zn3  1  0.67257051  0.94735878  0.34330142  1  0  1.115575  0  1.901451  0  0  0.94572  0  2.394328  0  0  0.98925  0  2.333781  0  0  0.699439  0.915057  0  2.43621  0
Zn  Zn4  1  0.30135606  0.93525270  0.50274969  1  0  1.072477  0  1.847093  0  0  0.891329  0  2.319678  0  0  0.938717  0  2.26163  0  0  0.678952  0.858062  0  2.359619  0
Zn  Zn5  1  0.06474674  0.69864252  0.99725184  1  0  1.072482  0  1.847126  0  0  0.891333  0  2.319711  0  0  0.938719  0  2.261663  0  0  0.678971  0.85807  0  2.35967  0
Zn  Zn6  1  0.69864231  0.06474770  0.49725069  1  0  1.072498  0  1.847115  0  0  0.891341  0  2.319716  0  0  0.938727  0  2.26167  0  0  0.678959  0.858074  0  2.359675  0
Zn  Zn7  1  0.93525209  0.30135974  0.00274913  1  0  1.07246  0  1.847056  0  0  0.891307  0  2.319642  0  0  0.938695  0  2.261595  0  0  0.678948  0.858047  0  2.359585  0
H  H8  1  0.16530096  0.53759414  0.75995804  1  0  0.101285  0  0.96629  0  0  0.114051  0  1.025694  0  0  0.117676  0  1.023245  0  0  0.103875  0.111352  0  1.027775  0
H  H9  1  0.46240555  0.83469570  0.74004041  1  0  0.101339  0  0.966298  0  0  0.114071  0  1.025727  0  0  0.117697  0  1.023277  0  0  0.103892  0.111374  0  1.027788  0
H  H10  1  0.83469649  0.46240624  0.24003931  1  0  0.10133  0  0.966311  0  0  0.114066  0  1.025741  0  0  0.117691  0  1.023293  0  0  0.103892  0.111371  0  1.027802  0
H  H11  1  0.53759438  0.16530188  0.25995705  1  0  0.10131  0  0.966277  0  0  0.114057  0  1.025697  0  0  0.117683  0  1.023247  0  0  0.103872  0.111355  0  1.027766  0
H  H12  1  0.36908822  0.38298910  0.73707575  1  0  0.091011  0  0.95932  0  0  0.105026  0  1.013428  0  0  0.10668  0  1.013408  0  0  0.103138  0.103791  0  1.013503  0
H  H13  1  0.61700932  0.63091140  0.76292468  1  0  0.090998  0  0.959332  0  0  0.105057  0  1.013388  0  0  0.106703  0  1.013375  0  0  0.103142  0.10382  0  1.01346  0
H  H14  1  0.63091240  0.61700942  0.26292318  1  0  0.091005  0  0.959312  0  0  0.10503  0  1.013409  0  0  0.106691  0  1.013381  0  0  0.103134  0.103793  0  1.013485  0
H  H15  1  0.38298949  0.36908713  0.23707417  1  0  0.090997  0  0.959345  0  0  0.105027  0  1.013434  0  0  0.106689  0  1.013404  0  0  0.103149  0.103792  0  1.013505  0
H  H16  1  0.55946967  0.45354331  0.60943669  1  0  0.091985  0  0.981524  0  0  0.09681  0  1.052204  0  0  0.10007  0  1.051669  0  0  0.094182  0.094421  0  1.052782  0
H  H17  1  0.54645820  0.44052826  0.89056479  1  0  0.091973  0  0.981519  0  0  0.096793  0  1.052205  0  0  0.100056  0  1.051668  0  0  0.094169  0.094406  0  1.052786  0
H  H18  1  0.44052938  0.54645801  0.39056318  1  0  0.09195  0  0.981558  0  0  0.096772  0  1.052241  0  0  0.100032  0  1.051707  0  0  0.094165  0.094383  0  1.052825  0
H  H19  1  0.45354267  0.55946936  0.10943835  1  0  0.091954  0  0.981573  0  0  0.096784  0  1.052251  0  0  0.100044  0  1.051717  0  0  0.094168  0.094395  0  1.052829  0
H  H20  1  0.53280315  0.67883314  0.50634406  1  0  0.079984  0  0.933556  0  0  0.08939  0  0.995423  0  0  0.091799  0  0.993634  0  0  0.112154  0.08758  0  0.996788  0
H  H21  1  0.32116506  0.46719563  0.99365851  1  0  0.080002  0  0.933542  0  0  0.089414  0  0.995405  0  0  0.091823  0  0.993617  0  0  0.112172  0.087604  0  0.996772  0
H  H22  1  0.46719547  0.32116635  0.49365921  1  0  0.079996  0  0.933543  0  0  0.089411  0  0.9954  0  0  0.091821  0  0.993611  0  0  0.112181  0.087603  0  0.996772  0
H  H23  1  0.67883309  0.53280571  0.00634363  1  0  0.08  0  0.933527  0  0  0.089399  0  0.995396  0  0  0.09181  0  0.993608  0  0  0.11218  0.08759  0  0.996759  0
H  H24  1  0.07962483  0.50504350  0.95467547  1  0  0.403478  0  0.890948  0  0  0.381784  0  0.947604  0  0  0.390781  0  0.934268  0  0  0.288097  0.375256  0  0.957272  0
H  H25  1  0.49495386  0.92038632  0.54531964  1  0  0.403425  0  0.891102  0  0  0.381749  0  0.947665  0  0  0.390744  0  0.934334  0  0  0.28805  0.37522  0  0.957332  0
H  H26  1  0.92039402  0.49495397  0.04531390  1  0  0.403419  0  0.891021  0  0  0.381755  0  0.947624  0  0  0.390748  0  0.934297  0  0  0.288096  0.375227  0  0.957289  0
H  H27  1  0.50504495  0.07961593  0.45467934  1  0  0.403431  0  0.891078  0  0  0.38176  0  0.94764  0  0  0.390755  0  0.934308  0  0  0.28806  0.375234  0  0.957304  0
H  H28  1  0.89202468  0.29694221  0.73051573  1  0  0.112609  0  0.962585  0  0  0.116803  0  1.035024  0  0  0.121438  0  1.030707  0  0  0.105219  0.113556  0  1.037946  0
H  H29  1  0.70305849  0.10797696  0.76948352  1  0  0.112595  0  0.96262  0  0  0.116781  0  1.035082  0  0  0.121417  0  1.030765  0  0  0.105211  0.113534  0  1.038005  0
H  H30  1  0.10797662  0.70305724  0.26948401  1  0  0.112592  0  0.962595  0  0  0.116775  0  1.035061  0  0  0.121411  0  1.030744  0  0  0.105202  0.113532  0  1.037976  0
H  H31  1  0.29694213  0.89202528  0.23051554  1  0  0.112606  0  0.962581  0  0  0.116794  0  1.035032  0  0  0.121431  0  1.030715  0  0  0.105213  0.113544  0  1.037953  0
H  H32  1  0.78706092  0.57330812  0.46803404  1  0  0.119675  0  0.938113  0  0  0.128465  0  0.999566  0  0  0.132576  0  0.99633  0  0  0.110175  0.125543  0  1.001829  0
H  H33  1  0.42669384  0.21294290  0.03196456  1  0  0.119649  0  0.938066  0  0  0.128485  0  0.999486  0  0  0.132599  0  0.996244  0  0  0.110194  0.125566  0  1.001746  0
H  H34  1  0.21294106  0.42669227  0.53196585  1  0  0.119675  0  0.938081  0  0  0.128467  0  0.999539  0  0  0.132577  0  0.9963  0  0  0.110192  0.125548  0  1.00181  0
H  H35  1  0.57330791  0.78705842  0.96803576  1  0  0.119671  0  0.938077  0  0  0.128497  0  0.999506  0  0  0.132611  0  0.996265  0  0  0.110183  0.125575  0  1.00177  0
H  H36  1  0.85359785  0.68536667  0.67691635  1  0  0.112268  0  0.955655  0  0  0.117  0  1.027408  0  0  0.121589  0  1.022879  0  0  0.108387  0.113731  0  1.030547  0
H  H37  1  0.31463358  0.14640196  0.82308435  1  0  0.112237  0  0.955715  0  0  0.116993  0  1.027441  0  0  0.121583  0  1.022911  0  0  0.108382  0.113722  0  1.030584  0
H  H38  1  0.14640166  0.31463280  0.32308464  1  0  0.112202  0  0.955687  0  0  0.116965  0  1.027423  0  0  0.121549  0  1.022898  0  0  0.108361  0.113693  0  1.030556  0
H  H39  1  0.68536773  0.85359751  0.17691671  1  0  0.112297  0  0.955681  0  0  0.117037  0  1.027429  0  0  0.12162  0  1.022906  0  0  0.108386  0.113769  0  1.030571  0
H  H40  1  0.99356150  0.07899023  0.57084821  1  0  0.08459  0  1.000074  0  0  0.090835  0  1.070463  0  0  0.093163  0  1.069831  0  0  0.100648  0.089131  0  1.071  0
H  H41  1  0.92100998  0.00643744  0.92915586  1  0  0.084591  0  1.000078  0  0  0.090811  0  1.070493  0  0  0.09314  0  1.06986  0  0  0.100593  0.089105  0  1.071035  0
H  H42  1  0.00643620  0.92100925  0.42915402  1  0  0.084578  0  1.000073  0  0  0.090825  0  1.070465  0  0  0.093154  0  1.069832  0  0  0.100607  0.089144  0  1.070987  0
H  H43  1  0.07899132  0.99356202  0.07084454  1  0  0.084618  0  1.000022  0  0  0.090828  0  1.070456  0  0  0.093156  0  1.069825  0  0  0.100619  0.089138  0  1.070981  0
H  H44  1  0.83885516  0.92916841  0.71919041  1  0  0.106693  0  0.964501  0  0  0.116858  0  1.02412  0  0  0.119292  0  1.02289  0  0  0.114285  0.115089  0  1.025115  0
H  H45  1  0.07083108  0.16114291  0.78081539  1  0  0.106692  0  0.964448  0  0  0.116858  0  1.024069  0  0  0.119292  0  1.022838  0  0  0.114286  0.115089  0  1.025066  0
H  H46  1  0.16114345  0.07083107  0.28081219  1  0  0.106713  0  0.964515  0  0  0.116879  0  1.024129  0  0  0.119313  0  1.022898  0  0  0.114305  0.115109  0  1.025121  0
H  H47  1  0.92916798  0.83885843  0.21918580  1  0  0.106705  0  0.964418  0  0  0.116868  0  1.024045  0  0  0.119301  0  1.022814  0  0  0.114288  0.115099  0  1.025037  0
C  C48  1  0.24160223  0.69085041  0.64598229  1  0  0.156628  0  3.807274  0  0  0.154915  0  4.052859  0  0  0.162135  0  4.071609  0  0  0.115655  0.149887  0  4.040254  0
C  C49  1  0.30914951  0.75839614  0.85401809  1  0  0.156802  0  3.807216  0  0  0.155092  0  4.052795  0  0  0.162306  0  4.071547  0  0  0.11572  0.15006  0  4.040191  0
C  C50  1  0.75839726  0.30914905  0.35401737  1  0  0.156747  0  3.807227  0  0  0.155065  0  4.05277  0  0  0.162288  0  4.071512  0  0  0.115697  0.150039  0  4.040156  0
C  C51  1  0.69085110  0.24160238  0.14598018  1  0  0.156722  0  3.807197  0  0  0.155038  0  4.052729  0  0  0.162254  0  4.071482  0  0  0.115706  0.150008  0  4.040123  0
C  C52  1  0.24810556  0.56634329  0.70454199  1  0  -0.13174  0  3.703215  0  0  -0.152845  0  3.949864  0  0  -0.159048  0  3.968722  0  0  -0.086342  -0.148874  0  3.937445  0
C  C53  1  0.43365684  0.75189387  0.79545750  1  0  -0.13191  0  3.703235  0  0  -0.152987  0  3.949906  0  0  -0.159186  0  3.968759  0  0  -0.086386  -0.149003  0  3.937474  0
C  C54  1  0.75189371  0.43365710  0.29545677  1  0  -0.13188  0  3.703247  0  0  -0.152972  0  3.949906  0  0  -0.159176  0  3.968764  0  0  -0.086389  -0.148995  0  3.93748  0
C  C55  1  0.56634333  0.24810651  0.20454098  1  0  -0.131849  0  3.703309  0  0  -0.15295  0  3.949968  0  0  -0.159152  0  3.968829  0  0  -0.086371  -0.148966  0  3.937525  0
C  C56  1  0.36260394  0.47997205  0.69178270  1  0  -0.001408  0  3.729028  0  0  -0.014563  0  3.967753  0  0  -0.011069  0  3.986762  0  0  -0.070565  -0.016672  0  3.95471  0
C  C57  1  0.52002872  0.63739496  0.80821838  1  0  -0.00135  0  3.72902  0  0  -0.014537  0  3.967725  0  0  -0.011036  0  3.986735  0  0  -0.070562  -0.016645  0  3.954672  0
C  C58  1  0.63739533  0.52002834  0.30821739  1  0  -0.001377  0  3.729073  0  0  -0.01454  0  3.96779  0  0  -0.011051  0  3.986797  0  0  -0.07056  -0.01665  0  3.954745  0
C  C59  1  0.47997190  0.36260356  0.19178122  1  0  -0.001341  0  3.729082  0  0  -0.014505  0  3.967796  0  0  -0.011017  0  3.986803  0  0  -0.070554  -0.016619  0  3.95475  0
C  C60  1  0.46831996  0.51859078  0.62102232  1  0  -0.137508  0  3.758724  0  0  -0.149021  0  4.009766  0  0  -0.155994  0  4.031538  0  0  -0.09557  -0.144441  0  3.995098  0
C  C61  1  0.48141067  0.53167954  0.87897844  1  0  -0.137475  0  3.758725  0  0  -0.148981  0  4.009775  0  0  -0.155958  0  4.031548  0  0  -0.095537  -0.14441  0  3.99511  0
C  C62  1  0.53167953  0.48141240  0.37897680  1  0  -0.137449  0  3.758772  0  0  -0.148952  0  4.009813  0  0  -0.155928  0  4.03159  0  0  -0.095554  -0.144376  0  3.99515  0
C  C63  1  0.51858951  0.46832087  0.12102335  1  0  -0.1375  0  3.758748  0  0  -0.149019  0  4.009793  0  0  -0.155993  0  4.031569  0  0  -0.095573  -0.144442  0  3.995126  0
C  C64  1  0.45407877  0.64333097  0.56398809  1  0  0.137045  0  3.726103  0  0  0.107257  0  3.980244  0  0  0.113923  0  3.997949  0  0  0.046368  0.10297  0  3.968109  0
C  C65  1  0.35667009  0.54592089  0.93601321  1  0  0.13696  0  3.726086  0  0  0.107164  0  3.98023  0  0  0.113828  0  3.997936  0  0  0.046324  0.102884  0  3.968096  0
C  C66  1  0.54592029  0.35667037  0.43601377  1  0  0.137017  0  3.726014  0  0  0.107219  0  3.980157  0  0  0.113883  0  3.997863  0  0  0.046361  0.102931  0  3.96803  0
C  C67  1  0.64333031  0.45407857  0.06398748  1  0  0.137053  0  3.726014  0  0  0.107284  0  3.98014  0  0  0.113947  0  3.997845  0  0  0.046378  0.103004  0  3.968001  0
C  C68  1  0.90305223  0.45371332  0.81200683  1  0  0.670191  0  3.876995  0  0  0.620436  0  4.158759  0  0  0.65532  0  4.151566  0  0  0.221637  0.596597  0  4.163221  0
C  C69  1  0.54628585  0.09694833  0.68799438  1  0  0.670134  0  3.877106  0  0  0.620383  0  4.158851  0  0  0.655266  0  4.15166  0  0  0.221602  0.59655  0  4.1633  0
C  C70  1  0.09694817  0.54628614  0.18799320  1  0  0.670064  0  3.877197  0  0  0.620332  0  4.158919  0  0  0.655216  0  4.151728  0  0  0.221567  0.596499  0  4.163369  0
C  C71  1  0.45371342  0.90305207  0.31200637  1  0  0.67016  0  3.877051  0  0  0.620434  0  4.158766  0  0  0.655317  0  4.151576  0  0  0.221621  0.596607  0  4.163209  0
C  C72  1  0.87927015  0.48702895  0.71270550  1  0  -0.065518  0  3.754825  0  0  -0.035169  0  3.984648  0  0  -0.045811  0  4.00896  0  0  -0.015761  -0.02837  0  3.968347  0
C  C73  1  0.51297249  0.12072941  0.78729389  1  0  -0.065607  0  3.754926  0  0  -0.035256  0  3.984749  0  0  -0.045899  0  4.009061  0  0  -0.015777  -0.028454  0  3.968437  0
C  C74  1  0.12073003  0.51297144  0.28729430  1  0  -0.065574  0  3.754923  0  0  -0.035225  0  3.984741  0  0  -0.045866  0  4.009052  0  0  -0.015767  -0.028424  0  3.968426  0
C  C75  1  0.48702949  0.87927098  0.21270533  1  0  -0.065536  0  3.755003  0  0  -0.035174  0  3.984805  0  0  -0.045817  0  4.009116  0  0  -0.015762  -0.028381  0  3.968502  0
C  C76  1  0.87380502  0.39291097  0.68332254  1  0  -0.101634  0  3.717084  0  0  -0.140085  0  3.967765  0  0  -0.137512  0  3.9853  0  0  -0.08422  -0.141416  0  3.955814  0
C  C77  1  0.60709044  0.12619605  0.81667716  1  0  -0.101609  0  3.71701  0  0  -0.140062  0  3.967684  0  0  -0.137491  0  3.985219  0  0  -0.084235  -0.141393  0  3.955734  0
C  C78  1  0.12619718  0.60708848  0.31667691  1  0  -0.101583  0  3.717023  0  0  -0.140038  0  3.967697  0  0  -0.137465  0  3.98523  0  0  -0.084206  -0.141371  0  3.955743  0
C  C79  1  0.39291064  0.87380434  0.18332301  1  0  -0.101624  0  3.717014  0  0  -0.140084  0  3.967699  0  0  -0.137507  0  3.985224  0  0  -0.084215  -0.141408  0  3.95574  0
C  C80  1  0.84003243  0.42543395  0.59595566  1  0  0.080066  0  3.740932  0  0  0.100737  0  4.009689  0  0  0.100356  0  4.032999  0  0  -0.015597  0.100555  0  3.994079  0
C  C81  1  0.57456747  0.15997002  0.90404283  1  0  0.080125  0  3.740788  0  0  0.100799  0  4.009553  0  0  0.10042  0  4.032863  0  0  -0.015571  0.100609  0  3.993954  0
C  C82  1  0.15996978  0.57456550  0.40404379  1  0  0.080058  0  3.740901  0  0  0.100743  0  4.009637  0  0  0.100363  0  4.032947  0  0  -0.015626  0.100552  0  3.994046  0
C  C83  1  0.42543427  0.84003129  0.09595617  1  0  0.080127  0  3.740866  0  0  0.100801  0  4.009627  0  0  0.100422  0  4.032936  0  0  -0.015589  0.100613  0  3.994024  0
C  C84  1  0.81392117  0.54829429  0.53614484  1  0  -0.09982  0  3.711642  0  0  -0.136958  0  3.96179  0  0  -0.135351  0  3.981115  0  0  -0.081742  -0.137621  0  3.94868  0
C  C85  1  0.45170683  0.18608094  0.96385297  1  0  -0.099781  0  3.711561  0  0  -0.13699  0  3.961706  0  0  -0.135384  0  3.98103  0  0  -0.08175  -0.137652  0  3.948599  0
C  C86  1  0.18608103  0.45170516  0.46385394  1  0  -0.09986  0  3.711663  0  0  -0.137015  0  3.961809  0  0  -0.135403  0  3.98113  0  0  -0.08176  -0.137685  0  3.94872  0
C  C87  1  0.54829425  0.81391945  0.03614720  1  0  -0.09983  0  3.711646  0  0  -0.137041  0  3.961775  0  0  -0.135434  0  3.981102  0  0  -0.081731  -0.13771  0  3.948674  0
C  C88  1  0.81914072  0.64197250  0.56599044  1  0  -0.055174  0  3.745269  0  0  -0.029723  0  3.983708  0  0  -0.039437  0  4.007449  0  0  -0.016698  -0.023646  0  3.967885  0
C  C89  1  0.35802800  0.18086182  0.93400797  1  0  -0.055277  0  3.74525  0  0  -0.029774  0  3.983635  0  0  -0.039488  0  4.007373  0  0  -0.016699  -0.023703  0  3.967818  0
C  C90  1  0.18086080  0.35802603  0.43400953  1  0  -0.055159  0  3.745244  0  0  -0.029691  0  3.983669  0  0  -0.039405  0  4.007407  0  0  -0.016641  -0.023614  0  3.967844  0
C  C91  1  0.64197217  0.81913857  0.06599249  1  0  -0.055156  0  3.745234  0  0  -0.02961  0  3.983561  0  0  -0.039327  0  4.007306  0  0  -0.016665  -0.023532  0  3.967734  0
C  C92  1  0.85195827  0.61127982  0.65398871  1  0  -0.07218  0  3.697224  0  0  -0.113943  0  3.952251  0  0  -0.109883  0  3.968963  0  0  -0.077098  -0.116202  0  3.940791  0
C  C93  1  0.38872137  0.14804216  0.84601026  1  0  -0.072079  0  3.697198  0  0  -0.113867  0  3.952178  0  0  -0.109808  0  3.968893  0  0  -0.077085  -0.116126  0  3.940719  0
C  C94  1  0.14804191  0.38872057  0.34601109  1  0  -0.072081  0  3.697176  0  0  -0.11388  0  3.952189  0  0  -0.109816  0  3.968907  0  0  -0.077101  -0.116134  0  3.940712  0
C  C95  1  0.61127993  0.85195730  0.15399015  1  0  -0.072235  0  3.697346  0  0  -0.114047  0  3.952343  0  0  -0.109982  0  3.969067  0  0  -0.077128  -0.116311  0  3.940889  0
C  C96  1  0.77922576  0.77582323  0.50677719  1  0  0.657635  0  3.901571  0  0  0.609122  0  4.187285  0  0  0.643719  0  4.180207  0  0  0.213858  0.585627  0  4.191469  0
C  C97  1  0.22417564  0.22077791  0.99321913  1  0  0.657688  0  3.901494  0  0  0.609154  0  4.187209  0  0  0.643751  0  4.18013  0  0  0.213834  0.585663  0  4.19139  0
C  C98  1  0.22077463  0.22417622  0.49322151  1  0  0.65765  0  3.90154  0  0  0.609138  0  4.187238  0  0  0.643734  0  4.180159  0  0  0.213874  0.585642  0  4.191418  0
C  C99  1  0.77582475  0.77922155  0.00678023  1  0  0.657654  0  3.901496  0  0  0.609104  0  4.18722  0  0  0.643702  0  4.180143  0  0  0.213833  0.585616  0  4.191392  0
C  C100  1  0.01521805  0.98072757  0.61040287  1  0  0.026922  0  3.756628  0  0  -0.006877  0  4.019097  0  0  -0.006361  0  4.042366  0  0  -0.00332  -0.007058  0  4.003169  0
C  C101  1  0.01927208  0.98478123  0.88960123  1  0  0.026858  0  3.756736  0  0  -0.006913  0  4.019224  0  0  -0.006396  0  4.042492  0  0  -0.003295  -0.007093  0  4.003298  0
C  C102  1  0.98477987  0.01927098  0.38959826  1  0  0.026881  0  3.756646  0  0  -0.006924  0  4.019127  0  0  -0.006408  0  4.042395  0  0  -0.003333  -0.007138  0  4.003195  0
C  C103  1  0.98072878  0.01522009  0.11040005  1  0  0.026813  0  3.756696  0  0  -0.006968  0  4.019193  0  0  -0.006453  0  4.042461  0  0  -0.003338  -0.007163  0  4.003257  0
C  C104  1  0.93860290  0.90640495  0.68471314  1  0  0.002641  0  3.722741  0  0  -0.029444  0  3.982468  0  0  -0.029107  0  4.005146  0  0  -0.008136  -0.029483  0  3.96681  0
C  C105  1  0.09359475  0.06139639  0.81529105  1  0  0.002618  0  3.722772  0  0  -0.029482  0  3.982498  0  0  -0.029144  0  4.005176  0  0  -0.008145  -0.02952  0  3.966843  0
C  C106  1  0.06139660  0.09359452  0.31528785  1  0  0.002679  0  3.722718  0  0  -0.029412  0  3.982456  0  0  -0.029075  0  4.005135  0  0  -0.008107  -0.029442  0  3.966791  0
C  C107  1  0.90640611  0.93860493  0.18470957  1  0  0.00267  0  3.722695  0  0  -0.029413  0  3.98241  0  0  -0.029074  0  4.005089  0  0  -0.008114  -0.029454  0  3.966753  0
C  C108  1  0.12879089  0.79157250  0.65198609  1  0  0.260871  0  3.817697  0  0  0.234657  0  4.07579  0  0  0.244891  0  4.095261  0  0  0.187018  0.228019  0  4.062223  0
C  C109  1  0.20842727  0.87120841  0.84801506  1  0  0.260736  0  3.817662  0  0  0.234522  0  4.075765  0  0  0.244753  0  4.095238  0  0  0.186981  0.227881  0  4.062202  0
C  C110  1  0.87120770  0.20842696  0.34801320  1  0  0.260807  0  3.817726  0  0  0.234587  0  4.075812  0  0  0.244818  0  4.095284  0  0  0.187  0.227943  0  4.062245  0
C  C111  1  0.79157515  0.12879383  0.15198342  1  0  0.260817  0  3.817733  0  0  0.234609  0  4.075808  0  0  0.244843  0  4.095279  0  0  0.186974  0.227966  0  4.062247  0
Br  Br112  1  0.82015019  0.30042240  0.56065801  1  0  -0.029705  0  1.328676  0  0  -0.019048  0  1.583158  0  0  -0.023812  0  1.579067  0  0  0.077676  -0.015644  0  1.586075  0
Br  Br113  1  0.69958009  0.17985489  0.93933810  1  0  -0.029739  0  1.328644  0  0  -0.019083  0  1.583121  0  0  -0.023846  0  1.579026  0  0  0.07765  -0.015677  0  1.586052  0
Br  Br114  1  0.17984998  0.69957799  0.43934180  1  0  -0.029706  0  1.328675  0  0  -0.019051  0  1.583149  0  0  -0.023816  0  1.579057  0  0  0.077679  -0.015638  0  1.586083  0
Br  Br115  1  0.30042255  0.82015011  0.06065741  1  0  -0.029724  0  1.328686  0  0  -0.019064  0  1.583164  0  0  -0.02383  0  1.579075  0  0  0.077665  -0.015658  0  1.58609  0
N  N116  1  0.34419656  0.72684384  0.57537994  1  0  -0.364204  0  3.238317  0  0  -0.299836  0  3.50237  0  0  -0.316399  0  3.517621  0  0  -0.319739  -0.288494  0  3.491891  0
N  N117  1  0.27315529  0.65580154  0.92462088  1  0  -0.3642  0  3.238239  0  0  -0.299844  0  3.50232  0  0  -0.316397  0  3.517566  0  0  -0.31975  -0.28851  0  3.491855  0
N  N118  1  0.65580181  0.27315656  0.42462045  1  0  -0.364238  0  3.23824  0  0  -0.299889  0  3.502318  0  0  -0.316449  0  3.517563  0  0  -0.319772  -0.288546  0  3.491836  0
N  N119  1  0.72684398  0.34419885  0.07537855  1  0  -0.364256  0  3.238222  0  0  -0.299914  0  3.502287  0  0  -0.316472  0  3.517534  0  0  -0.319789  -0.288581  0  3.49182  0
N  N120  1  0.13367225  0.90808001  0.59043820  1  0  -0.434137  0  3.303584  0  0  -0.35416  0  3.589078  0  0  -0.374796  0  3.603661  0  0  -0.367524  -0.340033  0  3.578999  0
N  N121  1  0.09191930  0.86632717  0.90956424  1  0  -0.434036  0  3.303514  0  0  -0.354079  0  3.589023  0  0  -0.374715  0  3.60361  0  0  -0.367511  -0.339941  0  3.578921  0
N  N122  1  0.86632634  0.09191945  0.40956175  1  0  -0.434147  0  3.30361  0  0  -0.354164  0  3.589109  0  0  -0.374801  0  3.603699  0  0  -0.36753  -0.340032  0  3.579033  0
N  N123  1  0.90808245  0.13367414  0.09043476  1  0  -0.43409  0  3.303602  0  0  -0.354109  0  3.589074  0  0  -0.374745  0  3.603661  0  0  -0.367512  -0.339977  0  3.578986  0
N  N124  1  0.01069669  0.78705988  0.71123673  1  0  -0.464352  0  3.303411  0  0  -0.381889  0  3.601624  0  0  -0.40416  0  3.61538  0  0  -0.373197  -0.366441  0  3.591704  0
N  N125  1  0.21294058  0.98930230  0.78876346  1  0  -0.464292  0  3.303365  0  0  -0.38179  0  3.601538  0  0  -0.40406  0  3.615297  0  0  -0.373171  -0.366337  0  3.591618  0
N  N126  1  0.98930167  0.21294051  0.28876232  1  0  -0.464327  0  3.303417  0  0  -0.381857  0  3.601625  0  0  -0.404128  0  3.615383  0  0  -0.373188  -0.366405  0  3.591696  0
N  N127  1  0.78706116  0.01069900  0.21123420  1  0  -0.464335  0  3.303424  0  0  -0.381863  0  3.601613  0  0  -0.404134  0  3.615371  0  0  -0.373158  -0.366409  0  3.591691  0
O  O128  1  0.93468850  0.33894293  0.85917421  1  0  -0.601412  0  2.055869  0  0  -0.531092  0  2.319865  0  0  -0.558576  0  2.305585  0  0  -0.300745  -0.51221  0  2.329223  0
O  O129  1  0.66105678  0.06530905  0.64082602  1  0  -0.601396  0  2.055869  0  0  -0.531071  0  2.319865  0  0  -0.558555  0  2.305591  0  0  -0.30074  -0.512186  0  2.329219  0
O  O130  1  0.06531100  0.66105653  0.14082545  1  0  -0.601389  0  2.055916  0  0  -0.531071  0  2.319898  0  0  -0.558555  0  2.30562  0  0  -0.300756  -0.512196  0  2.32926  0
O  O131  1  0.33894272  0.93469042  0.35917430  1  0  -0.601425  0  2.055913  0  0  -0.531119  0  2.31991  0  0  -0.558605  0  2.305635  0  0  -0.300758  -0.512239  0  2.329258  0
O  O132  1  0.88369936  0.54000829  0.84895197  1  0  -0.676248  0  2.122687  0  0  -0.60591  0  2.411473  0  0  -0.632292  0  2.390878  0  0  -0.331113  -0.587441  0  2.425159  0
O  O133  1  0.45998994  0.11630073  0.65105022  1  0  -0.676188  0  2.122678  0  0  -0.605864  0  2.41148  0  0  -0.632244  0  2.390886  0  0  -0.331085  -0.587401  0  2.425172  0
O  O134  1  0.11629947  0.45999026  0.15104954  1  0  -0.676161  0  2.12277  0  0  -0.605843  0  2.411569  0  0  -0.632224  0  2.390974  0  0  -0.33105  -0.587378  0  2.425255  0
O  O135  1  0.54001024  0.88369966  0.34895091  1  0  -0.676259  0  2.122598  0  0  -0.605949  0  2.411397  0  0  -0.632329  0  2.390798  0  0  -0.331131  -0.587489  0  2.425083  0
O  O136  1  0.76332593  0.79176739  0.42218385  1  0  -0.649517  0  2.053974  0  0  -0.57781  0  2.322086  0  0  -0.605186  0  2.304795  0  0  -0.328036  -0.558676  0  2.333414  0
O  O137  1  0.20823213  0.23667786  0.07781320  1  0  -0.649503  0  2.053989  0  0  -0.577789  0  2.322096  0  0  -0.605175  0  2.304824  0  0  -0.327999  -0.558654  0  2.333419  0
O  O138  1  0.23667176  0.20823208  0.57781639  1  0  -0.649446  0  2.053942  0  0  -0.577742  0  2.322049  0  0  -0.605124  0  2.304772  0  0  -0.328025  -0.558609  0  2.333378  0
O  O139  1  0.79176918  0.76332160  0.92218721  1  0  -0.649478  0  2.054041  0  0  -0.577752  0  2.32215  0  0  -0.605132  0  2.30487  0  0  -0.327983  -0.558623  0  2.333474  0
O  O140  1  0.76148292  0.85905117  0.54514720  1  0  -0.616201  0  2.003268  0  0  -0.553868  0  2.248836  0  0  -0.579461  0  2.235733  0  0  -0.310312  -0.536082  0  2.257345  0
O  O141  1  0.14095017  0.23852021  0.95484834  1  0  -0.616211  0  2.003297  0  0  -0.553861  0  2.248839  0  0  -0.579451  0  2.235737  0  0  -0.310301  -0.536078  0  2.257346  0
O  O142  1  0.23851702  0.14095015  0.45485171  1  0  -0.616206  0  2.003305  0  0  -0.553869  0  2.248862  0  0  -0.579461  0  2.235758  0  0  -0.310309  -0.536081  0  2.257362  0
O  O143  1  0.85905203  0.76147924  0.04515111  1  0  -0.616223  0  2.003267  0  0  -0.553878  0  2.248826  0  0  -0.57947  0  2.235724  0  0  -0.310315  -0.536095  0  2.257329  0
O  O144  1  0.06009935  0.59480255  0.92542827  1  0  -0.982835  0  1.94416  0  0  -0.888927  0  2.241502  0  0  -0.91909  0  2.202293  0  0  -0.595029  -0.86739  0  2.268475  0
O  O145  1  0.40519526  0.93989827  0.57457491  1  0  -0.982743  0  1.944215  0  0  -0.888847  0  2.241472  0  0  -0.919012  0  2.202263  0  0  -0.594968  -0.867315  0  2.268439  0
O  O146  1  0.93989296  0.40519697  0.07457703  1  0  -0.98273  0  1.944148  0  0  -0.888845  0  2.241502  0  0  -0.91901  0  2.202293  0  0  -0.595008  -0.867313  0  2.268472  0
O  O147  1  0.59480447  0.06010027  0.42542630  1  0  -0.982799  0  1.944252  0  0  -0.888901  0  2.241529  0  0  -0.919067  0  2.20232  0  0  -0.594985  -0.867372  0  2.268497  0
