# generated using pymatgen
data_NaP2H27C14(NO3)4
_symmetry_space_group_name_H-M   'P 1'
_cell_length_a   6.87042496
_cell_length_b   12.54102898
_cell_length_c   27.91285560
_cell_angle_alpha   89.99996993
_cell_angle_beta   90.00009203
_cell_angle_gamma   89.99980791
_symmetry_Int_Tables_number   1
_chemical_formula_structural   NaP2H27C14(NO3)4
_chemical_formula_sum   'Na4 P8 H108 C56 N16 O48'
_cell_volume   2405.03300307
_cell_formula_units_Z   4
loop_
 _symmetry_equiv_pos_site_id
 _symmetry_equiv_pos_as_xyz
  1  'x, y, z'
loop_
 _atom_site_type_symbol
 _atom_site_label
 _atom_site_symmetry_multiplicity
 _atom_site_fract_x
 _atom_site_fract_y
 _atom_site_fract_z
 _atom_site_occupancy
 _atom_site_pbe_bader_charge
 _atom_site_pbe_bader_spin_density
 _atom_site_pbe_cm5_charge
 _atom_site_pbe_ddec_charge
 _atom_site_pbe_ddec_spin_density
 _atom_site_pbe_ddec_sum_bond_order
 _atom_site_pbe_magmom
Na  Na0  1  0.69955127  0.46301149  0.18681902  1  0.878952  0  0.705431  0.840915  0  0.582386  0
Na  Na1  1  0.80044747  0.53698350  0.68681911  1  0.87897  0  0.705428  0.840947  0  0.582325  0
Na  Na2  1  0.30044821  0.96301382  0.31318037  1  0.878955  0  0.705421  0.840912  0  0.582414  0
Na  Na3  1  0.19955354  0.03698833  0.81318161  1  0.878949  0  0.705425  0.840923  0  0.582386  0
P  P4  1  0.95144094  0.17316495  0.32073553  1  3.639935  0  0.449409  1.447932  0  5.431436  0
P  P5  1  0.54855722  0.82683706  0.82073617  1  3.639605  0  0.449378  1.44788  0  5.431735  0
P  P6  1  0.04855739  0.67316152  0.17926536  1  3.639552  0  0.449446  1.44808  0  5.431321  0
P  P7  1  0.45143765  0.32683600  0.67926412  1  3.63988  0  0.44949  1.448187  0  5.431338  0
P  P8  1  0.91374211  0.14190034  0.42496707  1  3.603885  0  0.428719  1.410787  0  5.505993  0
P  P9  1  0.58625382  0.85810155  0.92496629  1  3.603864  0  0.428732  1.41075  0  5.506045  0
P  P10  1  0.08625350  0.64189776  0.07503454  1  3.60385  0  0.428712  1.410552  0  5.506357  0
P  P11  1  0.41373940  0.35810147  0.57503400  1  3.603779  0  0.428783  1.410689  0  5.506234  0
H  H12  1  0.85815335  0.92875613  0.33933438  1  0.526541  0  0.315758  0.330375  0  0.941669  0
H  H13  1  0.64185803  0.07124426  0.83933380  1  0.526586  0  0.315749  0.330377  0  0.941647  0
H  H14  1  0.14184488  0.42875327  0.16066717  1  0.526576  0  0.31576  0.330379  0  0.941681  0
H  H15  1  0.35816022  0.57124188  0.66066548  1  0.526504  0  0.315754  0.33043  0  0.941655  0
H  H16  1  0.66251797  0.83600396  0.33410451  1  0.504979  0  0.31119  0.32189  0  0.976617  0
H  H17  1  0.83749483  0.16399644  0.83410470  1  0.504879  0  0.311144  0.321848  0  0.976672  0
H  H18  1  0.33748374  0.33599834  0.16589670  1  0.504976  0  0.311184  0.321861  0  0.976694  0
H  H19  1  0.16251995  0.66399760  0.66589528  1  0.505032  0  0.31118  0.321865  0  0.976668  0
H  H20  1  0.35433796  0.60213116  0.22206936  1  0.652612  0  0.298502  0.35348  0  0.996788  0
H  H21  1  0.14566464  0.39786791  0.72207050  1  0.65263  0  0.298499  0.353389  0  0.996892  0
H  H22  1  0.64566663  0.10213201  0.27792940  1  0.652588  0  0.298469  0.353399  0  0.996917  0
H  H23  1  0.85433270  0.89786926  0.77793086  1  0.652562  0  0.298504  0.353469  0  0.996768  0
H  H24  1  0.97744698  0.51007190  0.30159629  1  0.125654  0  0.131656  0.107256  0  1.000729  0
H  H25  1  0.52256852  0.48993093  0.80159700  1  0.125523  0  0.131681  0.107247  0  1.000677  0
H  H26  1  0.02255381  0.01006841  0.19840285  1  0.125583  0  0.131661  0.107266  0  1.00071  0
H  H27  1  0.47744863  0.98992988  0.69840362  1  0.125676  0  0.131674  0.107306  0  1.000628  0
H  H28  1  0.73497628  0.32677618  0.27488599  1  0.642576  0  0.294992  0.356471  0  0.991095  0
H  H29  1  0.76502740  0.67322191  0.77488532  1  0.64262  0  0.295015  0.356509  0  0.9911  0
H  H30  1  0.26502694  0.82677468  0.22511487  1  0.642563  0  0.295026  0.35649  0  0.991075  0
H  H31  1  0.23497131  0.17321959  0.72511573  1  0.64264  0  0.295043  0.356558  0  0.991055  0
H  H32  1  0.72187139  0.65261945  0.30679025  1  0.126175  0  0.110785  0.14127  0  1.051486  0
H  H33  1  0.77814560  0.34738258  0.80679216  1  0.126019  0  0.110798  0.141304  0  1.051583  0
H  H34  1  0.27812998  0.15261629  0.19321029  1  0.126136  0  0.110759  0.14126  0  1.051528  0
H  H35  1  0.22187243  0.84738041  0.69320706  1  0.126215  0  0.11075  0.141257  0  1.051567  0
H  H36  1  0.49029940  0.57111119  0.32095214  1  0.129482  0  0.120098  0.053402  0  1.018693  0
H  H37  1  0.00970967  0.42888616  0.82095250  1  0.129556  0  0.12014  0.053429  0  1.018666  0
H  H38  1  0.50970392  0.07110922  0.17904662  1  0.129531  0  0.12011  0.053371  0  1.018773  0
H  H39  1  0.99029913  0.92889057  0.67904813  1  0.129558  0  0.120098  0.053364  0  1.018739  0
H  H40  1  0.68178910  0.54211592  0.09779372  1  0.629819  0  0.279439  0.388383  0  0.952767  0
H  H41  1  0.81820905  0.45788317  0.59779312  1  0.62981  0  0.27947  0.388443  0  0.952684  0
H  H42  1  0.31821004  0.04212041  0.40220613  1  0.629785  0  0.279439  0.388433  0  0.952701  0
H  H43  1  0.18178792  0.95788481  0.90220715  1  0.62982  0  0.279427  0.388396  0  0.952752  0
H  H44  1  0.45296050  0.52557921  0.09687295  1  0.675923  0  0.277464  0.399806  0  0.931968  0
H  H45  1  0.04703690  0.47442000  0.59687296  1  0.675922  0  0.27749  0.399854  0  0.931909  0
H  H46  1  0.54703873  0.02558328  0.40312618  1  0.675917  0  0.277455  0.399835  0  0.931934  0
H  H47  1  0.95295851  0.97442102  0.90312731  1  0.675909  0  0.277483  0.399855  0  0.931897  0
H  H48  1  0.20279476  0.45533391  0.25515697  1  0.067233  0  0.112023  0.05804  0  0.991115  0
H  H49  1  0.29721387  0.54466830  0.75515670  1  0.067194  0  0.112022  0.058029  0  0.990974  0
H  H50  1  0.79720767  0.95533221  0.24484171  1  0.067204  0  0.112016  0.058018  0  0.991024  0
H  H51  1  0.70278853  0.04466670  0.74484188  1  0.067188  0  0.112005  0.058057  0  0.991066  0
H  H52  1  0.42167395  0.30933612  0.25314075  1  0.08205  0  0.109917  0.062425  0  0.989457  0
H  H53  1  0.07833031  0.69066609  0.75314180  1  0.082035  0  0.109895  0.062403  0  0.989474  0
H  H54  1  0.57833083  0.80933562  0.24685796  1  0.082034  0  0.109872  0.062384  0  0.98952  0
H  H55  1  0.92166830  0.19066488  0.74685853  1  0.082023  0  0.109905  0.062504  0  0.989401  0
H  H56  1  0.55539514  0.34446065  0.34858139  1  0.057334  0  0.106  0.058698  0  0.987349  0
H  H57  1  0.94460757  0.65553894  0.84858151  1  0.057346  0  0.106032  0.058698  0  0.987339  0
H  H58  1  0.44460943  0.84446051  0.15141803  1  0.057342  0  0.106044  0.058761  0  0.987346  0
H  H59  1  0.05538980  0.15554023  0.65141847  1  0.057388  0  0.106026  0.058747  0  0.987376  0
H  H60  1  0.38351245  0.18503451  0.32824701  1  0.082218  0  0.11738  0.087195  0  0.998218  0
H  H61  1  0.11648357  0.81496602  0.82824661  1  0.082167  0  0.117362  0.08719  0  0.998264  0
H  H62  1  0.61648727  0.68503243  0.17175316  1  0.082205  0  0.117365  0.087198  0  0.998195  0
H  H63  1  0.88350555  0.31496657  0.67175333  1  0.082223  0  0.117363  0.087207  0  0.998247  0
H  H64  1  0.26357079  0.24782529  0.37703454  1  0.065347  0  0.106887  0.079539  0  1.013422  0
H  H65  1  0.23642992  0.75217917  0.87703491  1  0.065331  0  0.106867  0.07956  0  1.013373  0
H  H66  1  0.73643292  0.74782146  0.12296598  1  0.0653  0  0.106876  0.079542  0  1.0134  0
H  H67  1  0.76356540  0.25217919  0.62296612  1  0.06533  0  0.106885  0.079595  0  1.013347  0
H  H68  1  0.05120095  0.34896389  0.42569235  1  0.04973  0  0.106649  0.069548  0  1.013074  0
H  H69  1  0.44879425  0.65103812  0.92569355  1  0.049601  0  0.106624  0.069553  0  1.013094  0
H  H70  1  0.94879340  0.84896451  0.07430814  1  0.049647  0  0.106692  0.069613  0  1.013012  0
H  H71  1  0.55120023  0.15103700  0.57430822  1  0.049809  0  0.106684  0.069605  0  1.013151  0
H  H72  1  0.13233162  0.30720086  0.48327946  1  0.116286  0  0.112945  0.094314  0  1.004227  0
H  H73  1  0.36766978  0.69280108  0.98328061  1  0.116442  0  0.112949  0.094342  0  1.004233  0
H  H74  1  0.86766590  0.80719851  0.01672140  1  0.116107  0  0.112937  0.094233  0  1.004236  0
H  H75  1  0.63233026  0.19279908  0.51672079  1  0.116154  0  0.112957  0.094348  0  1.004206  0
H  H76  1  0.02271346  0.48031992  0.49741341  1  0.104005  0  0.120927  0.119014  0  0.970008  0
H  H77  1  0.47728658  0.51968360  0.99741500  1  0.104021  0  0.120946  0.119035  0  0.969972  0
H  H78  1  0.97728008  0.98031738  0.00258670  1  0.103977  0  0.120924  0.118995  0  0.970015  0
H  H79  1  0.52271453  0.01968022  0.50258752  1  0.104014  0  0.120936  0.119045  0  0.969951  0
H  H80  1  0.83700986  0.39570888  0.52043343  1  0.195655  0  0.128226  0.145055  0  1.003143  0
H  H81  1  0.66299360  0.60429349  0.02043437  1  0.195613  0  0.128237  0.145095  0  1.003163  0
H  H82  1  0.16298312  0.89570568  0.97956649  1  0.195699  0  0.128231  0.145034  0  1.003149  0
H  H83  1  0.33701098  0.10429069  0.47956690  1  0.195663  0  0.128236  0.14511  0  1.003124  0
H  H84  1  0.72495470  0.57636409  0.39667214  1  0.082773  0  0.118116  0.142272  0  0.990285  0
H  H85  1  0.77503959  0.42363943  0.89667260  1  0.082869  0  0.118163  0.14233  0  0.990268  0
H  H86  1  0.27504568  0.07636184  0.10332699  1  0.082836  0  0.118145  0.142321  0  0.990256  0
H  H87  1  0.22495177  0.92364135  0.60332911  1  0.082781  0  0.118149  0.142347  0  0.990351  0
H  H88  1  0.86440784  0.45723339  0.38915414  1  0.08178  0  0.12054  0.146275  0  0.988267  0
H  H89  1  0.63558786  0.54277014  0.88915488  1  0.081796  0  0.120547  0.146295  0  0.988338  0
H  H90  1  0.13559022  0.95722988  0.11084561  1  0.081805  0  0.120537  0.146298  0  0.988259  0
H  H91  1  0.36440001  0.04277331  0.61084656  1  0.081684  0  0.120548  0.146334  0  0.988349  0
H  H92  1  0.96789756  0.56909570  0.41990628  1  0.079718  0  0.1176  0.141697  0  0.967441  0
H  H93  1  0.53209689  0.43090779  0.91990701  1  0.079713  0  0.117585  0.141687  0  0.96748  0
H  H94  1  0.03209996  0.06909473  0.08009320  1  0.07971  0  0.11759  0.141692  0  0.967472  0
H  H95  1  0.46789152  0.93090928  0.58009649  1  0.079839  0  0.117653  0.141785  0  0.967494  0
H  H96  1  0.57917780  0.61962139  0.47096583  1  0.077804  0  0.118507  0.138496  0  0.962195  0
H  H97  1  0.92081698  0.38037965  0.97096564  1  0.077864  0  0.118518  0.138547  0  0.962162  0
H  H98  1  0.42081504  0.11961976  0.02903329  1  0.0779  0  0.118521  0.13861  0  0.962137  0
H  H99  1  0.07918047  0.88037713  0.52903608  1  0.077806  0  0.118515  0.138526  0  0.962081  0
H  H100  1  0.81893305  0.62671228  0.49667231  1  0.071828  0  0.119976  0.139924  0  0.962194  0
H  H101  1  0.68106190  0.37328873  0.99667239  1  0.071796  0  0.119959  0.139914  0  0.962189  0
H  H102  1  0.18105975  0.12671033  0.00332680  1  0.071785  0  0.119938  0.139914  0  0.962218  0
H  H103  1  0.31893850  0.87328580  0.50333041  1  0.071789  0  0.119979  0.139909  0  0.962247  0
H  H104  1  0.63713678  0.54372721  0.52418434  1  0.1631  0  0.128174  0.16468  0  0.989246  0
H  H105  1  0.86286089  0.45627196  0.02418467  1  0.163102  0  0.128155  0.164675  0  0.989199  0
H  H106  1  0.36285836  0.04372676  0.97581424  1  0.163236  0  0.128205  0.164753  0  0.989212  0
H  H107  1  0.13714154  0.95626722  0.47581723  1  0.163163  0  0.128122  0.164634  0  0.989229  0
H  H108  1  0.47684095  0.46227318  0.42785415  1  0.083014  0  0.11103  0.131965  0  0.997332  0
H  H109  1  0.02315427  0.53772724  0.92785521  1  0.083054  0  0.111059  0.132005  0  0.997328  0
H  H110  1  0.52315708  0.96227060  0.07214345  1  0.082932  0  0.111051  0.132013  0  0.997291  0
H  H111  1  0.97683654  0.03772852  0.57214444  1  0.083025  0  0.111022  0.131941  0  0.997334  0
H  H112  1  0.51526838  0.39084516  0.48325194  1  0.135969  0  0.119191  0.139155  0  1.029507  0
H  H113  1  0.98473085  0.60915347  0.98325280  1  0.136232  0  0.119169  0.139118  0  1.029537  0
H  H114  1  0.48472718  0.89084431  0.01674496  1  0.136184  0  0.11916  0.139132  0  1.029492  0
H  H115  1  0.01526680  0.10915261  0.51674468  1  0.13615  0  0.119163  0.139073  0  1.029538  0
H  H116  1  0.62666611  0.34491505  0.42922238  1  0.08807  0  0.120204  0.150979  0  0.991825  0
H  H117  1  0.87333131  0.65508684  0.92922283  1  0.088058  0  0.120218  0.151004  0  0.991782  0
H  H118  1  0.37333409  0.84491354  0.07077632  1  0.088034  0  0.120204  0.150993  0  0.991836  0
H  H119  1  0.12666023  0.15508730  0.57077536  1  0.088087  0  0.120198  0.150962  0  0.991762  0
C  C120  1  0.93686361  0.77463554  0.32684627  1  1.137667  0  0.250462  0.516229  0  4.105773  0
C  C121  1  0.56314915  0.22536726  0.82684777  1  1.137884  0  0.250387  0.51607  0  4.105819  0
C  C122  1  0.06313847  0.27463440  0.17315389  1  1.137846  0  0.250375  0.516075  0  4.105776  0
C  C123  1  0.43686380  0.72536392  0.67315076  1  1.138153  0  0.250444  0.516197  0  4.105916  0
C  C124  1  0.26441920  0.72181035  0.32731438  1  1.742536  0  0.316643  0.589614  0  4.209697  0
C  C125  1  0.23559719  0.27819337  0.82731487  1  1.742569  0  0.316459  0.589147  0  4.209833  0
C  C126  1  0.73558758  0.22180638  0.17268507  1  1.742547  0  0.316574  0.589404  0  4.209614  0
C  C127  1  0.76441980  0.77819182  0.67268401  1  1.742522  0  0.316703  0.589708  0  4.209591  0
C  C128  1  0.01217022  0.59225185  0.31100430  1  0.365614  0  0.051572  0.090068  0  3.974504  0
C  C129  1  0.48784315  0.40774871  0.81100593  1  0.365966  0  0.051513  0.090053  0  3.974476  0
C  C130  1  0.98782570  0.09224739  0.18899554  1  0.365591  0  0.051568  0.09004  0  3.974405  0
C  C131  1  0.51217596  0.90774601  0.68899364  1  0.365311  0  0.051575  0.090029  0  3.974545  0
C  C132  1  0.87386342  0.66909562  0.31426712  1  0.004036  0  -0.111674  -0.32218  0  3.966676  0
C  C133  1  0.62615071  0.33090799  0.81426862  1  0.003934  0  -0.111758  -0.322347  0  3.966832  0
C  C134  1  0.12613785  0.16909196  0.18573414  1  0.004093  0  -0.111667  -0.322212  0  3.966577  0
C  C135  1  0.37386887  0.83090635  0.68573096  1  0.004145  0  -0.111634  -0.322172  0  3.966869  0
C  C136  1  0.34983803  0.53234656  0.31422655  1  0.751334  0  0.092188  0.184313  0  3.888545  0
C  C137  1  0.15017682  0.46765638  0.81422695  1  0.751517  0  0.092205  0.184309  0  3.888602  0
C  C138  1  0.65016553  0.03234353  0.18577187  1  0.751562  0  0.092198  0.184245  0  3.888661  0
C  C139  1  0.84983756  0.96765546  0.68577296  1  0.751452  0  0.092219  0.184392  0  3.888541  0
C  C140  1  0.35289025  0.47781916  0.26506999  1  0.507267  0  -0.007609  0.095876  0  3.915352  0
C  C141  1  0.14711700  0.52218144  0.76507182  1  0.50742  0  -0.007616  0.095885  0  3.915232  0
C  C142  1  0.64711496  0.97781775  0.23492797  1  0.507264  0  -0.007563  0.096105  0  3.915077  0
C  C143  1  0.85288409  0.02218037  0.73492820  1  0.507284  0  -0.007602  0.095865  0  3.915354  0
C  C144  1  0.46730127  0.37624206  0.27603092  1  0.467194  0  -0.0115  0.107968  0  3.851052  0
C  C145  1  0.03270313  0.62375774  0.77603053  1  0.467207  0  -0.011367  0.108018  0  3.851065  0
C  C146  1  0.53270310  0.87624087  0.22396920  1  0.467194  0  -0.011398  0.1079  0  3.851147  0
C  C147  1  0.96729297  0.12375806  0.72396981  1  0.467177  0  -0.011409  0.107904  0  3.85124  0
C  C148  1  0.41643421  0.35405091  0.32922469  1  0.387265  0  -0.003412  0.092092  0  3.817723  0
C  C149  1  0.08356764  0.64594962  0.82922538  1  0.3872  0  -0.003406  0.092221  0  3.817562  0
C  C150  1  0.58356739  0.85404890  0.17077437  1  0.387236  0  -0.003395  0.092161  0  3.817714  0
C  C151  1  0.91642833  0.14595170  0.67077496  1  0.387241  0  -0.003432  0.09199  0  3.81755  0
C  C152  1  0.29752924  0.25528400  0.33867802  1  0.416887  0  -0.061304  0.001445  0  3.885434  0
C  C153  1  0.20246685  0.74471971  0.83867731  1  0.417207  0  -0.061282  0.001343  0  3.885355  0
C  C154  1  0.70247588  0.75528258  0.16132106  1  0.417145  0  -0.061328  0.001379  0  3.885401  0
C  C155  1  0.79751978  0.24472042  0.66132229  1  0.416959  0  -0.061335  0.00133  0  3.8851  0
C  C156  1  0.00296976  0.32929966  0.46223859  1  0.39803  0  -0.062492  0.047084  0  3.875086  0
C  C157  1  0.49702714  0.67070311  0.96223980  1  0.397999  0  -0.062428  0.047066  0  3.874992  0
C  C158  1  0.99702471  0.82929864  0.03776191  1  0.398224  0  -0.062486  0.047183  0  3.874833  0
C  C159  1  0.50296868  0.17069973  0.53776197  1  0.398096  0  -0.06254  0.046981  0  3.875144  0
C  C160  1  0.90998769  0.42235975  0.48757511  1  0.137461  0  -0.064019  -0.142861  0  3.726298  0
C  C161  1  0.59001156  0.57764206  0.98757654  1  0.137439  0  -0.064098  -0.143005  0  3.726307  0
C  C162  1  0.09000767  0.92235724  0.01242465  1  0.137428  0  -0.064068  -0.142956  0  3.726386  0
C  C163  1  0.40998628  0.07764048  0.51242525  1  0.137445  0  -0.064038  -0.142961  0  3.726169  0
C  C164  1  0.83392197  0.52429010  0.41307787  1  0.199127  0  -0.129997  -0.322174  0  3.790494  0
C  C165  1  0.66607243  0.47571260  0.91307899  1  0.199074  0  -0.129996  -0.32228  0  3.790545  0
C  C166  1  0.16607291  0.02428807  0.08692091  1  0.199079  0  -0.129978  -0.322289  0  3.790467  0
C  C167  1  0.33391716  0.97571195  0.58692306  1  0.1991  0  -0.130083  -0.322417  0  3.790792  0
C  C168  1  0.69244901  0.57550608  0.49023296  1  0.14375  0  -0.122431  -0.301091  0  3.734895  0
C  C169  1  0.80754589  0.42449494  0.99023308  1  0.143699  0  -0.122362  -0.301163  0  3.734781  0
C  C170  1  0.30754410  0.07550388  0.00976616  1  0.143558  0  -0.122397  -0.301327  0  3.734889  0
C  C171  1  0.19245274  0.92449384  0.50976755  1  0.143684  0  -0.122364  -0.30106  0  3.734858  0
C  C172  1  0.57967469  0.41521074  0.44918664  1  0.158521  0  -0.134019  -0.294515  0  3.695982  0
C  C173  1  0.92032577  0.58478872  0.94918748  1  0.158254  0  -0.134035  -0.294602  0  3.695925  0
C  C174  1  0.42032217  0.91520917  0.05081241  1  0.158445  0  -0.134004  -0.294616  0  3.695847  0
C  C175  1  0.07967057  0.08479009  0.55081216  1  0.158348  0  -0.133951  -0.294338  0  3.695741  0
N  N176  1  0.12694422  0.79798764  0.33137305  1  -1.256375  0  -0.426824  -0.584672  0  3.284797  0
N  N177  1  0.37306492  0.20201449  0.83137396  1  -1.256537  0  -0.426661  -0.584326  0  3.284574  0
N  N178  1  0.87305335  0.29798422  0.16862746  1  -1.25632  0  -0.426758  -0.584531  0  3.284719  0
N  N179  1  0.62695399  0.70201240  0.66862529  1  -1.256421  0  -0.426835  -0.584709  0  3.284761  0
N  N180  1  0.80803148  0.85287086  0.33395335  1  -1.316681  0  -0.546501  -0.579739  0  3.287541  0
N  N181  1  0.69197696  0.14713113  0.83395385  1  -1.31662  0  -0.546405  -0.579669  0  3.287656  0
N  N182  1  0.19195994  0.35286710  0.16604822  1  -1.316808  0  -0.546414  -0.579617  0  3.287728  0
N  N183  1  0.30804520  0.64712963  0.66604613  1  -1.317114  0  -0.54642  -0.579687  0  3.287763  0
N  N184  1  0.20403022  0.61460549  0.31967883  1  -1.20844  0  -0.25119  -0.160474  0  3.644518  0
N  N185  1  0.29598175  0.38539904  0.81967932  1  -1.208849  0  -0.251129  -0.160192  0  3.644328  0
N  N186  1  0.79596702  0.11460140  0.18032064  1  -1.208816  0  -0.251105  -0.160147  0  3.644213  0
N  N187  1  0.70403750  0.88539440  0.68032061  1  -1.208481  0  -0.251248  -0.160428  0  3.644481  0
N  N188  1  0.75499554  0.48331344  0.45950199  1  -0.932036  0  -0.225014  0.275407  0  3.570246  0
N  N189  1  0.74500062  0.51668841  0.95950277  1  -0.931991  0  -0.225098  0.275573  0  3.570077  0
N  N190  1  0.24500090  0.98331141  0.04049740  1  -0.931986  0  -0.225103  0.275617  0  3.570118  0
N  N191  1  0.25499469  0.01668787  0.54049795  1  -0.932045  0  -0.225067  0.275395  0  3.570159  0
O  O192  1  0.44280258  0.74189147  0.33007802  1  -1.182069  0  -0.321465  -0.581616  0  2.194609  0
O  O193  1  0.05720946  0.25810826  0.83007736  1  -1.181919  0  -0.321376  -0.581418  0  2.194601  0
O  O194  1  0.55719679  0.24188783  0.16991999  1  -1.182019  0  -0.321499  -0.581635  0  2.194508  0
O  O195  1  0.94280911  0.75811037  0.66991973  1  -1.182127  0  -0.321526  -0.581736  0  2.194533  0
O  O196  1  0.44123236  0.53956762  0.22901027  1  -1.195442  0  -0.463845  -0.551333  0  2.32385  0
O  O197  1  0.05877319  0.46043462  0.72901136  1  -1.195375  0  -0.463848  -0.551271  0  2.32387  0
O  O198  1  0.55876970  0.03956625  0.27098814  1  -1.195362  0  -0.463816  -0.551325  0  2.323845  0
O  O199  1  0.94122813  0.96043422  0.77098962  1  -1.19537  0  -0.463851  -0.551308  0  2.32369  0
O  O200  1  0.66975591  0.39735498  0.26951318  1  -1.167186  0  -0.45301  -0.558089  0  2.256072  0
O  O201  1  0.83024773  0.60264311  0.76951290  1  -1.167149  0  -0.453123  -0.558192  0  2.256172  0
O  O202  1  0.33024833  0.89735575  0.23048623  1  -1.167107  0  -0.453087  -0.558088  0  2.256159  0
O  O203  1  0.16975287  0.10264250  0.73048709  1  -1.167149  0  -0.453111  -0.55821  0  2.256286  0
O  O204  1  0.57437525  0.50134343  0.11248407  1  -1.340202  0  -0.691865  -0.86234  0  1.870336  0
O  O205  1  0.92562446  0.49865643  0.61248386  1  -1.340188  0  -0.691915  -0.862447  0  1.870265  0
O  O206  1  0.42562560  0.00134696  0.38751507  1  -1.340156  0  -0.691847  -0.862427  0  1.870306  0
O  O207  1  0.07437518  0.99865829  0.88751676  1  -1.340184  0  -0.691855  -0.862401  0  1.870327  0
O  O208  1  0.31464989  0.44751940  0.34767565  1  -1.025057  0  -0.229615  -0.312497  0  2.359692  0
O  O209  1  0.18535353  0.55248190  0.84767569  1  -1.025395  0  -0.229684  -0.312611  0  2.359663  0
O  O210  1  0.68535259  0.94751643  0.15232339  1  -1.025166  0  -0.229707  -0.312636  0  2.359751  0
O  O211  1  0.81464737  0.05248020  0.65232359  1  -1.025115  0  -0.229631  -0.312508  0  2.359532  0
O  O212  1  0.11958963  0.25988030  0.31113190  1  -1.298873  0  -0.217613  -0.42757  0  2.48542  0
O  O213  1  0.38040919  0.74012265  0.81113126  1  -1.299123  0  -0.217612  -0.427496  0  2.485385  0
O  O214  1  0.88040672  0.75987772  0.18886826  1  -1.299077  0  -0.217583  -0.427554  0  2.485455  0
O  O215  1  0.61958184  0.24012206  0.68886799  1  -1.298925  0  -0.217623  -0.427592  0  2.485293  0
O  O216  1  0.02306640  0.06063835  0.32061033  1  -1.490373  0  -0.440024  -0.827888  0  2.145249  0
O  O217  1  0.47693539  0.93936298  0.82060968  1  -1.49004  0  -0.440033  -0.827903  0  2.145325  0
O  O218  1  0.97693845  0.56063720  0.17939166  1  -1.490051  0  -0.440044  -0.827946  0  2.145273  0
O  O219  1  0.52305587  0.43936019  0.67938952  1  -1.490328  0  -0.440001  -0.827922  0  2.145293  0
O  O220  1  0.78886273  0.20350633  0.28697686  1  -1.459809  0  -0.351366  -0.74506  0  2.22026  0
O  O221  1  0.71113520  0.79649333  0.78697650  1  -1.459788  0  -0.351312  -0.745057  0  2.22019  0
O  O222  1  0.21113687  0.70350575  0.21302474  1  -1.459869  0  -0.351343  -0.745119  0  2.220169  0
O  O223  1  0.28885984  0.29649492  0.71302309  1  -1.459889  0  -0.351395  -0.745132  0  2.220228  0
O  O224  1  0.87500616  0.20509937  0.37445055  1  -1.529941  0  -0.227901  -0.648207  0  2.483129  0
O  O225  1  0.62499235  0.79490178  0.87444979  1  -1.529918  0  -0.227891  -0.64818  0  2.483249  0
O  O226  1  0.12499780  0.70509586  0.12555105  1  -1.529874  0  -0.227918  -0.648158  0  2.483119  0
O  O227  1  0.37499688  0.29490013  0.62555087  1  -1.529967  0  -0.227947  -0.648254  0  2.483036  0
O  O228  1  0.12547511  0.11349670  0.42926172  1  -1.472673  0  -0.366981  -0.791453  0  2.223949  0
O  O229  1  0.37452449  0.88650292  0.92926104  1  -1.472727  0  -0.366962  -0.791429  0  2.223999  0
O  O230  1  0.87452505  0.61349666  0.07073955  1  -1.47272  0  -0.366951  -0.791376  0  2.224076  0
O  O231  1  0.62547147  0.38650086  0.57073925  1  -1.472656  0  -0.367036  -0.791481  0  2.224081  0
O  O232  1  0.75919591  0.06098846  0.43449528  1  -1.466557  0  -0.37769  -0.768459  0  2.101686  0
O  O233  1  0.74079717  0.93901342  0.93449453  1  -1.466545  0  -0.377693  -0.768459  0  2.101752  0
O  O234  1  0.24079874  0.56098561  0.06550421  1  -1.466562  0  -0.377696  -0.768421  0  2.101798  0
O  O235  1  0.25919264  0.43901285  0.56550466  1  -1.466277  0  -0.377717  -0.768446  0  2.101756  0
O  O236  1  0.86844342  0.24101504  0.46123959  1  -1.295377  0  -0.22926  -0.439102  0  2.496737  0
O  O237  1  0.63155712  0.75898601  0.96124028  1  -1.295361  0  -0.229308  -0.439098  0  2.496649  0
O  O238  1  0.13155596  0.74101481  0.03876129  1  -1.295307  0  -0.229278  -0.439076  0  2.496627  0
O  O239  1  0.36843962  0.25898527  0.53876004  1  -1.295581  0  -0.229258  -0.439062  0  2.496639  0
