# generated using pymatgen
data_NiH10C12(NO)4
_symmetry_space_group_name_H-M   'P 1'
_cell_length_a   7.35067183
_cell_length_b   7.84717557
_cell_length_c   10.97202497
_cell_angle_alpha   89.99915427
_cell_angle_beta   106.32524140
_cell_angle_gamma   90.00053787
_symmetry_Int_Tables_number   1
_chemical_formula_structural   NiH10C12(NO)4
_chemical_formula_sum   'Ni2 H20 C24 N8 O8'
_cell_volume   607.37139969
_cell_formula_units_Z   2
loop_
 _symmetry_equiv_pos_site_id
 _symmetry_equiv_pos_as_xyz
  1  'x, y, z'
loop_
 _atom_site_type_symbol
 _atom_site_label
 _atom_site_symmetry_multiplicity
 _atom_site_fract_x
 _atom_site_fract_y
 _atom_site_fract_z
 _atom_site_occupancy
 _atom_site_hle17_bader_spin_density
 _atom_site_hle17_ddec_charge
 _atom_site_hle17_ddec_spin_density
 _atom_site_hle17_ddec_sum_bond_order
 _atom_site_hle17_magmom
 _atom_site_hse06_10hf_bader_spin_density
 _atom_site_hse06_10hf_ddec_charge
 _atom_site_hse06_10hf_ddec_spin_density
 _atom_site_hse06_10hf_ddec_sum_bond_order
 _atom_site_hse06_10hf_magmom
 _atom_site_hse06_bader_spin_density
 _atom_site_hse06_ddec_charge
 _atom_site_hse06_ddec_spin_density
 _atom_site_hse06_ddec_sum_bond_order
 _atom_site_hse06_magmom
 _atom_site_pbe_bader_spin_density
 _atom_site_pbe_cm5_charge
 _atom_site_pbe_ddec_charge
 _atom_site_pbe_ddec_spin_density
 _atom_site_pbe_ddec_sum_bond_order
 _atom_site_pbe_magmom
Ni  Ni0  1  0.49999849  0.50000358  0.49999853  1  0  0.609027  0  2.402915  0  0  0.579092  0  2.874312  0  0  0.638051  0  2.804932  0  0  0.652925  0.551808  0  2.914666  0
Ni  Ni1  1  0.99999641  0.99999537  0.50000086  1  0  0.608947  0  2.402834  0  0  0.579091  0  2.874245  0  0  0.638001  0  2.804865  0  0  0.652842  0.551811  0  2.914561  0
H  H2  1  0.28840945  0.27039976  0.84488611  1  0  0.088078  0  0.929265  0  0  0.096672  0  0.990981  0  0  0.099049  0  0.989923  0  0  0.121013  0.094882  0  0.991995  0
H  H3  1  0.21154648  0.77037833  0.15509850  1  0  0.088127  0  0.92906  0  0  0.096746  0  0.990749  0  0  0.099125  0  0.98969  0  0  0.121016  0.094952  0  0.991764  0
H  H4  1  0.71159750  0.72961250  0.15511642  1  0  0.088088  0  0.929218  0  0  0.096693  0  0.990918  0  0  0.099073  0  0.98986  0  0  0.121025  0.094903  0  0.991931  0
H  H5  1  0.78843636  0.22961226  0.84489867  1  0  0.088091  0  0.929076  0  0  0.096723  0  0.990762  0  0  0.099101  0  0.989702  0  0  0.121008  0.094929  0  0.99178  0
H  H6  1  0.43986078  0.79864432  0.66075312  1  0  0.135044  0  0.93652  0  0  0.13695  0  1.002375  0  0  0.141544  0  0.997881  0  0  0.131587  0.133413  0  1.005939  0
H  H7  1  0.06014774  0.29863817  0.33923267  1  0  0.135062  0  0.936397  0  0  0.136942  0  1.002315  0  0  0.141537  0  0.997821  0  0  0.131637  0.133407  0  1.005872  0
H  H8  1  0.56014754  0.20136411  0.33924602  1  0  0.135105  0  0.936499  0  0  0.13695  0  1.002441  0  0  0.141543  0  0.997947  0  0  0.131633  0.133419  0  1.005996  0
H  H9  1  0.93984784  0.70135625  0.66076594  1  0  0.135067  0  0.936421  0  0  0.136979  0  1.002305  0  0  0.141578  0  0.997806  0  0  0.131623  0.133439  0  1.005869  0
H  H10  1  0.27490571  0.83579190  0.95479200  1  0  0.121208  0  0.971064  0  0  0.136481  0  1.042571  0  0  0.138059  0  1.04219  0  0  0.093131  0.135319  0  1.042853  0
H  H11  1  0.22508477  0.33579759  0.04519825  1  0  0.121204  0  0.971065  0  0  0.136501  0  1.042533  0  0  0.138081  0  1.042148  0  0  0.09312  0.135341  0  1.042816  0
H  H12  1  0.72509413  0.16421654  0.04520740  1  0  0.121213  0  0.971098  0  0  0.136515  0  1.042546  0  0  0.138092  0  1.042166  0  0  0.093133  0.135352  0  1.04283  0
H  H13  1  0.77490800  0.66420320  0.95480167  1  0  0.121167  0  0.971091  0  0  0.136445  0  1.042596  0  0  0.138022  0  1.042215  0  0  0.093095  0.135285  0  1.042878  0
H  H14  1  0.32912967  0.95033388  0.82684051  1  0  0.134901  0  0.967576  0  0  0.152099  0  1.033538  0  0  0.154374  0  1.033099  0  0  0.095837  0.150325  0  1.033877  0
H  H15  1  0.17088314  0.45031382  0.17316714  1  0  0.134839  0  0.967686  0  0  0.152038  0  1.033626  0  0  0.154312  0  1.033187  0  0  0.095822  0.15025  0  1.033981  0
H  H16  1  0.67087023  0.04968093  0.17316620  1  0  0.134983  0  0.967459  0  0  0.152103  0  1.033538  0  0  0.154379  0  1.033095  0  0  0.095831  0.150328  0  1.033876  0
H  H17  1  0.82911391  0.54968442  0.82683721  1  0  0.13475  0  0.967788  0  0  0.152043  0  1.033634  0  0  0.154319  0  1.033191  0  0  0.095827  0.150251  0  1.033992  0
H  H18  1  0.51301740  0.86649679  0.95113629  1  0  0.124322  0  0.955614  0  0  0.146316  0  1.019197  0  0  0.147234  0  1.019359  0  0  0.098661  0.145539  0  1.019179  0
H  H19  1  0.98699206  0.36650037  0.04887275  1  0  0.124328  0  0.955807  0  0  0.146322  0  1.019342  0  0  0.14724  0  1.019502  0  0  0.098674  0.145548  0  1.019325  0
H  H20  1  0.48698246  0.13351292  0.04886584  1  0  0.124379  0  0.955666  0  0  0.146378  0  1.019213  0  0  0.147295  0  1.019376  0  0  0.09869  0.145601  0  1.019194  0
H  H21  1  0.01300641  0.63349023  0.95113186  1  0  0.124289  0  0.955707  0  0  0.146286  0  1.019285  0  0  0.147204  0  1.019443  0  0  0.09863  0.145511  0  1.019271  0
C  C22  1  0.40161779  0.23239370  0.62115834  1  0  0.594729  0  3.930144  0  0  0.548389  0  4.23857  0  0  0.585323  0  4.23205  0  0  0.207964  0.522631  0  4.243323  0
C  C23  1  0.09838033  0.73238380  0.37883266  1  0  0.594718  0  3.930264  0  0  0.548302  0  4.238813  0  0  0.585233  0  4.232296  0  0  0.207935  0.522551  0  4.243561  0
C  C24  1  0.59838060  0.76760454  0.37883806  1  0  0.594704  0  3.930171  0  0  0.548367  0  4.238574  0  0  0.585302  0  4.23205  0  0  0.207967  0.522607  0  4.243329  0
C  C25  1  0.90162796  0.26758259  0.62116283  1  0  0.594672  0  3.930261  0  0  0.548232  0  4.238811  0  0  0.585169  0  4.232286  0  0  0.207847  0.522481  0  4.243562  0
C  C26  1  0.38329800  0.38624445  0.69653203  1  0  0.029175  0  3.724473  0  0  0.030302  0  3.968436  0  0  0.03097  0  3.984322  0  0  0.108486  0.029218  0  3.959374  0
C  C27  1  0.11670991  0.88623229  0.30346177  1  0  0.029448  0  3.723914  0  0  0.030591  0  3.967982  0  0  0.031264  0  3.983861  0  0  0.108522  0.029503  0  3.958907  0
C  C28  1  0.61669756  0.61376526  0.30346385  1  0  0.029306  0  3.724349  0  0  0.03037  0  3.968365  0  0  0.031038  0  3.984252  0  0  0.108482  0.029289  0  3.959304  0
C  C29  1  0.88329847  0.11375576  0.69654285  1  0  0.029401  0  3.724252  0  0  0.030604  0  3.96824  0  0  0.031278  0  3.98411  0  0  0.108574  0.029513  0  3.959167  0
C  C30  1  0.32753977  0.38948004  0.80722666  1  0  0.093198  0  3.700677  0  0  0.063524  0  3.957437  0  0  0.066431  0  3.972726  0  0  0.061499  0.061236  0  3.947709  0
C  C31  1  0.17246392  0.88947419  0.19276724  1  0  0.092928  0  3.700798  0  0  0.063216  0  3.957607  0  0  0.06612  0  3.972893  0  0  0.061433  0.06093  0  3.947873  0
C  C32  1  0.67245864  0.61053222  0.19277248  1  0  0.093244  0  3.700475  0  0  0.06359  0  3.957234  0  0  0.066494  0  3.972524  0  0  0.06155  0.061301  0  3.94751  0
C  C33  1  0.82754022  0.11051768  0.80723751  1  0  0.093014  0  3.700826  0  0  0.063293  0  3.957589  0  0  0.066202  0  3.972868  0  0  0.06145  0.061004  0  3.947861  0
C  C34  1  0.41226128  0.68085111  0.70520457  1  0  0.047279  0  3.52532  0  0  0.019574  0  3.764257  0  0  0.027188  0  3.774546  0  0  0.069342  0.014213  0  3.759081  0
C  C35  1  0.08774212  0.18083197  0.29479164  1  0  0.047264  0  3.525295  0  0  0.019585  0  3.76426  0  0  0.027184  0  3.774571  0  0  0.06926  0.014222  0  3.759077  0
C  C36  1  0.58774424  0.31915733  0.29479771  1  0  0.047252  0  3.525552  0  0  0.019569  0  3.764304  0  0  0.02718  0  3.774602  0  0  0.069305  0.014203  0  3.759134  0
C  C37  1  0.91225492  0.81915607  0.70521180  1  0  0.047403  0  3.525199  0  0  0.019726  0  3.764129  0  0  0.027305  0  3.774471  0  0  0.069366  0.014363  0  3.758948  0
C  C38  1  0.36365017  0.67980997  0.82066402  1  0  0.279999  0  3.691781  0  0  0.291406  0  3.941491  0  0  0.295817  0  3.958738  0  0  0.139052  0.287965  0  3.930109  0
C  C39  1  0.13634045  0.17979083  0.17932802  1  0  0.280095  0  3.691578  0  0  0.291478  0  3.941332  0  0  0.295891  0  3.95858  0  0  0.13906  0.288037  0  3.929939  0
C  C40  1  0.63635108  0.32019974  0.17933564  1  0  0.280037  0  3.691833  0  0  0.291628  0  3.94123  0  0  0.296041  0  3.958475  0  0  0.139131  0.288185  0  3.92985  0
C  C41  1  0.86365798  0.82020869  0.82067203  1  0  0.279958  0  3.691563  0  0  0.291332  0  3.941374  0  0  0.295746  0  3.958619  0  0  0.139028  0.287894  0  3.929981  0
C  C42  1  0.36726029  0.84195044  0.89218990  1  0  -0.390683  0  3.704277  0  0  -0.477183  0  3.940802  0  0  -0.481246  0  3.9501  0  0  -0.244278  -0.473839  0  3.934439  0
C  C43  1  0.13273030  0.34193137  0.10780668  1  0  -0.390738  0  3.704638  0  0  -0.477256  0  3.941192  0  0  -0.481318  0  3.950484  0  0  -0.244293  -0.473905  0  3.934857  0
C  C44  1  0.63273529  0.15805799  0.10780871  1  0  -0.390908  0  3.704344  0  0  -0.477448  0  3.940816  0  0  -0.481509  0  3.950108  0  0  -0.244382  -0.474102  0  3.934456  0
C  C45  1  0.86726247  0.65806560  0.89219324  1  0  -0.390555  0  3.704528  0  0  -0.477118  0  3.941013  0  0  -0.481173  0  3.950305  0  0  -0.244234  -0.473762  0  3.934681  0
N  N46  1  0.42542110  0.53394663  0.64646426  1  0  -0.183517  0  3.401496  0  0  -0.139361  0  3.687207  0  0  -0.15562  0  3.697055  0  0  -0.326928  -0.131967  0  3.68236  0
N  N47  1  0.07459242  0.03394030  0.35353273  1  0  -0.183555  0  3.401308  0  0  -0.13946  0  3.687118  0  0  -0.155707  0  3.696947  0  0  -0.326824  -0.13206  0  3.682244  0
N  N48  1  0.57457162  0.46606181  0.35353110  1  0  -0.183562  0  3.401555  0  0  -0.139408  0  3.687259  0  0  -0.155662  0  3.697098  0  0  -0.326879  -0.132016  0  3.682416  0
N  N49  1  0.92540886  0.96605157  0.64646967  1  0  -0.183669  0  3.401366  0  0  -0.139612  0  3.687218  0  0  -0.155851  0  3.697038  0  0  -0.326929  -0.132213  0  3.682344  0
N  N50  1  0.31939374  0.53404225  0.87049001  1  0  -0.304253  0  2.998281  0  0  -0.276241  0  3.26306  0  0  -0.282012  0  3.275615  0  0  -0.296618  -0.272165  0  3.254734  0
N  N51  1  0.18059712  0.03402308  0.12950463  1  0  -0.304149  0  2.998439  0  0  -0.276097  0  3.263213  0  0  -0.281867  0  3.275772  0  0  -0.296575  -0.27202  0  3.254873  0
N  N52  1  0.68061463  0.46596746  0.12951370  1  0  -0.304329  0  2.998188  0  0  -0.276393  0  3.262914  0  0  -0.282164  0  3.27547  0  0  -0.296722  -0.272319  0  3.254595  0
N  N53  1  0.81940276  0.96597388  0.87049933  1  0  -0.304044  0  2.998451  0  0  -0.276007  0  3.263232  0  0  -0.281774  0  3.275786  0  0  -0.296544  -0.27193  0  3.254894  0
O  O54  1  0.45528413  0.26942219  0.51991143  1  0  -0.519593  0  2.088976  0  0  -0.490374  0  2.380543  0  0  -0.532644  0  2.372173  0  0  -0.297928  -0.463266  0  2.385901  0
O  O55  1  0.04471719  0.76941253  0.48008612  1  0  -0.519681  0  2.088845  0  0  -0.490434  0  2.380449  0  0  -0.532694  0  2.372075  0  0  -0.29793  -0.463323  0  2.385787  0
O  O56  1  0.54472134  0.73058498  0.48008536  1  0  -0.519573  0  2.089119  0  0  -0.490339  0  2.38068  0  0  -0.532602  0  2.372307  0  0  -0.297875  -0.46323  0  2.386038  0
O  O57  1  0.95527837  0.23056787  0.51991067  1  0  -0.519604  0  2.089053  0  0  -0.490349  0  2.380671  0  0  -0.532604  0  2.372291  0  0  -0.297905  -0.463244  0  2.38601  0
O  O58  1  0.36902314  0.08637642  0.65261317  1  0  -0.554349  0  1.963161  0  0  -0.528051  0  2.208677  0  0  -0.553441  0  2.198166  0  0  -0.287263  -0.509374  0  2.214784  0
O  O59  1  0.13096965  0.58637753  0.34739035  1  0  -0.554371  0  1.96361  0  0  -0.528013  0  2.209143  0  0  -0.553405  0  2.198638  0  0  -0.287268  -0.509319  0  2.215181  0
O  O60  1  0.63098799  0.91363074  0.34738284  1  0  -0.554476  0  1.963104  0  0  -0.528148  0  2.208589  0  0  -0.553546  0  2.198078  0  0  -0.287344  -0.509463  0  2.214673  0
O  O61  1  0.86903443  0.41361943  0.65260984  1  0  -0.554437  0  1.963165  0  0  -0.528149  0  2.208779  0  0  -0.55355  0  2.19827  0  0  -0.287294  -0.509442  0  2.214806  0
