# generated using pymatgen
data_Zn3H24C30(N7O3)2
_symmetry_space_group_name_H-M   'P 1'
_cell_length_a   12.88299260
_cell_length_b   12.88299294
_cell_length_c   12.88301691
_cell_angle_alpha   108.30875998
_cell_angle_beta   108.30858651
_cell_angle_gamma   108.30879233
_symmetry_Int_Tables_number   1
_chemical_formula_structural   Zn3H24C30(N7O3)2
_chemical_formula_sum   'Zn3 H24 C30 N14 O6'
_cell_volume   1713.18142635
_cell_formula_units_Z   1
loop_
 _symmetry_equiv_pos_site_id
 _symmetry_equiv_pos_as_xyz
  1  'x, y, z'
loop_
 _atom_site_type_symbol
 _atom_site_label
 _atom_site_symmetry_multiplicity
 _atom_site_fract_x
 _atom_site_fract_y
 _atom_site_fract_z
 _atom_site_occupancy
 _atom_site_pbe_bader_charge
 _atom_site_pbe_bader_spin_density
 _atom_site_pbe_cm5_charge
 _atom_site_pbe_ddec_charge
 _atom_site_pbe_ddec_spin_density
 _atom_site_pbe_ddec_sum_bond_order
 _atom_site_pbe_magmom
Zn  Zn0  1  0.21390638  0.21390333  0.21390526  1  1.341305  0  0.686025  0.756859  0  2.344349  0
Zn  Zn1  1  0.95436767  0.95436919  0.95436656  1  1.189119  0  0.77325  0.548697  0  2.573437  0
Zn  Zn2  1  0.46174890  0.46175304  0.46175221  1  1.271413  0  0.694812  0.833275  0  2.436789  0
H  H3  1  0.03915230  0.60101193  0.03915193  1  0.073442  0  0.10152  0.10339  0  1.005984  0
H  H4  1  0.03915423  0.03915364  0.60101547  1  0.073426  0  0.101512  0.103357  0  1.006007  0
H  H5  1  0.60101462  0.03915410  0.03915406  1  0.073447  0  0.101513  0.10337  0  1.005993  0
H  H6  1  0.36208201  0.90167916  0.36208127  1  0.074347  0  0.106608  0.111013  0  0.997713  0
H  H7  1  0.36208305  0.36208297  0.90167782  1  0.074341  0  0.106618  0.111016  0  0.997776  0
H  H8  1  0.90167741  0.36208218  0.36208311  1  0.074369  0  0.10662  0.111021  0  0.99779  0
H  H9  1  0.09662298  0.45090829  0.09662276  1  0.081289  0  0.108476  0.115824  0  0.987049  0
H  H10  1  0.09662463  0.09662265  0.45091252  1  0.081329  0  0.108439  0.11578  0  0.987183  0
H  H11  1  0.45091091  0.09662412  0.09662419  1  0.081303  0  0.108473  0.115797  0  0.987175  0
H  H12  1  0.41864464  0.75137110  0.41864541  1  0.073211  0  0.097293  0.096489  0  1.019286  0
H  H13  1  0.41864357  0.41864401  0.75136973  1  0.073206  0  0.097325  0.096511  0  1.019275  0
H  H14  1  0.75136957  0.41864443  0.41864439  1  0.073207  0  0.09731  0.09649  0  1.019298  0
H  H15  1  0.69206449  0.89293050  0.80854649  1  0.066757  0  0.114371  0.101753  0  0.966607  0
H  H16  1  0.80854643  0.69206403  0.89292934  1  0.066781  0  0.114349  0.101737  0  0.966602  0
H  H17  1  0.89292932  0.80854650  0.69206497  1  0.066762  0  0.114349  0.101737  0  0.966614  0
H  H18  1  0.80854616  0.89292996  0.69206441  1  0.066761  0  0.114392  0.101786  0  0.966657  0
H  H19  1  0.89292986  0.69206465  0.80854605  1  0.066772  0  0.114379  0.101775  0  0.966598  0
H  H20  1  0.69206422  0.80854641  0.89292956  1  0.066781  0  0.114356  0.101733  0  0.966571  0
H  H21  1  0.51887803  0.71846936  0.63349396  1  0.084828  0  0.11717  0.106154  0  0.964163  0
H  H22  1  0.63349406  0.51887830  0.71846967  1  0.084827  0  0.117167  0.106154  0  0.964171  0
H  H23  1  0.71846837  0.63349416  0.51887897  1  0.084847  0  0.117178  0.106161  0  0.964173  0
H  H24  1  0.63349377  0.71846891  0.51887837  1  0.084824  0  0.117173  0.106156  0  0.964167  0
H  H25  1  0.71846891  0.51887809  0.63349356  1  0.084841  0  0.117177  0.106163  0  0.964151  0
H  H26  1  0.51887868  0.63349440  0.71846928  1  0.084834  0  0.117172  0.106154  0  0.964179  0
C  C27  1  0.16405210  0.84841755  0.16405110  1  0.948623  0  0.209276  0.225134  0  4.055943  0
C  C28  1  0.16404993  0.16405015  0.84841683  1  0.948664  0  0.209249  0.225089  0  4.05579  0
C  C29  1  0.84841617  0.16405156  0.16405184  1  0.948629  0  0.209203  0.224978  0  4.055832  0
C  C30  1  0.12230111  0.63331351  0.12229968  1  -0.031939  0  -0.088067  -0.12246  0  3.972316  0
C  C31  1  0.12230042  0.12229864  0.63331518  1  -0.031906  0  -0.088045  -0.122404  0  3.972185  0
C  C32  1  0.63331344  0.12230124  0.12230129  1  -0.031924  0  -0.088078  -0.122491  0  3.972343  0
C  C33  1  0.30439458  0.80292564  0.30439382  1  0.035081  0  -0.086524  -0.119663  0  3.977186  0
C  C34  1  0.30439486  0.30439503  0.80292746  1  0.035092  0  -0.086553  -0.119744  0  3.977156  0
C  C35  1  0.80292689  0.30439589  0.30439700  1  0.035051  0  -0.086539  -0.119728  0  3.977204  0
C  C36  1  0.19714163  0.76069978  0.19714017  1  -0.059467  0  -0.000979  0.045374  0  4.008304  0
C  C37  1  0.19714168  0.19714158  0.76069837  1  -0.059467  0  -0.001025  0.045355  0  4.008364  0
C  C38  1  0.76069747  0.19714044  0.19714137  1  -0.05948  0  -0.001013  0.045425  0  4.008264  0
C  C39  1  0.15389263  0.54979853  0.15389148  1  -0.015157  0  -0.07868  -0.082001  0  3.974215  0
C  C40  1  0.15389321  0.15389096  0.54979891  1  -0.015229  0  -0.078633  -0.081922  0  3.974255  0
C  C41  1  0.54979789  0.15389141  0.15389110  1  -0.015209  0  -0.078601  -0.081881  0  3.974244  0
C  C42  1  0.33556597  0.71922376  0.33556579  1  -0.025406  0  -0.088179  -0.094674  0  3.999523  0
C  C43  1  0.33556659  0.33556742  0.71922221  1  -0.025423  0  -0.088175  -0.09457  0  3.999374  0
C  C44  1  0.71922251  0.33556565  0.33556630  1  -0.025422  0  -0.088213  -0.094663  0  3.999535  0
C  C45  1  0.26093997  0.59197297  0.26094033  1  -0.034789  0  -0.020726  -0.036361  0  3.967566  0
C  C46  1  0.26093892  0.26093844  0.59197413  1  -0.03468  0  -0.020686  -0.036409  0  3.967661  0
C  C47  1  0.59197223  0.26093921  0.26093939  1  -0.035688  0  -0.020732  -0.036383  0  3.967579  0
C  C48  1  0.29667688  0.50393384  0.29667759  1  1.552217  0  0.220937  0.602584  0  4.164478  0
C  C49  1  0.29667623  0.29667471  0.50393628  1  1.552036  0  0.220934  0.602554  0  4.164393  0
C  C50  1  0.50393004  0.29667253  0.29667244  1  1.553102  0  0.22101  0.602639  0  4.164458  0
C  C51  1  0.68975060  0.80643002  0.80642943  1  0.22603  0  -0.066929  -0.093175  0  3.814116  0
C  C52  1  0.80642966  0.68975095  0.80642926  1  0.226036  0  -0.066924  -0.093206  0  3.814187  0
C  C53  1  0.80643004  0.80643086  0.68975149  1  0.226227  0  -0.066948  -0.093215  0  3.814202  0
C  C54  1  0.57668308  0.69258534  0.69258546  1  0.231157  0  -0.065005  -0.087557  0  3.820079  0
C  C55  1  0.69258475  0.57668443  0.69258553  1  0.231206  0  -0.064967  -0.087495  0  3.820044  0
C  C56  1  0.69258511  0.69258596  0.57668367  1  0.231178  0  -0.065004  -0.087551  0  3.820065  0
N  N57  1  0.80529599  0.80529732  0.80529563  1  -1.003916  0  -0.344118  -0.090797  0  3.481311  0
N  N58  1  0.16791213  0.01588021  0.16790940  1  -0.199843  0  -0.091161  -0.036378  0  3.435398  0
N  N59  1  0.16790710  0.16790832  0.01587775  1  -0.200263  0  -0.091082  -0.036323  0  3.43533  0
N  N60  1  0.01587837  0.16790947  0.16790977  1  -0.199975  0  -0.091158  -0.036416  0  3.43532  0
N  N61  1  0.22999258  0.97276739  0.22998858  1  -0.581593  0  -0.202516  -0.227734  0  3.125791  0
N  N62  1  0.22998843  0.22998971  0.97276744  1  -0.581449  0  -0.202542  -0.227736  0  3.125794  0
N  N63  1  0.97276740  0.22998970  0.22999050  1  -0.58148  0  -0.202468  -0.227632  0  3.125759  0
N  N64  1  0.61751726  0.61751946  0.61751776  1  -0.990194  0  -0.34336  -0.111926  0  3.491995  0
N  N65  1  0.06787427  0.92087931  0.06787156  1  -0.255888  0  -0.146841  -0.071274  0  3.663349  0
N  N66  1  0.06786977  0.06787309  0.92087847  1  -0.255573  0  -0.146881  -0.07127  0  3.663413  0
N  N67  1  0.92087672  0.06787028  0.06787060  1  -0.255799  0  -0.146877  -0.071263  0  3.66335  0
N  N68  1  0.06247910  0.81468720  0.06247502  1  -0.650327  0  -0.225153  -0.281732  0  3.210381  0
N  N69  1  0.06247399  0.06247607  0.81468556  1  -0.650403  0  -0.225134  -0.281746  0  3.210272  0
N  N70  1  0.81468604  0.06247504  0.06247541  1  -0.650346  0  -0.225088  -0.28168  0  3.210194  0
O  O71  1  0.23079769  0.38961435  0.23079787  1  -1.161195  0  -0.300907  -0.536868  0  2.373584  0
O  O72  1  0.23079623  0.23079199  0.38961397  1  -1.161194  0  -0.300957  -0.53689  0  2.373494  0
O  O73  1  0.38961198  0.23079011  0.23079222  1  -1.161328  0  -0.300963  -0.536873  0  2.373539  0
O  O74  1  0.39754561  0.55603182  0.39754782  1  -1.185662  0  -0.334408  -0.571129  0  2.40507  0
O  O75  1  0.39754417  0.39754538  0.55602967  1  -1.185585  0  -0.334377  -0.571086  0  2.405137  0
O  O76  1  0.55602885  0.39754413  0.39754310  1  -1.185494  0  -0.334418  -0.571175  0  2.405069  0
