# generated using pymatgen
data_Cd3H10C8(N9Cl)2
_symmetry_space_group_name_H-M   'P 1'
_cell_length_a   10.01489059
_cell_length_b   16.12588646
_cell_length_c   16.12485539
_cell_angle_alpha   115.82844733
_cell_angle_beta   101.94258854
_cell_angle_gamma   101.95083448
_symmetry_Int_Tables_number   1
_chemical_formula_structural   Cd3H10C8(N9Cl)2
_chemical_formula_sum   'Cd9 H30 C24 N54 Cl6'
_cell_volume   2158.69196797
_cell_formula_units_Z   3
loop_
 _symmetry_equiv_pos_site_id
 _symmetry_equiv_pos_as_xyz
  1  'x, y, z'
loop_
 _atom_site_type_symbol
 _atom_site_label
 _atom_site_symmetry_multiplicity
 _atom_site_fract_x
 _atom_site_fract_y
 _atom_site_fract_z
 _atom_site_occupancy
 _atom_site_pbe_bader_charge
 _atom_site_pbe_bader_spin_density
 _atom_site_pbe_cm5_charge
 _atom_site_pbe_ddec_charge
 _atom_site_pbe_ddec_spin_density
 _atom_site_pbe_ddec_sum_bond_order
 _atom_site_pbe_magmom
Cd  Cd0  1  0.92461531  0.24508304  0.54244783  1  1.230924  0  0.741945  0.651393  0  2.423593  0
Cd  Cd1  1  0.38218940  0.45754937  0.70262688  1  1.229769  0  0.741674  0.651669  0  2.423869  0
Cd  Cd2  1  0.67956380  0.29736041  0.75493934  1  1.229094  0  0.741603  0.651416  0  2.424602  0
Cd  Cd3  1  0.07538540  0.75491723  0.45755223  1  1.230929  0  0.741951  0.651392  0  2.423588  0
Cd  Cd4  1  0.61781029  0.54245090  0.29737367  1  1.229745  0  0.741698  0.65173  0  2.423806  0
Cd  Cd5  1  0.32043655  0.70263912  0.24506036  1  1.22904  0  0.741608  0.651453  0  2.424565  0
Cd  Cd6  1  0.00000116  0.00000021  0.50000001  1  1.214054  0  0.719001  0.703705  0  2.455253  0
Cd  Cd7  1  0.50000068  0.49999977  0.50000053  1  1.214782  0  0.718512  0.701978  0  2.456352  0
Cd  Cd8  1  0.99999906  0.50000002  0.00000024  1  1.212407  0  0.71883  0.703775  0  2.456271  0
H  H9  1  0.66221774  0.34328265  0.37029874  1  0.111525  0  0.089959  0.089207  0  1.044733  0
H  H10  1  0.83399777  0.40798854  0.46380699  1  0.084057  0  0.116309  0.111338  0  0.958682  0
H  H11  1  0.85938544  0.29476214  0.29035550  1  0.057038  0  0.107187  0.093488  0  0.954896  0
H  H12  1  0.89464164  0.19204804  0.29385186  1  0.088959  0  0.116334  0.116603  0  0.95909  0
H  H13  1  0.70557614  0.19320857  0.34841503  1  0.402577  0  0.302589  0.246759  0  0.932055  0
H  H14  1  0.29178275  0.62979325  0.97297211  1  0.116556  0  0.089979  0.090038  0  1.044604  0
H  H15  1  0.36995256  0.53623163  0.94416294  1  0.054518  0  0.116038  0.112027  0  0.958401  0
H  H16  1  0.56895440  0.70960381  0.00440967  1  0.050802  0  0.107208  0.092737  0  0.955655  0
H  H17  1  0.60078485  0.70612418  0.89821790  1  0.098119  0  0.115714  0.116896  0  0.959022  0
H  H18  1  0.35717788  0.65162504  0.84476083  1  0.391912  0  0.302954  0.247915  0  0.930796  0
H  H19  1  0.31893809  0.02699813  0.65666412  1  0.109357  0  0.089432  0.088684  0  1.04481  0
H  H20  1  0.42606783  0.05593621  0.59204149  1  0.058391  0  0.11699  0.111972  0  0.958744  0
H  H21  1  0.56451760  0.99562607  0.70528625  1  0.060009  0  0.107086  0.092736  0  0.955459  0
H  H22  1  0.70252785  0.10179273  0.80798554  1  0.125682  0  0.11644  0.117332  0  0.95916  0
H  H23  1  0.51225847  0.15522453  0.80682731  1  0.404232  0  0.30168  0.244986  0  0.933098  0
H  H24  1  0.33778333  0.65671835  0.62970231  1  0.111507  0  0.089942  0.089172  0  1.044748  0
H  H25  1  0.16600090  0.59201173  0.53619405  1  0.084057  0  0.116298  0.111308  0  0.958693  0
H  H26  1  0.14061527  0.70523813  0.70964518  1  0.056976  0  0.107183  0.093487  0  0.954897  0
H  H27  1  0.10535944  0.80795296  0.70614919  1  0.088965  0  0.116356  0.116635  0  0.959052  0
H  H28  1  0.29442494  0.80679243  0.65158601  1  0.402555  0  0.302582  0.246739  0  0.932046  0
H  H29  1  0.70821592  0.37020702  0.02702830  1  0.116586  0  0.089954  0.089999  0  1.044611  0
H  H30  1  0.63004749  0.46376937  0.05583860  1  0.054515  0  0.116044  0.11201  0  0.958433  0
H  H31  1  0.43104631  0.29039646  0.99559101  1  0.050809  0  0.107205  0.092746  0  0.955677  0
H  H32  1  0.39921447  0.29387536  0.10178290  1  0.098065  0  0.115728  0.116906  0  0.959028  0
H  H33  1  0.64282247  0.34837450  0.15523949  1  0.391899  0  0.302935  0.247909  0  0.930797  0
H  H34  1  0.68106124  0.97300141  0.34333544  1  0.109361  0  0.08942  0.08868  0  1.044793  0
H  H35  1  0.57393011  0.94406259  0.40795758  1  0.058401  0  0.116981  0.11195  0  0.958768  0
H  H36  1  0.43548238  0.00437274  0.29471122  1  0.060042  0  0.107087  0.092728  0  0.955441  0
H  H37  1  0.29747205  0.89820388  0.19201096  1  0.125668  0  0.116422  0.117344  0  0.959142  0
H  H38  1  0.48774392  0.84477501  0.19317264  1  0.404208  0  0.301684  0.245019  0  0.933  0
C  C39  1  0.67309389  0.34013276  0.50265597  1  0.977  0  0.223086  0.292592  0  3.979108  0
C  C40  1  0.73930963  0.34054365  0.42810405  1  0.275253  0  -0.064931  -0.117222  0  3.941912  0
C  C41  1  0.89152571  0.26561477  0.33911587  1  0.323714  0  -0.052503  -0.101414  0  3.944735  0
C  C42  1  0.04027324  0.32959991  0.41095099  1  0.957078  0  0.213014  0.26783  0  4.014473  0
C  C43  1  0.17030163  0.49742348  0.83744605  1  0.962303  0  0.221204  0.288732  0  3.983396  0
C  C44  1  0.31103232  0.57196567  0.91241385  1  0.307179  0  -0.063776  -0.117452  0  3.941917  0
C  C45  1  0.55230686  0.66084590  0.92649385  1  0.314461  0  -0.05256  -0.101047  0  3.94451  0
C  C46  1  0.62916164  0.58896785  0.91863991  1  0.981479  0  0.211711  0.266346  0  4.015716  0
C  C47  1  0.33289755  0.16253870  0.65990953  1  0.979586  0  0.221821  0.288341  0  3.984871  0
C  C48  1  0.39875456  0.08760551  0.65946874  1  0.311965  0  -0.064554  -0.116303  0  3.94243  0
C  C49  1  0.62582436  0.07353388  0.73444022  1  0.274977  0  -0.053157  -0.100975  0  3.946284  0
C  C50  1  0.71052186  0.08135657  0.67040765  1  0.970127  0  0.211198  0.264935  0  4.014235  0
C  C51  1  0.32690544  0.65986677  0.49734421  1  0.977072  0  0.22311  0.292625  0  3.979085  0
C  C52  1  0.26069108  0.65945662  0.57189724  1  0.275228  0  -0.064906  -0.117147  0  3.941909  0
C  C53  1  0.10847435  0.73438623  0.66088504  1  0.323735  0  -0.05249  -0.101423  0  3.944698  0
C  C54  1  0.95972784  0.67040109  0.58905005  1  0.95706  0  0.212972  0.267785  0  4.014521  0
C  C55  1  0.82969806  0.50257678  0.16255449  1  0.962324  0  0.221241  0.288767  0  3.983403  0
C  C56  1  0.68896802  0.42803387  0.08758585  1  0.307147  0  -0.063746  -0.117359  0  3.941858  0
C  C57  1  0.44769247  0.33915364  0.07350633  1  0.314491  0  -0.052535  -0.10102  0  3.944585  0
C  C58  1  0.37084009  0.41103242  0.08135966  1  0.981617  0  0.211683  0.266294  0  4.01579  0
C  C59  1  0.66710214  0.83746157  0.34009164  1  0.979693  0  0.221747  0.288258  0  3.984969  0
C  C60  1  0.60124513  0.91239476  0.34053118  1  0.31191  0  -0.064514  -0.116234  0  3.942375  0
C  C61  1  0.37417387  0.92646346  0.26555576  1  0.275064  0  -0.053178  -0.101014  0  3.946234  0
C  C62  1  0.28947849  0.91864297  0.32959018  1  0.969851  0  0.211229  0.265052  0  4.014162  0
N  N63  1  0.70592300  0.29590820  0.55372775  1  -0.715828  0  -0.23188  -0.263805  0  3.350209  0
N  N64  1  0.79103221  0.25699231  0.39165547  1  -1.048238  0  -0.472445  -0.311571  0  3.482274  0
N  N65  1  0.08543887  0.33971890  0.50053188  1  -0.696318  0  -0.231846  -0.235196  0  3.404929  0
N  N66  1  0.22408246  0.39715584  0.54065260  1  -0.184628  0  -0.113037  -0.052461  0  3.447118  0
N  N67  1  0.63095381  0.31614664  0.61600767  1  -0.176887  0  -0.110775  -0.034233  0  3.466166  0
N  N68  1  0.55518667  0.36973127  0.60324525  1  -0.117439  0  -0.090813  -0.050366  0  3.298203  0
N  N69  1  0.57933109  0.38554407  0.53180497  1  -0.704647  0  -0.231788  -0.244624  0  3.398657  0
N  N70  1  0.25989753  0.42057002  0.47718989  1  -0.185523  0  -0.113048  -0.041319  0  3.485561  0
N  N71  1  0.14658628  0.37989602  0.39497729  1  -0.636813  0  -0.229603  -0.272431  0  3.135935  0
N  N72  1  0.15213341  0.44631316  0.74217163  1  -0.712638  0  -0.232655  -0.264493  0  3.351114  0
N  N73  1  0.39929910  0.60836798  0.86532321  1  -1.029708  0  -0.47237  -0.312837  0  3.480631  0
N  N74  1  0.58482859  0.49940966  0.83918401  1  -0.716422  0  -0.232255  -0.236094  0  3.401832  0
N  N75  1  0.68341276  0.45932783  0.85650429  1  -0.187359  0  -0.111342  -0.049368  0  3.442589  0
N  N76  1  0.01493435  0.38398425  0.70015011  1  -0.17669  0  -0.110463  -0.032594  0  3.469695  0
N  N77  1  0.95190391  0.39675307  0.76649382  1  -0.129768  0  -0.090221  -0.050873  0  3.302808  0
N  N78  1  0.04742128  0.46824995  0.85372878  1  -0.694534  0  -0.23161  -0.242514  0  3.400332  0
N  N79  1  0.78265014  0.52280038  0.94338041  1  -0.174232  0  -0.114978  -0.044925  0  3.489751  0
N  N80  1  0.75147003  0.60497936  0.98491420  1  -0.64662  0  -0.227464  -0.270319  0  3.137895  0
N  N81  1  0.40996017  0.25782118  0.70411804  1  -0.716266  0  -0.233024  -0.264043  0  3.353095  0
N  N82  1  0.53398266  0.13470344  0.74306109  1  -1.051284  0  -0.470626  -0.309606  0  3.483067  0
N  N83  1  0.74565501  0.16081270  0.66029253  1  -0.720561  0  -0.230472  -0.232839  0  3.403623  0
N  N84  1  0.82689049  0.14348422  0.60286723  1  -0.160515  0  -0.112579  -0.05108  0  3.445484  0
N  N85  1  0.31476863  0.29985214  0.68386190  1  -0.168682  0  -0.110564  -0.033476  0  3.469375  0
N  N86  1  0.18541578  0.23350536  0.63027433  1  -0.129119  0  -0.090664  -0.050524  0  3.301323  0
N  N87  1  0.19373661  0.14625882  0.61447631  1  -0.712169  0  -0.230543  -0.241229  0  3.399654  0
N  N88  1  0.83923808  0.05660307  0.57945793  1  -0.189549  0  -0.115232  -0.045197  0  3.487464  0
N  N89  1  0.76653540  0.01507544  0.62012293  1  -0.636149  0  -0.228205  -0.271358  0  3.13679  0
N  N90  1  0.29407494  0.70409061  0.44627193  1  -0.715884  0  -0.231869  -0.263767  0  3.350227  0
N  N91  1  0.20896886  0.74300869  0.60834557  1  -1.04822  0  -0.472443  -0.311564  0  3.482188  0
N  N92  1  0.91456221  0.66028210  0.49946917  1  -0.696116  0  -0.23183  -0.235162  0  3.404887  0
N  N93  1  0.77591862  0.60284516  0.45934845  1  -0.184782  0  -0.113058  -0.05249  0  3.447179  0
N  N94  1  0.36904588  0.68385363  0.38399287  1  -0.176865  0  -0.110777  -0.034267  0  3.466225  0
N  N95  1  0.44481265  0.63026826  0.39675493  1  -0.117467  0  -0.090809  -0.050351  0  3.298183  0
N  N96  1  0.42066722  0.61445546  0.46819508  1  -0.704581  0  -0.231837  -0.244709  0  3.398686  0
N  N97  1  0.74010355  0.57943098  0.52281116  1  -0.185498  0  -0.113007  -0.041308  0  3.485665  0
N  N98  1  0.85341480  0.62010498  0.60502376  1  -0.636836  0  -0.229613  -0.272417  0  3.136006  0
N  N99  1  0.84786767  0.55368784  0.25782942  1  -0.712638  0  -0.232657  -0.264488  0  3.351113  0
N  N100  1  0.60070023  0.39163156  0.13467697  1  -1.029678  0  -0.4724  -0.312929  0  3.480689  0
N  N101  1  0.41517212  0.50059061  0.16081667  1  -0.71644  0  -0.232219  -0.23604  0  3.401766  0
N  N102  1  0.31658758  0.54067171  0.14349665  1  -0.187305  0  -0.111337  -0.049385  0  3.442608  0
N  N103  1  0.98506637  0.61601602  0.29985056  1  -0.176727  0  -0.110498  -0.032641  0  3.469733  0
N  N104  1  0.04809644  0.60324646  0.23350649  1  -0.129769  0  -0.090225  -0.050879  0  3.302845  0
N  N105  1  0.95257841  0.53175032  0.14627176  1  -0.694521  0  -0.231596  -0.242508  0  3.400422  0
N  N106  1  0.21734919  0.47719916  0.05662040  1  -0.174202  0  -0.115068  -0.044988  0  3.48975  0
N  N107  1  0.24853032  0.39502017  0.01508611  1  -0.646763  0  -0.227417  -0.27027  0  3.137979  0
N  N108  1  0.59003952  0.74217909  0.29588312  1  -0.716327  0  -0.233006  -0.264041  0  3.353083  0
N  N109  1  0.46601732  0.86529536  0.25693762  1  -1.05125  0  -0.470638  -0.309676  0  3.483009  0
N  N110  1  0.25434533  0.83918683  0.33970592  1  -0.720417  0  -0.230487  -0.232952  0  3.403612  0
N  N111  1  0.17311124  0.85651605  0.39713234  1  -0.160624  0  -0.112577  -0.050991  0  3.445497  0
N  N112  1  0.68523172  0.70014740  0.31613841  1  -0.168708  0  -0.110592  -0.033516  0  3.469434  0
N  N113  1  0.81458456  0.76649418  0.36972536  1  -0.129142  0  -0.090643  -0.050514  0  3.301295  0
N  N114  1  0.80626271  0.85374071  0.38552387  1  -0.712165  0  -0.2305  -0.241145  0  3.399637  0
N  N115  1  0.16076264  0.94339720  0.42054089  1  -0.189504  0  -0.115177  -0.045187  0  3.48752  0
N  N116  1  0.23346458  0.98492336  0.37987454  1  -0.63603  0  -0.228238  -0.271426  0  3.136902  0
Cl  Cl117  1  0.92998142  0.08798880  0.39824052  1  -0.647437  0  -0.326456  -0.495625  0  1.238916  0
Cl  Cl118  1  0.53179761  0.60176957  0.68977523  1  -0.646537  0  -0.326501  -0.495407  0  1.238861  0
Cl  Cl119  1  0.84208906  0.31021788  0.91200703  1  -0.646684  0  -0.326393  -0.495882  0  1.238662  0
Cl  Cl120  1  0.07001790  0.91201073  0.60175842  1  -0.647455  0  -0.326443  -0.495613  0  1.238924  0
Cl  Cl121  1  0.46820310  0.39823070  0.31022607  1  -0.646566  0  -0.326507  -0.495419  0  1.238869  0
Cl  Cl122  1  0.15791026  0.68978166  0.08799315  1  -0.646678  0  -0.326387  -0.495879  0  1.238659  0
