# generated using pymatgen
data_Cu3H18C16Br4(NO2)2
_symmetry_space_group_name_H-M   'P 1'
_cell_length_a   7.79486721
_cell_length_b   8.62087235
_cell_length_c   9.05241825
_cell_angle_alpha   82.37643300
_cell_angle_beta   81.42781136
_cell_angle_gamma   66.71859369
_symmetry_Int_Tables_number   1
_chemical_formula_structural   Cu3H18C16Br4(NO2)2
_chemical_formula_sum   'Cu3 H18 C16 Br4 N2 O4'
_cell_volume   550.71112294
_cell_formula_units_Z   1
loop_
 _symmetry_equiv_pos_site_id
 _symmetry_equiv_pos_as_xyz
  1  'x, y, z'
loop_
 _atom_site_type_symbol
 _atom_site_label
 _atom_site_symmetry_multiplicity
 _atom_site_fract_x
 _atom_site_fract_y
 _atom_site_fract_z
 _atom_site_occupancy
 _atom_site_hle17_ddec_charge
 _atom_site_hle17_ddec_spin_density
 _atom_site_hle17_ddec_sum_bond_order
 _atom_site_hle17_magmom
 _atom_site_hse06_10hf_ddec_charge
 _atom_site_hse06_10hf_ddec_spin_density
 _atom_site_hse06_10hf_ddec_sum_bond_order
 _atom_site_hse06_10hf_magmom
 _atom_site_hse06_ddec_charge
 _atom_site_hse06_ddec_spin_density
 _atom_site_hse06_ddec_sum_bond_order
 _atom_site_hse06_magmom
 _atom_site_pbe_cm5_charge
 _atom_site_pbe_ddec_charge
 _atom_site_pbe_ddec_spin_density
 _atom_site_pbe_ddec_sum_bond_order
 _atom_site_pbe_magmom
Cu  Cu0  1  0.09395769  0.48455809  0.87241382  1  0.392037  0.14841  2.015096  0.124  0.283175  0.106954  2.533608  0.092  0.265418  0.010735  2.498847  0.01  0.251866  0.286303  0.150524  2.561976  0.128
Cu  Cu1  1  0.90892439  0.51436418  0.12444295  1  0.393174  0.147775  2.020269  0.124  0.284032  0.10361  2.539323  0.09  0.268589  0.01081  2.50257  0.01  0.252542  0.288397  0.149776  2.567026  0.127
Cu  Cu2  1  0.99843044  0.49997890  0.50007521  1  0.646539  0.402848  1.834088  0.329  0.633319  0.552905  2.214772  0.468  0.802699  0.775913  2.109903  0.662  0.581223  0.569348  0.454841  2.266417  0.388
H  H3  1  0.64406394  0.27692260  0.85228487  1  0.115008  0.00024  0.949526  0.0  0.137508  0.000326  1.008556  0.0  0.137569  0.000364  1.008884  0.0  0.088049  0.137455  0.000313  1.008013  0.0
H  H4  1  0.35615773  0.72233388  0.14846834  1  0.114188  0.000247  0.949018  0.0  0.136695  0.000332  1.008061  0.0  0.13671  0.000368  1.008434  0.0  0.087774  0.136646  0.000325  1.007506  0.0
H  H5  1  0.51751319  0.14249307  0.90790015  1  0.109528  -7e-06  0.956473  0.0  0.12731  -3e-06  1.023742  0.0  0.129438  2.6e-05  1.022219  0.0  0.083985  0.125844  2.5e-05  1.024589  0.0
H  H6  1  0.48265488  0.85686246  0.09299828  1  0.109123  5e-06  0.956249  0.0  0.127234  3e-06  1.023067  0.0  0.129316  3e-05  1.021623  0.0  0.084072  0.125708  2.7e-05  1.024035  0.0
H  H7  1  0.73445838  0.09629006  0.98143344  1  0.109461  6.3e-05  0.978993  0.0  0.127143  3.9e-05  1.046441  0.0  0.129855  2.1e-05  1.047429  0.0  0.071798  0.125254  6.2e-05  1.046025  0.0
H  H8  1  0.26504992  0.90378428  0.02025419  1  0.109599  6.4e-05  0.979405  0.0  0.126746  4.1e-05  1.047543  0.0  0.129578  2.3e-05  1.048411  0.0  0.071427  0.124881  7.1e-05  1.04707  0.0
H  H9  1  0.93956401  0.22977005  0.71065619  1  0.093059  0.000554  0.943945  0.001  0.102901  0.00071  1.007551  0.001  0.107219  0.000719  1.003435  0.001  0.116622  0.099648  0.000691  1.010806  0.001
H  H10  1  0.06135006  0.76894479  0.29082149  1  0.093122  0.000558  0.942678  0.001  0.10293  0.000711  1.006385  0.001  0.107183  0.000716  1.002381  0.001  0.117047  0.099676  0.000684  1.009673  0.001
H  H11  1  0.08781555  0.91211252  0.73810552  1  0.108723  0.000487  0.963385  0.0  0.118656  0.000443  1.026679  0.0  0.124806  0.000249  1.024219  0.0  0.098062  0.114741  0.000543  1.028387  0.0
H  H12  1  0.91372627  0.08669154  0.26203002  1  0.108908  0.000488  0.96107  0.0  0.118411  0.000447  1.024697  0.0  0.12461  0.000251  1.022198  0.0  0.098527  0.114441  0.000537  1.02651  0.0
H  H13  1  0.34225871  0.76179235  0.54159565  1  0.102885  0.000185  0.967811  0.0  0.110483  0.000171  1.033028  0.0  0.114522  3.2e-05  1.030429  0.0  0.093163  0.107686  0.000181  1.035055  0.0
H  H14  1  0.65833244  0.23815175  0.45748369  1  0.102548  0.000191  0.967691  0.0  0.110045  0.000175  1.03321  0.0  0.114204  3.6e-05  1.030466  0.0  0.092905  0.107202  0.000186  1.035274  0.0
H  H15  1  0.44387956  0.93592372  0.32875984  1  0.120196  0.000252  0.94845  0.0  0.128755  0.000368  1.011162  0.001  0.134759  0.000372  1.006454  0.001  0.112328  0.124834  0.000346  1.014087  0.001
H  H16  1  0.55511808  0.06538867  0.67040081  1  0.120495  0.000257  0.948557  0.0  0.128374  0.000368  1.011987  0.001  0.134407  0.000372  1.007251  0.001  0.112217  0.124465  0.000346  1.014936  0.001
H  H17  1  0.37147119  0.41327176  0.03667799  1  0.041863  -0.00027  0.974164  0.0  0.052242  -0.00024  1.053939  0.0  0.057503  -3.5e-05  1.046119  0.0  0.08903  0.049012  -0.000251  1.05907  0.0
H  H18  1  0.62726352  0.58673999  0.96296417  1  0.041738  -0.00025  0.973846  0.0  0.052516  -0.000218  1.053239  0.0  0.057593  -2.4e-05  1.045587  0.0  0.089178  0.049371  -0.000223  1.058261  0.0
H  H19  1  0.58468517  0.36188519  0.11845061  1  0.053368  0.00019  0.937763  0.0  0.067312  0.000218  1.004538  0.0  0.06858  0.000316  1.001999  0.0  0.094429  0.066686  0.000251  1.005647  0.0
H  H20  1  0.41368912  0.63974850  0.88125262  1  0.053666  0.000149  0.938192  0.0  0.067306  0.000179  1.00551  0.0  0.068726  0.000292  1.002839  0.0  0.094511  0.066713  0.000206  1.006624  0.0
C  C21  1  0.05042111  0.15910067  0.62818102  1  0.134022  -0.00536  3.657745  -0.004  0.104545  -0.002189  3.910213  -0.002  0.117698  -0.004028  3.922827  -0.003  0.052128  0.097456  -0.001139  3.902536  -0.001
C  C22  1  0.95007811  0.84021355  0.37273777  1  0.133604  -0.005315  3.657398  -0.004  0.103711  -0.002167  3.909759  -0.002  0.116793  -0.00393  3.922618  -0.003  0.051686  0.096598  -0.001123  3.902121  -0.001
C  C23  1  0.13457278  0.98263668  0.64273885  1  -0.076909  0.004298  3.666841  0.005  -0.090106  0.002985  3.910513  0.004  -0.092131  0.003578  3.918555  0.004  -0.071877  -0.088431  0.002496  3.902993  0.003
C  C24  1  0.86622173  0.01665399  0.35742425  1  -0.077117  0.004234  3.666387  0.005  -0.089616  0.002941  3.91023  0.004  -0.091673  0.003517  3.918172  0.004  -0.071601  -0.088009  0.002468  3.902936  0.003
C  C25  1  0.27617758  0.89983301  0.53388040  1  -0.005488  -0.005504  3.688902  -0.004  -0.022204  -0.003001  3.937243  -0.002  -0.01658  -0.004418  3.94723  -0.003  -0.0672  -0.025248  -0.002145  3.928878  -0.001
C  C26  1  0.72413148  0.10010691  0.46570770  1  -0.004903  -0.005385  3.689218  -0.004  -0.021984  -0.0029  3.93775  -0.002  -0.01636  -0.004263  3.947617  -0.003  -0.06693  -0.025102  -0.00212  3.929551  -0.001
C  C27  1  0.33175575  0.99601785  0.41475134  1  -0.094943  0.002799  3.680831  0.003  -0.11866  0.001918  3.926673  0.002  -0.120365  0.002403  3.939305  0.003  -0.06936  -0.117048  0.001491  3.916718  0.002
C  C28  1  0.66774650  0.00462122  0.58501449  1  -0.094708  0.00271  3.680372  0.003  -0.117937  0.001869  3.926296  0.002  -0.119612  0.002336  3.938872  0.003  -0.069295  -0.116322  0.001472  3.916374  0.002
C  C29  1  0.24317950  0.17197591  0.40838315  1  0.082057  -0.003223  3.757219  -0.003  0.086162  -0.001048  3.999644  -0.001  0.089905  -0.002286  4.020494  -0.002  0.105989  0.0844  -0.000357  3.987085  0.0
C  C30  1  0.75626415  0.82863566  0.59222229  1  0.082366  -0.003112  3.756453  -0.002  0.086862  -0.000969  3.998118  -0.001  0.090684  -0.002158  4.018845  -0.002  0.106221  0.085046  -0.000366  3.985608  0.0
C  C31  1  0.29736001  0.28668109  0.28987400  1  0.558339  -0.000338  3.82451  0.0  0.502093  -4.4e-05  4.123973  0.0  0.537684  5.7e-05  4.114137  0.001  0.232167  0.478358  -4.5e-05  4.130905  0.0
C  C32  1  0.70150233  0.71422882  0.71072729  1  0.557837  -0.000354  3.82462  0.0  0.500423  -4.6e-05  4.124774  0.0  0.53596  3.8e-05  4.11483  0.001  0.231387  0.476646  -1e-05  4.13176  0.0
C  C33  1  0.49917970  0.30893055  0.07142576  1  0.161529  6.4e-05  3.566865  0.0  0.105435  0.000195  3.828361  0.0  0.114898  0.000294  3.829936  0.0  -0.069053  0.099329  0.000204  3.826046  0.0
C  C34  1  0.49972287  0.69174085  0.92881607  1  0.161327  7e-05  3.567807  0.0  0.104647  0.000213  3.82884  0.0  0.113955  0.000296  3.83056  0.0  -0.069405  0.09854  0.00023  3.826344  0.0
C  C35  1  0.60586596  0.19815288  0.94642836  1  -0.33737  0.000234  3.716637  0.0  -0.41657  0.000325  3.962923  0.0  -0.419189  0.000441  3.969814  0.0  -0.26112  -0.414069  0.00035  3.957325  0.0
C  C36  1  0.39383885  0.80163429  0.05452659  1  -0.335935  0.000238  3.716004  0.0  -0.414976  0.00036  3.96286  0.0  -0.417675  0.000462  3.969773  0.0  -0.260353  -0.412492  0.000392  3.957327  0.0
Br  Br37  1  0.29302030  0.47012551  0.65062170  1  -0.438674  0.086172  1.207046  0.094  -0.403081  0.065869  1.564901  0.074  -0.434945  0.060581  1.539344  0.071  -0.243028  -0.389909  0.062586  1.585249  0.067
Br  Br38  1  0.71077074  0.52924998  0.34735741  1  -0.437417  0.086573  1.213645  0.094  -0.402115  0.065733  1.572225  0.073  -0.433555  0.061278  1.545934  0.072  -0.241677  -0.388044  0.063023  1.592304  0.068
Br  Br39  1  0.04329116  0.24712028  0.01171441  1  -0.413565  0.037003  1.349043  0.041  -0.365004  0.016256  1.73211  0.019  -0.408251  0.000512  1.714355  0.001  -0.216284  -0.337892  0.02633  1.745639  0.028
Br  Br40  1  0.95756636  0.75242366  0.98584124  1  -0.414326  0.036449  1.346775  0.04  -0.365984  0.015927  1.729551  0.018  -0.40897  0.000441  1.711698  0.001  -0.217121  -0.339106  0.025703  1.743091  0.027
N  N41  1  0.10346144  0.25181428  0.51335902  1  -0.304054  0.032034  3.407258  0.045  -0.245737  0.031471  3.68311  0.044  -0.285314  0.037465  3.714167  0.054  -0.353719  -0.230056  0.026313  3.670467  0.036
N  N42  1  0.89632512  0.74816744  0.48776885  1  -0.304152  0.031987  3.407079  0.044  -0.245147  0.031447  3.6817  0.044  -0.284717  0.037471  3.712883  0.054  -0.353889  -0.229479  0.026273  3.669001  0.036
O  O43  1  0.21581561  0.44269656  0.28423530  1  -0.532133  0.000961  2.09049  0.002  -0.490533  0.003723  2.35284  0.006  -0.51719  0.004237  2.34067  0.008  -0.278911  -0.475893  0.004387  2.362767  0.007
O  O44  1  0.78208056  0.55815352  0.71592805  1  -0.531749  0.000951  2.090326  0.002  -0.489818  0.00375  2.352879  0.006  -0.516273  0.004382  2.340445  0.008  -0.278229  -0.475307  0.004218  2.363054  0.007
O  O45  1  0.44098393  0.20411472  0.19347498  1  -0.303178  -0.00031  2.296299  0.0  -0.219186  -7.1e-05  2.522631  0.0  -0.239632  -0.000143  2.520992  0.0  -0.150547  -0.204574  -3.7e-05  2.522742  0.0
O  O46  1  0.55830229  0.79697123  0.80738798  1  -0.30369  -0.000313  2.294985  0.0  -0.218314  -8.8e-05  2.520642  0.0  -0.23843  -0.000149  2.518787  0.0  -0.150735  -0.203703  -5.7e-05  2.520752  0.0
