# generated using pymatgen
data_CoPH6C6NO3
_symmetry_space_group_name_H-M   'P 1'
_cell_length_a   5.06191487
_cell_length_b   8.42924040
_cell_length_c   8.68259781
_cell_angle_alpha   75.20693963
_cell_angle_beta   86.10060053
_cell_angle_gamma   86.46458326
_symmetry_Int_Tables_number   1
_chemical_formula_structural   CoPH6C6NO3
_chemical_formula_sum   'Co2 P2 H12 C12 N2 O6'
_cell_volume   356.98414911
_cell_formula_units_Z   2
loop_
 _symmetry_equiv_pos_site_id
 _symmetry_equiv_pos_as_xyz
  1  'x, y, z'
loop_
 _atom_site_type_symbol
 _atom_site_label
 _atom_site_symmetry_multiplicity
 _atom_site_fract_x
 _atom_site_fract_y
 _atom_site_fract_z
 _atom_site_occupancy
 _atom_site_hle17_ddec_charge
 _atom_site_hle17_ddec_spin_density
 _atom_site_hle17_ddec_sum_bond_order
 _atom_site_hle17_magmom
 _atom_site_hse06_10hf_ddec_charge
 _atom_site_hse06_10hf_ddec_spin_density
 _atom_site_hse06_10hf_ddec_sum_bond_order
 _atom_site_hse06_10hf_magmom
 _atom_site_hse06_ddec_charge
 _atom_site_hse06_ddec_spin_density
 _atom_site_hse06_ddec_sum_bond_order
 _atom_site_hse06_magmom
 _atom_site_pbe_cm5_charge
 _atom_site_pbe_ddec_charge
 _atom_site_pbe_ddec_spin_density
 _atom_site_pbe_ddec_sum_bond_order
 _atom_site_pbe_magmom
Co  Co0  1  0.71562775  0.86933541  0.65695404  1  1.081068  2.876026  1.968702  2.549  1.040012  2.825878  2.407438  2.604  1.119363  2.873061  2.329707  2.687  0.69131  0.970512  2.782456  2.475492  2.528
Co  Co1  1  0.28437358  0.13066055  0.34304700  1  1.081043  -2.876032  1.968707  -2.549  1.039966  -2.825883  2.40744  -2.604  1.119305  -2.873063  2.329714  -2.687  0.691287  0.970448  -2.782464  2.475496  -2.528
P  P2  1  0.22692153  0.03896930  0.72353167  1  1.478029  9.8e-05  4.868093  -0.004  1.341731  0.003404  5.373911  -0.001  1.395138  0.002419  5.343001  -0.001  0.334757  1.302793  0.003919  5.38982  -0.002
P  P3  1  0.77307556  0.96102905  0.27646778  1  1.478107  -9.4e-05  4.867774  0.004  1.341823  -0.003405  5.373619  0.001  1.395236  -0.002413  5.342702  0.001  0.334772  1.302895  -0.003918  5.389528  0.002
H  H4  1  0.21692748  0.10101245  0.98024396  1  0.152513  -0.000452  0.937003  -0.001  0.165166  -0.000344  0.99351  0.0  0.168225  -0.000221  0.992202  0.0  0.112044  0.163242  -0.000463  0.993886  -0.001
H  H5  1  0.78306765  0.89898587  0.01975442  1  0.15253  0.000451  0.93699  0.001  0.16518  0.000344  0.993518  0.0  0.168239  0.000221  0.992211  0.0  0.112054  0.163255  0.000463  0.993893  0.001
H  H6  1  0.49677816  0.17703651  0.85294672  1  0.15025  0.000209  0.936045  0.0  0.164496  0.000163  0.992233  0.0  0.166719  9.1e-05  0.992466  0.0  0.113819  0.162637  0.000226  0.992521  0.0
H  H7  1  0.50322129  0.82295817  0.14705815  1  0.150255  -0.00021  0.936066  0.0  0.164518  -0.000163  0.992246  0.0  0.166742  -9.2e-05  0.992478  0.0  0.113842  0.162656  -0.000226  0.992535  0.0
H  H8  1  0.42927122  0.43215511  0.61854317  1  0.114362  0.000133  0.949929  0.0  0.127101  0.00029  1.005131  0.0  0.129935  0.000219  1.005067  0.0  0.110023  0.124995  0.000365  1.005558  0.0
H  H9  1  0.57073440  0.56783719  0.38146666  1  0.114329  -0.000132  0.950002  0.0  0.127095  -0.00029  1.005159  0.0  0.129929  -0.000219  1.005093  0.0  0.110015  0.124989  -0.000365  1.005592  0.0
H  H10  1  0.19525235  0.70781907  0.54474465  1  0.092566  0.001265  0.932917  0.002  0.099092  0.001214  1.000037  0.001  0.101841  0.000942  0.996831  0.001  0.121655  0.096813  0.001482  1.002582  0.002
H  H11  1  0.80476219  0.29218336  0.45524516  1  0.092494  -0.001263  0.932926  -0.002  0.099015  -0.001214  1.000063  -0.001  0.101763  -0.000941  0.996857  -0.001  0.121615  0.096715  -0.001482  1.002641  -0.002
H  H12  1  0.60305800  0.56237450  0.89759497  1  0.075572  0.000752  0.954968  0.002  0.084883  0.000512  1.019618  0.001  0.086442  0.00037  1.018277  0.001  0.116323  0.083722  0.000652  1.020669  0.002
H  H13  1  0.39694691  0.43762526  0.10239927  1  0.075618  -0.000751  0.954998  -0.002  0.084928  -0.000512  1.019645  -0.001  0.086486  -0.000369  1.018309  -0.001  0.116383  0.083768  -0.000651  1.020689  -0.002
H  H14  1  0.81497042  0.28135024  0.98844844  1  0.128249  7.6e-05  0.96401  0.0  0.138439  0.000228  1.022545  0.0  0.142716  0.000211  1.02104  0.0  0.108582  0.134877  0.000229  1.024294  0.0
H  H15  1  0.18502452  0.71864930  0.01155195  1  0.128215  -7.7e-05  0.964099  0.0  0.138441  -0.000228  1.0226  0.0  0.142719  -0.000211  1.021091  0.0  0.108567  0.134883  -0.000229  1.024352  0.0
C  C16  1  0.28053188  0.16687769  0.85844837  1  -0.483101  0.001159  3.657647  0.003  -0.500448  0.000618  3.881655  0.002  -0.51179  0.000425  3.887158  0.001  -0.163079  -0.492026  0.000707  3.878381  0.002
C  C17  1  0.71946717  0.83312069  0.14155216  1  -0.48309  -0.001158  3.657771  -0.003  -0.500495  -0.000618  3.88178  -0.002  -0.511852  -0.000426  3.887312  -0.001  -0.163095  -0.492045  -0.000706  3.878467  -0.002
C  C18  1  0.14275174  0.33254486  0.81007404  1  0.212203  -0.013382  3.728345  -0.018  0.227207  -0.002774  3.959496  -0.004  0.237489  -0.001543  3.978209  -0.002  0.017914  0.218788  -0.005299  3.948335  -0.007
C  C19  1  0.85725224  0.66746097  0.18993029  1  0.212215  0.013386  3.728312  0.018  0.227311  0.002774  3.959375  0.004  0.237593  0.001543  3.978089  0.002  0.018014  0.218883  0.0053  3.948221  0.007
C  C20  1  0.24630536  0.45633123  0.68362442  1  -0.174557  0.011584  3.693899  0.016  -0.193201  0.002987  3.94206  0.005  -0.202205  0.002384  3.961923  0.004  -0.084441  -0.188249  0.003542  3.930547  0.006
C  C21  1  0.75369570  0.54366591  0.31638440  1  -0.17457  -0.011586  3.693839  -0.016  -0.19324  -0.002986  3.941949  -0.005  -0.202243  -0.002386  3.961811  -0.004  -0.084492  -0.188292  -0.003542  3.930435  -0.006
C  C22  1  0.11707850  0.60975106  0.64196495  1  0.137445  -0.011765  3.695265  -0.017  0.107782  -0.000534  3.959205  -0.002  0.118097  -0.000308  3.975084  -0.001  0.04678  0.099875  -0.001471  3.948718  -0.003
C  C23  1  0.88292984  0.39025243  0.35803287  1  0.13748  0.011759  3.695359  0.017  0.107802  0.000534  3.959306  0.002  0.118116  0.000307  3.975191  0.001  0.046783  0.099905  0.001471  3.948837  0.003
C  C24  1  0.78664183  0.52720299  0.83948675  1  0.12136  -0.012938  3.743581  -0.018  0.093591  -0.001707  4.005033  -0.003  0.103405  -0.001041  4.022798  -0.002  0.042205  0.086079  -0.003147  3.992782  -0.004
C  C25  1  0.21336644  0.47280177  0.16050501  1  0.121233  0.012939  3.743551  0.018  0.093447  0.001708  4.005038  0.003  0.103264  0.001041  4.0228  0.002  0.042048  0.085938  0.003148  3.992784  0.004
C  C26  1  0.90476086  0.37076211  0.88765585  1  -0.178638  0.010818  3.682027  0.015  -0.195941  0.00224  3.926992  0.003  -0.205293  0.001695  3.945982  0.003  -0.088233  -0.190556  0.002872  3.916212  0.005
C  C27  1  0.09523950  0.62924120  0.11234691  1  -0.178569  -0.010814  3.682176  -0.015  -0.195932  -0.002239  3.927098  -0.003  -0.205282  -0.001693  3.946086  -0.003  -0.088242  -0.190552  -0.002871  3.916327  -0.005
N  N28  1  0.89023076  0.64613680  0.72008269  1  -0.348853  0.051098  3.377543  0.082  -0.30348  0.033101  3.681645  0.046  -0.329472  0.027367  3.69176  0.037  -0.349628  -0.28315  0.037873  3.674123  0.054
N  N29  1  0.10976611  0.35386405  0.27991041  1  -0.34876  -0.051099  3.377383  -0.082  -0.303369  -0.033101  3.68147  -0.046  -0.329351  -0.027365  3.691574  -0.037  -0.349522  -0.283026  -0.037872  3.673917  -0.054
O  O30  1  0.38031328  0.87183699  0.78448166  1  -0.833506  0.053349  1.974955  0.084  -0.779434  0.039649  2.270171  0.057  -0.82144  0.029925  2.251942  0.042  -0.375453  -0.74347  0.049402  2.279588  0.072
O  O31  1  0.61968333  0.12816504  0.21551807  1  -0.833552  -0.053351  1.974938  -0.084  -0.779449  -0.039649  2.2701  -0.057  -0.821454  -0.029929  2.251865  -0.042  -0.375474  -0.743484  -0.049403  2.279514  -0.072
O  O32  1  0.92576886  0.02171974  0.72452132  1  -0.852007  0.051599  2.046219  0.079  -0.798132  0.040632  2.359857  0.056  -0.837998  0.031434  2.334914  0.042  -0.378004  -0.764522  0.048853  2.374688  0.068
O  O33  1  0.07423079  0.97827373  0.27548153  1  -0.852058  -0.051596  2.046156  -0.079  -0.798191  -0.04063  2.3598  -0.056  -0.838054  -0.031436  2.334854  -0.042  -0.378016  -0.764583  -0.048848  2.374638  -0.068
O  O34  1  0.34790102  0.13210255  0.55995957  1  -0.872942  -0.037838  2.092232  -0.054  -0.818862  -0.02859  2.410192  -0.034  -0.861166  -0.022915  2.388419  -0.026  -0.376594  -0.782358  -0.034507  2.422709  -0.043
O  O35  1  0.65207943  0.86790161  0.44004367  1  -0.872932  0.037837  2.092035  0.054  -0.818852  0.02859  2.409964  0.034  -0.86116  0.022916  2.388193  0.026  -0.376522  -0.782355  0.034507  2.42249  0.043
