# generated using pymatgen
data_NiH10C10(NO2)2
_symmetry_space_group_name_H-M   'P 1'
_cell_length_a   6.23798164
_cell_length_b   8.13790292
_cell_length_c   24.84663409
_cell_angle_alpha   90.00176249
_cell_angle_beta   89.99836139
_cell_angle_gamma   87.51160458
_symmetry_Int_Tables_number   1
_chemical_formula_structural   NiH10C10(NO2)2
_chemical_formula_sum   'Ni4 H40 C40 N8 O16'
_cell_volume   1260.12736781
_cell_formula_units_Z   4
loop_
 _symmetry_equiv_pos_site_id
 _symmetry_equiv_pos_as_xyz
  1  'x, y, z'
loop_
 _atom_site_type_symbol
 _atom_site_label
 _atom_site_symmetry_multiplicity
 _atom_site_fract_x
 _atom_site_fract_y
 _atom_site_fract_z
 _atom_site_occupancy
 _atom_site_pbe_bader_charge
 _atom_site_pbe_bader_spin_density
 _atom_site_pbe_cm5_charge
 _atom_site_pbe_ddec_charge
 _atom_site_pbe_ddec_spin_density
 _atom_site_pbe_ddec_sum_bond_order
 _atom_site_pbe_magmom
Ni  Ni0  1  0.07050604  0.80992706  0.73218143  1  1.163304  1.568014  0.627326  0.791079  1.771458  2.357318  1.554
Ni  Ni1  1  0.56741989  0.29530354  0.80894841  1  1.167838  1.565974  0.641533  0.802781  1.773794  2.448947  1.552
Ni  Ni2  1  0.92950913  0.19006705  0.23217359  1  1.163252  1.568017  0.627362  0.790982  1.771476  2.357561  1.554
Ni  Ni3  1  0.43259490  0.70471108  0.30893445  1  1.167678  1.566  0.641572  0.80285  1.773783  2.448732  1.552
H  H4  1  0.15525728  0.67945886  0.89527226  1  0.050629  1.6e-05  0.100122  0.114986  -0.00011  0.991303  0.0
H  H5  1  0.38983035  0.78619366  0.88353394  1  0.058697  0.000182  0.105944  0.129231  -1.7e-05  0.968498  0.0
H  H6  1  0.04131512  0.95804116  0.87809027  1  0.052183  0.004909  0.102856  0.063817  0.002305  0.989005  0.003
H  H7  1  0.81775021  0.92303207  0.80335500  1  0.500465  -0.000178  0.295025  0.301363  6.1e-05  0.991943  0.0
H  H8  1  0.87787328  0.72218106  0.81866282  1  0.454237  0.001548  0.29665  0.292502  0.001208  0.950262  0.0
H  H9  1  0.60968834  0.47408300  0.65223290  1  0.038524  -9.2e-05  0.09845  0.117364  -0.000193  1.00631  0.0
H  H10  1  0.85404593  0.35734807  0.65492410  1  0.069646  0.000307  0.104598  0.125636  7.7e-05  0.971648  0.0
H  H11  1  0.52838189  0.18902947  0.66031316  1  0.059425  0.005005  0.105577  0.064381  0.002376  0.968251  0.003
H  H12  1  0.30841358  0.21016177  0.73656523  1  0.483728  0.000185  0.294931  0.298679  0.000354  0.977041  0.0
H  H13  1  0.35656470  0.41291654  0.72857826  1  0.47526  0.000908  0.294169  0.296798  0.000869  0.962315  0.0
H  H14  1  0.03579950  0.62817594  0.62383245  1  0.132544  0.00129  0.115793  0.093198  0.00049  1.027372  0.001
H  H15  1  0.26816182  0.58138332  0.54242257  1  0.075824  0.000772  0.104008  0.112011  0.000363  1.001662  0.0
H  H16  1  0.73234983  0.88636603  0.61958226  1  0.13428  0.000912  0.108821  0.123509  0.000506  1.031402  0.0
H  H17  1  0.48700791  0.91017579  0.69610402  1  0.137919  0.001336  0.12142  0.095686  0.000275  1.036744  0.001
H  H18  1  0.59800788  0.62472816  0.49446318  1  0.04203  8e-06  0.104599  0.105666  -5e-06  1.001083  0.0
H  H19  1  0.02186323  0.58384921  0.34406471  1  0.141869  0.001398  0.119746  0.09708  0.0003  1.029642  0.001
H  H20  1  0.76854051  0.61098043  0.41958683  1  0.130467  0.000835  0.107778  0.120536  0.000472  1.034661  0.0
H  H21  1  0.21499532  0.93300777  0.49568124  1  0.055926  0.000969  0.104549  0.112299  0.000453  0.998981  0.0
H  H22  1  0.45182760  0.88886056  0.41494551  1  0.137885  0.00168  0.115409  0.09411  0.000681  1.023321  0.001
H  H23  1  0.89049155  0.88136008  0.54344866  1  0.065981  9.3e-05  0.104563  0.104281  6.9e-05  1.002243  0.0
H  H24  1  0.84469772  0.32056574  0.39527463  1  0.050647  1.6e-05  0.100112  0.114917  -0.00011  0.991334  0.0
H  H25  1  0.61012914  0.21381400  0.38351681  1  0.058678  0.000183  0.105934  0.129196  -1.6e-05  0.968539  0.0
H  H26  1  0.95868174  0.04199002  0.37808778  1  0.051685  0.004904  0.102873  0.063823  0.002302  0.988824  0.003
H  H27  1  0.18226926  0.07697099  0.30334525  1  0.500629  -0.00018  0.294979  0.301493  6.1e-05  0.99164  0.0
H  H28  1  0.12214905  0.27783661  0.31865728  1  0.45349  0.001549  0.296684  0.29253  0.001209  0.950038  0.0
H  H29  1  0.39031389  0.52587339  0.15221314  1  0.037749  -9.1e-05  0.098467  0.117474  -0.000193  1.00625  0.0
H  H30  1  0.14594241  0.64262720  0.15491099  1  0.069286  0.000307  0.104598  0.125571  7.7e-05  0.971775  0.0
H  H31  1  0.47163457  0.81093219  0.16029241  1  0.059373  0.005006  0.105689  0.064513  0.002376  0.968018  0.003
H  H32  1  0.69159278  0.78982791  0.23654792  1  0.484848  0.000181  0.294915  0.298618  0.000353  0.977009  0.0
H  H33  1  0.64344366  0.58706021  0.22856533  1  0.475073  0.000908  0.294393  0.297184  0.000868  0.961921  0.0
H  H34  1  0.96421762  0.37180264  0.12382602  1  0.131898  0.001289  0.115752  0.093105  0.000489  1.027258  0.001
H  H35  1  0.73184079  0.41862752  0.04242230  1  0.075765  0.000771  0.103959  0.111964  0.000363  1.001668  0.0
H  H36  1  0.26765976  0.11362711  0.11957244  1  0.134299  0.000912  0.108806  0.123481  0.000506  1.031451  0.0
H  H37  1  0.51298814  0.08979260  0.19609475  1  0.137738  0.001335  0.121366  0.09575  0.000275  1.036634  0.001
H  H38  1  0.40196061  0.37528520  0.99446632  1  0.041815  8e-06  0.104595  0.105661  -5e-06  1.001202  0.0
H  H39  1  0.97815098  0.41615577  0.84407837  1  0.14171  0.001399  0.119819  0.097153  0.0003  1.029332  0.001
H  H40  1  0.23147124  0.38901304  0.91959683  1  0.130488  0.000835  0.107836  0.120602  0.000472  1.034601  0.0
H  H41  1  0.78500002  0.06701135  0.99568279  1  0.056461  0.000969  0.104528  0.112259  0.000453  0.999013  0.0
H  H42  1  0.54817892  0.11118428  0.91495399  1  0.137187  0.001681  0.115506  0.094215  0.000681  1.023294  0.001
H  H43  1  0.10950839  0.11862261  0.04344920  1  0.06558  9.3e-05  0.104517  0.104171  6.9e-05  1.002179  0.0
C  C44  1  0.31685897  0.61143907  0.82273674  1  1.589198  -0.002509  0.21254  0.637385  -0.002962  4.110643  -0.003
C  C45  1  0.24447634  0.74318066  0.86385506  1  -0.058691  0.006742  -0.159318  -0.33769  0.003812  3.906016  0.005
C  C46  1  0.10749037  0.88995552  0.84309713  1  0.320326  0.01072  -0.002552  0.07474  0.006681  3.870528  0.006
C  C47  1  0.24900527  0.00985460  0.81241817  1  1.584153  -0.000747  0.217802  0.574616  -0.001572  4.097067  -0.002
C  C48  1  0.79187661  0.51116065  0.72328286  1  1.585549  -0.000477  0.216165  0.647465  -0.000781  4.104949  -0.001
C  C49  1  0.71302170  0.39733923  0.67894904  1  -0.050897  0.007303  -0.160283  -0.336256  0.004082  3.905573  0.005
C  C50  1  0.59345774  0.24703478  0.69655178  1  0.297051  0.009541  -0.001196  0.071573  0.005967  3.884114  0.005
C  C51  1  0.74924794  0.11748462  0.72304338  1  1.525015  -0.000582  0.214206  0.564352  -0.001474  4.116511  -0.002
C  C52  1  0.19159779  0.68276996  0.62015129  1  0.457489  -0.004237  0.037676  0.078989  -0.004789  3.95954  -0.003
C  C53  1  0.32239786  0.65766663  0.57537032  1  -0.009546  0.003712  -0.09163  -0.193752  0.001882  3.975437  0.003
C  C54  1  0.52102485  0.73353346  0.57195771  1  -0.092261  -0.006889  -0.00046  0.130314  -0.007602  4.049137  -0.004
C  C55  1  0.57943281  0.82744905  0.61667014  1  -0.003946  0.003115  -0.082681  -0.169925  0.001733  3.923631  0.003
C  C56  1  0.44208640  0.84316003  0.66036117  1  0.431483  -0.00468  0.047839  0.099117  -0.005496  3.930024  -0.003
C  C57  1  0.65444476  0.71233072  0.52409627  1  -0.001372  -0.005568  -0.083311  -0.123721  -0.006324  3.962777  -0.003
C  C58  1  0.06020310  0.65650858  0.37930452  1  0.432725  -0.005365  0.046976  0.092849  -0.006165  3.923436  -0.003
C  C59  1  0.91982443  0.67249109  0.42241444  1  0.009078  0.004056  -0.082469  -0.16618  0.002204  3.926444  0.003
C  C60  1  0.97119188  0.77200176  0.46641656  1  -0.088268  -0.007858  -0.001666  0.128081  -0.008682  4.049933  -0.005
C  C61  1  0.16607384  0.85306219  0.46308522  1  -0.030634  0.004213  -0.090071  -0.192811  0.002141  3.977766  0.004
C  C62  1  0.29932375  0.82916227  0.41866849  1  0.47316  -0.00509  0.039316  0.076587  -0.005731  3.956111  -0.003
C  C63  1  0.83548806  0.79316581  0.51382885  1  -0.058024  -0.004091  -0.082722  -0.120887  -0.004672  3.965368  -0.002
C  C64  1  0.68314971  0.38857792  0.32272893  1  1.589216  -0.002506  0.212669  0.637442  -0.002957  4.110788  -0.003
C  C65  1  0.75549632  0.25684619  0.36384992  1  -0.058805  0.006741  -0.159255  -0.337535  0.003812  3.905774  0.005
C  C66  1  0.89244731  0.11004089  0.34309438  1  0.320971  0.010713  -0.002545  0.074886  0.006675  3.869752  0.006
C  C67  1  0.75101555  0.99014788  0.31241412  1  1.583767  -0.000753  0.217656  0.574414  -0.001576  4.097275  -0.002
C  C68  1  0.20811835  0.48881840  0.22327619  1  1.585035  -0.00048  0.215967  0.647158  -0.000784  4.104924  -0.001
C  C69  1  0.28696801  0.60263905  0.17893442  1  -0.049873  0.007308  -0.160352  -0.336356  0.004086  3.905537  0.005
C  C70  1  0.40652623  0.75296212  0.19653725  1  0.297295  0.009543  -0.001401  0.07136  0.005968  3.883951  0.005
C  C71  1  0.25074498  0.88251288  0.22302707  1  1.525254  -0.000578  0.214115  0.564231  -0.001472  4.117062  -0.002
C  C72  1  0.80839613  0.31720507  0.12014199  1  0.457751  -0.004242  0.037694  0.07903  -0.004796  3.958844  -0.003
C  C73  1  0.67756628  0.34232892  0.07536194  1  -0.00918  0.003713  -0.091674  -0.193886  0.001882  3.975468  0.003
C  C74  1  0.47896204  0.26647740  0.07194988  1  -0.093169  -0.00689  -0.000402  0.1304  -0.007603  4.049986  -0.004
C  C75  1  0.42057244  0.17254887  0.11665801  1  -0.004095  0.003116  -0.082682  -0.169778  0.001734  3.923808  0.003
C  C76  1  0.55791815  0.15682643  0.16035025  1  0.432009  -0.004682  0.047824  0.098794  -0.005496  3.929832  -0.003
C  C77  1  0.34557620  0.28767473  0.02409816  1  -0.002415  -0.005562  -0.083281  -0.12362  -0.006317  3.963526  -0.003
C  C78  1  0.93979397  0.34350548  0.87931894  1  0.432254  -0.005364  0.046886  0.0929  -0.006165  3.923558  -0.003
C  C79  1  0.08016384  0.32751898  0.92242069  1  0.008415  0.004054  -0.082399  -0.166258  0.002202  3.92674  0.003
C  C80  1  0.02879854  0.22800788  0.96642284  1  -0.088099  -0.007861  -0.001746  0.12781  -0.008686  4.049267  -0.005
C  C81  1  0.83389150  0.14695133  0.96308487  1  -0.031465  0.004211  -0.090046  -0.192598  0.00214  3.977834  0.004
C  C82  1  0.70066657  0.17085977  0.91867790  1  0.474212  -0.005083  0.039156  0.076267  -0.005723  3.956983  -0.003
C  C83  1  0.16454311  0.20683747  0.01383403  1  -0.055879  -0.004098  -0.082665  -0.12073  -0.004681  3.964952  -0.002
N  N84  1  0.93712647  0.83265389  0.80776541  1  -1.176778  0.08686  -0.632123  -0.604307  0.048776  3.429364  0.069
N  N85  1  0.42285406  0.29692466  0.73475216  1  -1.162504  0.088102  -0.635046  -0.606249  0.049563  3.429688  0.07
N  N86  1  0.24885410  0.77563385  0.66235312  1  -1.204239  0.051018  -0.323769  -0.220481  0.029727  3.542445  0.046
N  N87  1  0.24861007  0.73144944  0.37713513  1  -1.18994  0.056143  -0.325346  -0.210874  0.032845  3.547174  0.051
N  N88  1  0.06286614  0.16735980  0.30775576  1  -1.176053  0.086871  -0.632245  -0.604761  0.048788  3.428313  0.069
N  N89  1  0.57714476  0.70306133  0.23473554  1  -1.163503  0.088135  -0.635218  -0.606535  0.049583  3.429266  0.07
N  N90  1  0.75117109  0.22434502  0.16235120  1  -1.203719  0.051003  -0.323684  -0.22023  0.02972  3.541856  0.046
N  N91  1  0.75138728  0.26857059  0.87715091  1  -1.189267  0.056161  -0.325323  -0.210666  0.032857  3.547455  0.051
O  O92  1  0.28660405  0.62792522  0.77246286  1  -1.154455  0.070902  -0.297975  -0.538464  0.039083  2.262161  0.065
O  O93  1  0.40767740  0.48582485  0.84513893  1  -1.158368  0.07073  -0.322611  -0.566741  0.039778  2.388566  0.065
O  O94  1  0.25581611  0.99677437  0.76121094  1  -1.158358  0.068131  -0.299418  -0.52449  0.037612  2.363932  0.063
O  O95  1  0.35187132  0.11071965  0.84001723  1  -1.15801  0.070773  -0.300388  -0.542491  0.039313  2.306226  0.064
O  O96  1  0.87327121  0.63872423  0.70351512  1  -1.166433  0.071885  -0.318565  -0.565794  0.040174  2.410067  0.066
O  O97  1  0.77665522  0.47860277  0.77302502  1  -1.14931  0.067844  -0.30007  -0.542876  0.037602  2.261758  0.062
O  O98  1  0.86358514  0.02189730  0.69368822  1  -1.162275  0.065645  -0.306775  -0.544178  0.036327  2.222966  0.058
O  O99  1  0.75099008  0.11672229  0.77444430  1  -1.09957  0.074558  -0.305972  -0.52501  0.041145  2.435359  0.069
O  O100  1  0.71338820  0.37207477  0.27245197  1  -1.154827  0.070923  -0.29806  -0.538621  0.039098  2.26192  0.065
O  O101  1  0.59236490  0.51420061  0.34512436  1  -1.157667  0.070707  -0.322659  -0.566648  0.039769  2.388863  0.065
O  O102  1  0.74420476  0.00320215  0.26120748  1  -1.158462  0.068133  -0.299316  -0.524321  0.037612  2.363644  0.063
O  O103  1  0.64815647  0.88928847  0.34000604  1  -1.157686  0.070768  -0.300296  -0.542334  0.039312  2.306206  0.064
O  O104  1  0.12671161  0.36126215  0.20350296  1  -1.166439  0.071907  -0.318564  -0.565665  0.040184  2.409931  0.066
O  O105  1  0.22337074  0.52139176  0.27301471  1  -1.148716  0.067827  -0.299879  -0.542636  0.037595  2.262115  0.062
O  O106  1  0.13643829  0.97808518  0.19366965  1  -1.162572  0.065637  -0.306842  -0.544244  0.036322  2.22325  0.058
O  O107  1  0.24903355  0.88328836  0.27442639  1  -1.099624  0.074561  -0.305664  -0.524663  0.041146  2.435354  0.069
