# generated using pymatgen
data_Zn4H12C26S4O15
_symmetry_space_group_name_H-M   'P 1'
_cell_length_a   19.67137166
_cell_length_b   19.66117324
_cell_length_c   33.38771519
_cell_angle_alpha   79.16281525
_cell_angle_beta   79.13236967
_cell_angle_gamma   63.90984042
_symmetry_Int_Tables_number   1
_chemical_formula_structural   Zn4H12C26S4O15
_chemical_formula_sum   'Zn16 H48 C104 S16 O60'
_cell_volume   11308.15678515
_cell_formula_units_Z   4
loop_
 _symmetry_equiv_pos_site_id
 _symmetry_equiv_pos_as_xyz
  1  'x, y, z'
loop_
 _atom_site_type_symbol
 _atom_site_label
 _atom_site_symmetry_multiplicity
 _atom_site_fract_x
 _atom_site_fract_y
 _atom_site_fract_z
 _atom_site_occupancy
 _atom_site_pbe_bader_charge
 _atom_site_pbe_bader_spin_density
 _atom_site_pbe_cm5_charge
 _atom_site_pbe_ddec_charge
 _atom_site_pbe_ddec_spin_density
 _atom_site_pbe_ddec_sum_bond_order
 _atom_site_pbe_magmom
Zn  Zn0  1  0.05693510  0.39890058  0.47815213  1  1.3247  0  0.677381  0.97583  0  2.352204  0
Zn  Zn1  1  0.98407709  0.48294910  0.55993493  1  1.319554  0  0.67479  0.95157  0  2.400565  0
Zn  Zn2  1  0.05877796  0.56019997  0.48254406  1  1.315049  0  0.671945  0.955362  0  2.387023  0
Zn  Zn3  1  0.90161967  0.55469059  0.47930817  1  1.310558  0  0.672126  0.95576  0  2.388952  0
Zn  Zn4  1  0.69316361  0.35057769  0.27171935  1  1.324075  0  0.676912  0.974628  0  2.352242  0
Zn  Zn5  1  0.68870875  0.18929327  0.26721765  1  1.317042  0  0.676542  0.970468  0  2.36079  0
Zn  Zn6  1  0.76775473  0.26671019  0.19066803  1  1.307189  0  0.671073  0.953897  0  2.383914  0
Zn  Zn7  1  0.84679031  0.19438931  0.27163002  1  1.312942  0  0.671189  0.951438  0  2.391301  0
Zn  Zn8  1  0.26736555  0.76695974  0.68905593  1  1.308128  0  0.675968  0.966629  0  2.368964  0
Zn  Zn9  1  0.34947995  0.69532097  0.77122824  1  1.320307  0  0.675435  0.962223  0  2.378094  0
Zn  Zn10  1  0.19341942  0.84867071  0.77125878  1  1.314062  0  0.672757  0.966615  0  2.363986  0
Zn  Zn11  1  0.19173514  0.68956152  0.76718788  1  1.311888  0  0.671161  0.953953  0  2.385617  0
Zn  Zn12  1  0.56036012  0.06120755  0.98287243  1  1.318205  0  0.676005  0.969317  0  2.360906  0
Zn  Zn13  1  0.40031159  0.05615948  0.97813051  1  1.319684  0  0.676033  0.966038  0  2.366719  0
Zn  Zn14  1  0.55599670  0.90199311  0.97875471  1  1.311435  0  0.672119  0.964731  0  2.36897  0
Zn  Zn15  1  0.48218644  0.98314147  0.05963098  1  1.314796  0  0.671672  0.960377  0  2.373377  0
H  H16  1  0.74812709  0.45363390  0.35068523  1  0.111408  0  0.116561  0.14158  0  0.976806  0
H  H17  1  0.00186206  0.29650957  0.39911345  1  0.113963  0  0.116416  0.141299  0  0.976926  0
H  H18  1  0.20073055  0.70032718  0.59784014  1  0.110205  0  0.115756  0.140568  0  0.978352  0
H  H19  1  0.04925046  0.54959003  0.65218937  1  0.10542  0  0.114145  0.138069  0  0.98196  0
H  H20  1  0.46321471  0.23926515  0.34089249  1  0.130326  0  0.121381  0.147097  0  0.968459  0
H  H21  1  0.47900056  0.70265023  0.60121506  1  0.113819  0  0.122035  0.148251  0  0.96706  0
H  H22  1  0.20296346  0.97847574  0.60150083  1  0.107466  0  0.12156  0.14796  0  0.967672  0
H  H23  1  0.94945755  0.97045515  0.34809954  1  0.12825  0  0.12079  0.145981  0  0.969419  0
H  H24  1  0.65208874  0.15237699  0.04945127  1  0.104093  0  0.115463  0.140084  0  0.979461  0
H  H25  1  0.59800596  0.09764833  0.20048000  1  0.10742  0  0.116025  0.140466  0  0.979275  0
H  H26  1  0.54712643  0.77160747  0.14854693  1  0.109673  0  0.121741  0.147891  0  0.966881  0
H  H27  1  0.16271146  0.14144305  0.04013817  1  0.134172  0  0.12159  0.147432  0  0.968073  0
H  H28  1  0.29666837  0.00185934  0.89930099  1  0.110936  0  0.115604  0.140453  0  0.978155  0
H  H29  1  0.45361573  0.74814173  0.85065105  1  0.108844  0  0.11488  0.139244  0  0.979756  0
H  H30  1  0.30044452  0.27955870  0.90207604  1  0.130935  0  0.121325  0.147022  0  0.968384  0
H  H31  1  0.78641248  0.01067836  0.90919139  1  0.132615  0  0.121756  0.147683  0  0.96765  0
H  H32  1  0.80941015  0.52721719  0.41848213  1  0.640865  0  0.30484  0.354101  0  0.969651  0
H  H33  1  0.94020368  0.22275812  0.33155137  1  0.639363  0  0.305058  0.354557  0  0.970002  0
H  H34  1  0.13569789  0.63603977  0.52721792  1  0.624991  0  0.305786  0.355541  0  0.966371  0
H  H35  1  0.11421858  0.61396812  0.72280548  1  0.622945  0  0.305563  0.355789  0  0.966581  0
H  H36  1  0.72308543  0.22265087  0.11410512  1  0.626001  0  0.305411  0.354955  0  0.967891  0
H  H37  1  0.52707817  0.02719895  0.13601081  1  0.625215  0  0.305803  0.355474  0  0.966251  0
H  H38  1  0.22267313  0.94070241  0.83168697  1  0.642075  0  0.306386  0.356684  0  0.964594  0
H  H39  1  0.52753345  0.80912917  0.91837433  1  0.641931  0  0.306067  0.356296  0  0.965487  0
H  H40  1  0.23135151  0.57593986  0.39915957  1  0.07809  0  0.102013  0.147614  0  0.976969  0
H  H41  1  0.33076218  0.55137290  0.39679955  1  0.05321  0  0.092031  0.129546  0  0.997705  0
H  H42  1  0.27647927  0.53614228  0.44401889  1  0.095678  0  0.102486  0.148483  0  0.976225  0
H  H43  1  0.82132757  0.47685571  0.65344129  1  0.074775  0  0.100987  0.144852  0  0.982482  0
H  H44  1  0.75722342  0.53672383  0.69086913  1  0.032008  0  0.091376  0.128493  0  0.998543  0
H  H45  1  0.82401917  0.56418970  0.65591568  1  0.077081  0  0.103575  0.150132  0  0.973835  0
H  H46  1  0.06436235  0.32369630  0.65619233  1  0.082837  0  0.103314  0.149341  0  0.974009  0
H  H47  1  0.03651909  0.25709104  0.69109239  1  0.025873  0  0.091713  0.128843  0  0.99865  0
H  H48  1  0.97703007  0.32124787  0.65356712  1  0.072873  0  0.100339  0.143644  0  0.983299  0
H  H49  1  0.79791472  0.72206050  0.38959326  1  0.074267  0  0.103273  0.150161  0  0.974749  0
H  H50  1  0.73182758  0.82005802  0.38630237  1  0.048216  0  0.092641  0.130688  0  0.996766  0
H  H51  1  0.75847214  0.76655378  0.43471408  1  0.098666  0  0.102806  0.148691  0  0.976766  0
H  H52  1  0.77290382  0.42882643  0.09639903  1  0.078895  0  0.102459  0.147959  0  0.976911  0
H  H53  1  0.71340437  0.49296684  0.05889133  1  0.025909  0  0.091974  0.129288  0  0.997977  0
H  H54  1  0.68559959  0.42635468  0.09373435  1  0.081849  0  0.103033  0.14931  0  0.974832  0
H  H55  1  0.07238413  0.14836191  0.23997151  1  0.059876  0  0.103443  0.149816  0  0.975464  0
H  H56  1  0.15773526  0.06961393  0.22403394  1  0.02825  0  0.092373  0.129896  0  0.997712  0
H  H57  1  0.06922718  0.06122181  0.23744366  1  0.078914  0  0.102259  0.147588  0  0.976639  0
H  H58  1  0.49159408  0.48311703  0.81518525  1  0.095598  0  0.102792  0.148563  0  0.976488  0
H  H59  1  0.51786954  0.43016641  0.86377321  1  0.050075  0  0.092105  0.129374  0  0.998534  0
H  H60  1  0.45171851  0.52819809  0.86007821  1  0.070395  0  0.103587  0.150076  0  0.973393  0
H  H61  1  0.97339430  0.71409672  0.80585145  1  0.09078  0  0.102568  0.148612  0  0.975625  0
H  H62  1  0.91947974  0.69848646  0.85314832  1  0.038472  0  0.091877  0.12944  0  0.997473  0
H  H63  1  0.01883446  0.67429759  0.85060991  1  0.084772  0  0.102525  0.148447  0  0.976528  0
C  C64  1  0.06157777  0.31533425  0.56162043  1  1.555742  0  0.216432  0.615536  0  4.215039  0
C  C65  1  0.06908882  0.56946429  0.57010010  1  1.512711  0  0.227692  0.615165  0  4.138726  0
C  C66  1  0.18436979  0.43861060  0.43867717  1  1.518122  0  0.215505  0.615831  0  4.213812  0
C  C67  1  0.93835099  0.68418885  0.43864711  1  1.5387  0  0.215346  0.615821  0  4.207856  0
C  C68  1  0.93086839  0.42954498  0.43031559  1  1.514929  0  0.229554  0.619155  0  4.136347  0
C  C69  1  0.81587984  0.56146588  0.56146499  1  1.566136  0  0.21493  0.613068  0  4.2157  0
C  C70  1  0.56517130  0.31103508  0.31157126  1  1.564913  0  0.218557  0.612265  0  4.215925  0
C  C71  1  0.68029819  0.17960344  0.18069976  1  1.507554  0  0.229185  0.617873  0  4.137345  0
C  C72  1  0.68844443  0.43452988  0.18841221  1  1.560023  0  0.216035  0.615139  0  4.212592  0
C  C73  1  0.93415848  0.18868791  0.18872621  1  1.537046  0  0.215797  0.614738  0  4.211263  0
C  C74  1  0.81888247  0.32046680  0.31962899  1  1.511279  0  0.229453  0.619694  0  4.13721  0
C  C75  1  0.81211689  0.06531718  0.31159852  1  1.543244  0  0.218536  0.612062  0  4.212995  0
C  C76  1  0.43453287  0.68863601  0.68805856  1  1.56416  0  0.218565  0.612404  0  4.215434  0
C  C77  1  0.32044658  0.81908855  0.81962677  1  1.509665  0  0.229023  0.618559  0  4.137606  0
C  C78  1  0.18895070  0.93410562  0.68826900  1  1.558996  0  0.217757  0.611475  0  4.21757  0
C  C79  1  0.06565485  0.81134257  0.81137216  1  1.516576  0  0.2156  0.61523  0  4.210161  0
C  C80  1  0.18087502  0.68051141  0.67991685  1  1.51405  0  0.229464  0.617232  0  4.137714  0
C  C81  1  0.31150120  0.56575001  0.81132129  1  1.518873  0  0.214961  0.615013  0  4.211293  0
C  C82  1  0.43778374  0.18468265  0.93842680  1  1.545208  0  0.218678  0.611228  0  4.215371  0
C  C83  1  0.42979079  0.93084959  0.93037320  1  1.509375  0  0.229933  0.619267  0  4.137426  0
C  C84  1  0.68438606  0.93897439  0.93845354  1  1.570301  0  0.218157  0.611966  0  4.214119  0
C  C85  1  0.56119277  0.81613534  0.06169145  1  1.555068  0  0.216843  0.60985  0  4.215194  0
C  C86  1  0.56996887  0.07017877  0.06927120  1  1.509102  0  0.228803  0.616717  0  4.13894  0
C  C87  1  0.31515044  0.06194491  0.06134613  1  1.527612  0  0.21785  0.611005  0  4.215228  0
C  C88  1  0.90131904  0.40267570  0.40179732  1  -0.02025  0  -0.03036  -0.159621  0  3.99859  0
C  C89  1  0.84876057  0.34759950  0.34787125  1  -0.025419  0  -0.030516  -0.160445  0  3.998641  0
C  C90  1  0.82853152  0.44802421  0.38794008  1  0.518283  0  0.081418  0.288984  0  4.078644  0
C  C91  1  0.92162049  0.30234119  0.36166682  1  0.519703  0  0.080927  0.289367  0  4.078792  0
C  C92  1  0.80377840  0.41935326  0.36125223  1  0.054414  0  -0.094568  -0.189618  0  3.943998  0
C  C93  1  0.94631887  0.33092025  0.38841551  1  0.038774  0  -0.093958  -0.189255  0  3.944416  0
C  C94  1  0.09828155  0.59836063  0.59778262  1  0.018739  0  -0.030805  -0.15807  0  4.000765  0
C  C95  1  0.15165845  0.65158258  0.65223804  1  0.069305  0  -0.030008  -0.158036  0  3.999754  0
C  C96  1  0.14179724  0.64150509  0.58204678  1  0.497197  0  0.081563  0.289214  0  4.079755  0
C  C97  1  0.10816094  0.60843305  0.66798325  1  0.497531  0  0.08077  0.288907  0  4.081618  0
C  C98  1  0.16756055  0.66725132  0.60969527  1  -0.021072  0  -0.093927  -0.18928  0  3.944762  0
C  C99  1  0.08242272  0.58266544  0.64033705  1  0.02394  0  -0.09555  -0.192198  0  3.949448  0
C  C100  1  0.30356691  0.45568535  0.40135739  1  0.08555  0  -0.001939  0.146619  0  3.967798  0
C  C101  1  0.44580396  0.29613288  0.34896874  1  0.03616  0  -0.087193  -0.131858  0  3.963041  0
C  C102  1  0.25887317  0.41481670  0.41386309  1  -0.143919  0  -0.028987  -0.19772  0  3.941961  0
C  C103  1  0.49043761  0.33635509  0.33652407  1  -0.163077  0  -0.025556  -0.120497  0  3.988071  0
C  C104  1  0.37761698  0.33893674  0.37261741  1  -0.156591  0  -0.022119  -0.002421  0  4.095123  0
C  C105  1  0.37142343  0.41120777  0.37774513  1  -0.18947  0  -0.022568  -0.080542  0  4.045064  0
C  C106  1  0.72740116  0.57529084  0.62951151  1  0.080073  0  -0.002585  0.145925  0  3.967816  0
C  C107  1  0.52418480  0.67359491  0.62092580  1  0.067707  0  -0.087281  -0.13213  0  3.962836  0
C  C108  1  0.74186482  0.58580106  0.58675471  1  -0.162108  0  -0.028987  -0.196114  0  3.940572  0
C  C109  1  0.50948259  0.66340581  0.66332176  1  -0.157675  0  -0.025666  -0.120617  0  3.98951  0
C  C110  1  0.60333536  0.64176542  0.60823204  1  -0.173912  0  -0.021891  -0.002325  0  4.094088  0
C  C111  1  0.64766031  0.60780172  0.64124454  1  -0.172462  0  -0.022596  -0.080335  0  4.04512  0
C  C112  1  0.07541966  0.22703171  0.62974880  1  -0.005067  0  -0.002905  0.144558  0  3.969523  0
C  C113  1  0.17395501  0.02371250  0.62121197  1  0.036561  0  -0.087014  -0.13222  0  3.963495  0
C  C114  1  0.08594611  0.24133820  0.58698404  1  -0.074082  0  -0.028579  -0.196  0  3.940825  0
C  C115  1  0.16376786  0.00909123  0.66361668  1  -0.086576  0  -0.025689  -0.120424  0  3.990478  0
C  C116  1  0.14206641  0.10284898  0.60851422  1  -0.197539  0  -0.022617  -0.004034  0  4.095493  0
C  C117  1  0.10801360  0.14727556  0.64152001  1  -0.163493  0  -0.022708  -0.080219  0  4.044883  0
C  C118  1  0.84340831  0.79961777  0.39746707  1  0.112598  0  -0.001406  0.147851  0  3.96663  0
C  C119  1  0.90539066  0.94959081  0.35266983  1  0.09471  0  -0.0876  -0.131769  0  3.962464  0
C  C120  1  0.91275578  0.75852882  0.41363252  1  -0.172056  0  -0.029067  -0.197786  0  3.939108  0
C  C121  1  0.83666081  0.99057217  0.33657178  1  -0.210288  0  -0.025561  -0.120522  0  3.988583  0
C  C122  1  0.90861403  0.87990267  0.37487406  1  -0.20565  0  -0.021934  -0.002839  0  4.091441  0
C  C123  1  0.84212383  0.86899406  0.37534250  1  -0.161671  0  -0.021988  -0.079935  0  4.041072  0
C  C124  1  0.65237196  0.15218619  0.15161985  1  -0.018877  0  -0.02995  -0.158473  0  4.000524  0
C  C125  1  0.59773869  0.09782518  0.09831628  1  -0.026262  0  -0.029894  -0.158894  0  3.997919  0
C  C126  1  0.66791149  0.16814225  0.10830836  1  0.583785  0  0.080877  0.2885  0  4.081672  0
C  C127  1  0.58207799  0.08202424  0.14163910  1  0.590965  0  0.081801  0.289828  0  4.08058  0
C  C128  1  0.64025211  0.14047601  0.08256217  1  -0.006654  0  -0.094171  -0.189364  0  3.946817  0
C  C129  1  0.60981906  0.10961034  0.16737402  1  -0.012409  0  -0.094339  -0.189472  0  3.947865  0
C  C130  1  0.67446220  0.52300515  0.12025250  1  0.059284  0  -0.002258  0.145554  0  3.968719  0
C  C131  1  0.57613036  0.72641773  0.12879755  1  -7.5e-05  0  -0.086732  -0.131097  0  3.960382  0
C  C132  1  0.66392746  0.50859602  0.16302179  1  -0.143389  0  -0.028116  -0.195485  0  3.93634  0
C  C133  1  0.58632417  0.74113102  0.08637914  1  -0.08183  0  -0.025549  -0.120959  0  3.986852  0
C  C134  1  0.60792269  0.64725823  0.14151693  1  -0.165377  0  -0.02188  -0.002961  0  4.092536  0
C  C135  1  0.64192315  0.60281729  0.10851388  1  -0.163275  0  -0.022571  -0.080272  0  4.042163  0
C  C136  1  0.08059486  0.12439202  0.17848392  1  0.022735  0  -0.001341  0.14721  0  3.967062  0
C  C137  1  0.16961899  0.12525885  0.07260206  1  0.072165  0  -0.087301  -0.132358  0  3.961456  0
C  C138  1  0.00919705  0.16350038  0.16435011  1  -0.118651  0  -0.029163  -0.196591  0  3.93654  0
C  C139  1  0.24056204  0.08661450  0.08649024  1  -0.163076  0  -0.025091  -0.119734  0  3.986479  0
C  C140  1  0.11087806  0.13939137  0.10578465  1  -0.242723  0  -0.022171  -0.001764  0  4.09054  0
C  C141  1  0.13811449  0.11114678  0.14448473  1  -0.167238  0  -0.022197  -0.080547  0  4.043138  0
C  C142  1  0.34755776  0.84877341  0.84798508  1  -0.031555  0  -0.030802  -0.160309  0  3.999033  0
C  C143  1  0.40275608  0.90124502  0.90194368  1  -0.019438  0  -0.03067  -0.159796  0  3.998394  0
C  C144  1  0.30233759  0.92160996  0.86187475  1  0.523968  0  0.082454  0.290644  0  4.080336  0
C  C145  1  0.44799277  0.82840053  0.88805547  1  0.51916  0  0.081845  0.28994  0  4.079458  0
C  C146  1  0.33101519  0.94627186  0.88860939  1  0.048902  0  -0.094828  -0.19027  0  3.944431  0
C  C147  1  0.41929175  0.80374627  0.86133213  1  0.054415  0  -0.095455  -0.190843  0  3.947296  0
C  C148  1  0.40649599  0.45031725  0.85244846  1  0.067093  0  -0.00172  0.147017  0  3.96814  0
C  C149  1  0.34449298  0.30045302  0.89742783  1  0.087984  0  -0.087684  -0.132492  0  3.962189  0
C  C150  1  0.33712744  0.49137038  0.83630296  1  -0.105377  0  -0.02925  -0.197981  0  3.940241  0
C  C151  1  0.41322972  0.25948857  0.91350743  1  -0.207113  0  -0.024901  -0.118815  0  3.987692  0
C  C152  1  0.34133636  0.37004759  0.87514054  1  -0.204206  0  -0.021645  -0.001938  0  4.091215  0
C  C153  1  0.40783716  0.38095375  0.87461011  1  -0.162644  0  -0.022396  -0.080261  0  4.042111  0
C  C154  1  0.94624673  0.79442961  0.84859789  1  0.044258  0  -0.001578  0.147345  0  3.966844  0
C  C155  1  0.80381886  0.95383770  0.90107503  1  0.042306  0  -0.0865  -0.130911  0  3.959675  0
C  C156  1  0.99103583  0.83523401  0.83617596  1  -0.140433  0  -0.028653  -0.196866  0  3.936744  0
C  C157  1  0.75917565  0.91361031  0.91350154  1  -0.172963  0  -0.025273  -0.120664  0  3.986205  0
C  C158  1  0.87206046  0.91107837  0.87741260  1  -0.138224  0  -0.022005  -0.002487  0  4.091704  0
C  C159  1  0.87831528  0.83881894  0.87221528  1  -0.15189  0  -0.022446  -0.080481  0  4.042927  0
C  C160  1  0.28480205  0.53397319  0.41073940  1  -0.081354  0  -0.230994  -0.395553  0  3.958041  0
C  C161  1  0.78536591  0.53623065  0.65917681  1  -0.055693  0  -0.231068  -0.395522  0  3.960739  0
C  C162  1  0.03629679  0.28513971  0.65939059  1  -0.039528  0  -0.231324  -0.394413  0  3.961602  0
C  C163  1  0.77928482  0.77608159  0.40217639  1  -0.09831  0  -0.231003  -0.397296  0  3.957247  0
C  C164  1  0.71363460  0.46492882  0.09059381  1  -0.038107  0  -0.230944  -0.395216  0  3.957931  0
C  C165  1  0.09613247  0.09943030  0.22229315  1  -0.027149  0  -0.23158  -0.396091  0  3.958749  0
C  C166  1  0.47054594  0.47393400  0.84771922  1  -0.09266  0  -0.231624  -0.396889  0  3.959081  0
C  C167  1  0.96522835  0.71614637  0.83913854  1  -0.066157  0  -0.231008  -0.396044  0  3.957397  0
S  S168  1  0.29891451  0.32485503  0.39712906  1  0.273493  0  0.076241  0.117526  0  2.755396  0
S  S169  1  0.45001131  0.42599701  0.35333097  1  0.250753  0  0.081966  0.123101  0  2.7643  0
S  S170  1  0.66017138  0.63392148  0.56183743  1  0.265204  0  0.0766  0.117457  0  2.75497  0
S  S171  1  0.59128526  0.61533767  0.68791930  1  0.25301  0  0.080183  0.120439  0  2.765959  0
S  S172  1  0.13422352  0.15955618  0.56210133  1  0.255987  0  0.078073  0.120142  0  2.753392  0
S  S173  1  0.11558690  0.09097313  0.68820344  1  0.249916  0  0.081463  0.122663  0  2.763406  0
S  S174  1  0.97424738  0.80376877  0.40201912  1  0.261134  0  0.074653  0.115553  0  2.752505  0
S  S175  1  0.77582897  0.94494444  0.34828227  1  0.275104  0  0.083259  0.12484  0  2.762164  0
S  S176  1  0.61570905  0.59042831  0.18791661  1  0.255  0  0.077273  0.118784  0  2.750567  0
S  S177  1  0.63445624  0.65915912  0.06182422  1  0.252081  0  0.081701  0.122991  0  2.75994  0
S  S178  1  0.01281891  0.18312912  0.11100047  1  0.303603  0  0.075679  0.115778  0  2.751296  0
S  S179  1  0.23633575  0.06719801  0.13970459  1  0.261448  0  0.08239  0.123618  0  2.761466  0
S  S180  1  0.27566283  0.44611245  0.84798606  1  0.261665  0  0.073957  0.114422  0  2.753325  0
S  S181  1  0.47415244  0.30501703  0.90167832  1  0.272764  0  0.081668  0.122416  0  2.763234  0
S  S182  1  0.95085572  0.92516250  0.85300354  1  0.25878  0  0.076631  0.117952  0  2.750895  0
S  S183  1  0.79972927  0.82397047  0.89662786  1  0.248779  0  0.08203  0.123311  0  2.761216  0
O  O184  1  0.00079230  0.49835408  0.49979972  1  -1.234893  0  -0.572097  -1.024602  0  2.543217  0
O  O185  1  0.07811947  0.31438707  0.52264600  1  -1.184945  0  -0.32152  -0.550595  0  2.336758  0
O  O186  1  0.03074847  0.53107840  0.58594153  1  -1.166287  0  -0.309121  -0.531146  0  2.339917  0
O  O187  1  0.15598118  0.50480169  0.45075301  1  -1.175377  0  -0.313837  -0.539492  0  2.352172  0
O  O188  1  0.02585596  0.37460369  0.58052540  1  -1.174297  0  -0.313436  -0.538409  0  2.353609  0
O  O189  1  0.15384136  0.39110712  0.44621029  1  -1.155965  0  -0.322026  -0.551517  0  2.337206  0
O  O190  1  0.08466051  0.58542937  0.53094619  1  -1.183515  0  -0.309751  -0.55704  0  2.366814  0
O  O191  1  0.00482889  0.65776308  0.45031245  1  -1.174975  0  -0.325503  -0.55438  0  2.335995  0
O  O192  1  0.88724696  0.49623693  0.44201768  1  -1.179786  0  -0.312133  -0.560055  0  2.37331  0
O  O193  1  0.89266561  0.65169601  0.44687907  1  -1.156023  0  -0.311523  -0.537848  0  2.346072  0
O  O194  1  0.99613101  0.38673275  0.44167550  1  -1.168459  0  -0.30645  -0.529679  0  2.332993  0
O  O195  1  0.87519126  0.52593819  0.58023163  1  -1.178487  0  -0.31151  -0.536413  0  2.35277  0
O  O196  1  0.81495034  0.57795314  0.52243186  1  -1.17904  0  -0.324877  -0.55287  0  2.338399  0
O  O197  1  0.74818671  0.25065012  0.25058377  1  -1.222182  0  -0.571131  -1.02559  0  2.533376  0
O  O198  1  0.59606422  0.35817742  0.30346954  1  -1.181562  0  -0.320381  -0.549866  0  2.340002  0
O  O199  1  0.66464692  0.16361167  0.21902326  1  -1.175918  0  -0.307628  -0.530967  0  2.336155  0
O  O200  1  0.72394293  0.37507876  0.16961948  1  -1.175396  0  -0.313045  -0.538486  0  2.348349  0
O  O201  1  0.59249889  0.24447768  0.30025686  1  -1.169926  0  -0.317487  -0.540338  0  2.315457  0
O  O202  1  0.67227313  0.43548807  0.22741981  1  -1.182564  0  -0.321445  -0.550842  0  2.334969  0
O  O203  1  0.71956958  0.21872077  0.16487531  1  -1.164598  0  -0.310813  -0.558184  0  2.368762  0
O  O204  1  0.87595928  0.22390392  0.16881200  1  -1.173838  0  -0.324801  -0.553034  0  2.336756  0
O  O205  1  0.86226543  0.25356378  0.30811944  1  -1.179043  0  -0.311989  -0.560614  0  2.373499  0
O  O206  1  0.93255344  0.17357461  0.22781103  1  -1.145227  0  -0.312856  -0.539124  0  2.347581  0
O  O207  1  0.75356180  0.36318762  0.30831015  1  -1.171321  0  -0.306417  -0.529911  0  2.333615  0
O  O208  1  0.74575138  0.09280831  0.29996660  1  -1.171353  0  -0.319844  -0.549268  0  2.33625  0
O  O209  1  0.85917118  0.09621928  0.30367100  1  -1.156761  0  -0.319725  -0.542205  0  2.314457  0
O  O210  1  0.25075877  0.75040191  0.74936871  1  -1.220054  0  -0.570975  -1.025514  0  2.536481  0
O  O211  1  0.37626962  0.72419427  0.66854431  1  -1.171647  0  -0.316971  -0.540286  0  2.316461  0
O  O212  1  0.36338111  0.75365352  0.80829762  1  -1.167827  0  -0.309109  -0.531914  0  2.337381  0
O  O213  1  0.17308312  0.93403516  0.72731259  1  -1.178625  0  -0.321841  -0.550412  0  2.338024  0
O  O214  1  0.43462639  0.67249376  0.72707168  1  -1.174158  0  -0.321156  -0.549724  0  2.339794  0
O  O215  1  0.22422787  0.87586004  0.66866276  1  -1.16814  0  -0.317098  -0.540548  0  2.318053  0
O  O216  1  0.25374314  0.86234906  0.80803238  1  -1.178936  0  -0.309708  -0.558942  0  2.365398  0
O  O217  1  0.09637435  0.85878587  0.80390719  1  -1.153516  0  -0.32414  -0.553095  0  2.332683  0
O  O218  1  0.16509469  0.66463559  0.71907745  1  -1.183848  0  -0.310397  -0.557201  0  2.368654  0
O  O219  1  0.09420836  0.74530239  0.79915543  1  -1.175838  0  -0.312521  -0.538949  0  2.348288  0
O  O220  1  0.21930627  0.71874750  0.66407939  1  -1.165047  0  -0.308076  -0.531108  0  2.336907  0
O  O221  1  0.35739625  0.59797811  0.80287990  1  -1.15688  0  -0.310696  -0.537238  0  2.346759  0
O  O222  1  0.24477559  0.59245973  0.79991651  1  -1.175705  0  -0.325106  -0.553469  0  2.338147  0
O  O223  1  0.49951542  0.00115530  0.99966694  1  -1.2272  0  -0.57094  -1.027759  0  2.530837  0
O  O224  1  0.50445457  0.15712707  0.94974831  1  -1.172563  0  -0.320602  -0.549149  0  2.338499  0
O  O225  1  0.38693832  0.99626380  0.94169780  1  -1.16914  0  -0.308405  -0.531992  0  2.337246  0
O  O226  1  0.65331297  0.89190697  0.94646517  1  -1.182849  0  -0.322193  -0.550692  0  2.335432  0
O  O227  1  0.39063844  0.15400880  0.94653594  1  -1.156953  0  -0.317348  -0.539861  0  2.316185  0
O  O228  1  0.65700730  0.00535162  0.94993610  1  -1.173956  0  -0.316049  -0.539566  0  2.31458  0
O  O229  1  0.49643973  0.88740135  0.94203011  1  -1.178603  0  -0.310378  -0.558786  0  2.366499  0
O  O230  1  0.57685929  0.81626511  0.02263570  1  -1.179605  0  -0.321418  -0.550261  0  2.336315  0
O  O231  1  0.53069541  0.03108938  0.08514735  1  -1.164716  0  -0.310488  -0.558012  0  2.368284  0
O  O232  1  0.52596407  0.87461198  0.08117153  1  -1.169147  0  -0.317857  -0.540055  0  2.313216  0
O  O233  1  0.58573354  0.08594573  0.03093549  1  -1.177058  0  -0.307389  -0.530328  0  2.336161  0
O  O234  1  0.31507331  0.07788440  0.02245324  1  -1.143746  0  -0.315691  -0.538989  0  2.31597  0
O  O235  1  0.37374422  0.02648652  0.08085559  1  -1.169233  0  -0.322263  -0.550457  0  2.336563  0
O  O236  1  0.78175463  0.51790240  0.39950164  1  -1.150988  0  -0.36721  -0.45416  0  2.243151  0
O  O237  1  0.96835026  0.23245749  0.35008372  1  -1.148646  0  -0.368884  -0.45623  0  2.243095  0
O  O238  1  0.15953365  0.65887741  0.54135214  1  -1.129825  0  -0.366918  -0.454075  0  2.241694  0
O  O239  1  0.09041480  0.59106682  0.70868397  1  -1.129246  0  -0.368101  -0.455941  0  2.242342  0
O  O240  1  0.70845375  0.20904486  0.09076804  1  -1.142579  0  -0.367789  -0.455004  0  2.243241  0
O  O241  1  0.54143233  0.04129363  0.15926335  1  -1.143638  0  -0.366779  -0.452898  0  2.242898  0
O  O242  1  0.23250698  0.96840936  0.85041121  1  -1.150303  0  -0.366147  -0.452708  0  2.244336  0
O  O243  1  0.51779492  0.78150716  0.89956344  1  -1.149314  0  -0.366488  -0.453177  0  2.243007  0
