# generated using pymatgen
data_AlH2C9BrNO7
_symmetry_space_group_name_H-M   'P 1'
_cell_length_a   6.64010311
_cell_length_b   16.23999786
_cell_length_c   18.10377751
_cell_angle_alpha   89.99984304
_cell_angle_beta   90.00091838
_cell_angle_gamma   87.53761810
_symmetry_Int_Tables_number   1
_chemical_formula_structural   AlH2C9BrNO7
_chemical_formula_sum   'Al4 H8 C36 Br4 N4 O28'
_cell_volume   1950.42296063
_cell_formula_units_Z   4
loop_
 _symmetry_equiv_pos_site_id
 _symmetry_equiv_pos_as_xyz
  1  'x, y, z'
loop_
 _atom_site_type_symbol
 _atom_site_label
 _atom_site_symmetry_multiplicity
 _atom_site_fract_x
 _atom_site_fract_y
 _atom_site_fract_z
 _atom_site_occupancy
 _atom_site_pbe_bader_charge
 _atom_site_pbe_bader_spin_density
 _atom_site_pbe_cm5_charge
 _atom_site_pbe_ddec_charge
 _atom_site_pbe_ddec_spin_density
 _atom_site_pbe_ddec_sum_bond_order
 _atom_site_pbe_magmom
Al  Al0  1  0.26086061  0.28431488  0.24835128  1  2.502256  0  0.400504  1.647983  0  2.57257  0
Al  Al1  1  0.73914916  0.71568107  0.74835154  1  2.502388  0  0.400519  1.647853  0  2.572708  0
Al  Al2  1  0.76068586  0.28118985  0.24816536  1  2.500317  0  0.403692  1.638805  0  2.575397  0
Al  Al3  1  0.23932100  0.71880427  0.74816737  1  2.500402  0  0.403703  1.638979  0  2.575237  0
H  H4  1  0.79779178  0.17159191  0.04982246  1  0.158064  0  0.126043  0.141868  0  0.982201  0
H  H5  1  0.27315141  0.80441110  0.97122854  1  0.145244  0  0.130159  0.145903  0  0.960297  0
H  H6  1  0.20218513  0.82841732  0.54983008  1  0.158357  0  0.126013  0.14182  0  0.982228  0
H  H7  1  0.72686900  0.19558583  0.47123263  1  0.145241  0  0.13024  0.145965  0  0.96035  0
H  H8  1  0.50543534  0.38678586  0.27450878  1  0.63824  0  0.362412  0.445731  0  0.831137  0
H  H9  1  0.49458473  0.61320991  0.77450633  1  0.638162  0  0.362394  0.445673  0  0.831102  0
H  H10  1  0.02767327  0.18050052  0.27827272  1  0.636174  0  0.346061  0.427085  0  0.868009  0
H  H11  1  0.97234551  0.81949463  0.77827397  1  0.636225  0  0.346111  0.427113  0  0.868007  0
C  C12  1  0.50896628  0.18437338  0.14937051  1  1.610682  0  0.274101  0.654541  0  4.086506  0
C  C13  1  0.47273319  0.81984058  0.84587565  1  1.601211  0  0.272512  0.658581  0  4.087093  0
C  C14  1  0.49103077  0.81563041  0.64937804  1  1.610808  0  0.274036  0.654436  0  4.086476  0
C  C15  1  0.52728584  0.18015433  0.34587486  1  1.601106  0  0.27245  0.658328  0  4.087393  0
C  C16  1  0.00521913  0.38064737  0.34941889  1  1.687321  0  0.278487  0.70975  0  4.167112  0
C  C17  1  0.00663325  0.62336508  0.64666208  1  1.711201  0  0.283968  0.707388  0  4.168148  0
C  C18  1  0.99479583  0.61934263  0.84941467  1  1.68702  0  0.278651  0.7101  0  4.167017  0
C  C19  1  0.99337008  0.37663189  0.14666384  1  1.712083  0  0.284126  0.707616  0  4.167977  0
C  C20  1  0.99458336  0.42874160  0.08233687  1  0.272052  0  0.00708  -0.134753  0  3.827882  0
C  C21  1  0.00493410  0.56592140  0.91286847  1  0.173892  0  -0.001396  -0.148008  0  3.841549  0
C  C22  1  0.00541561  0.57125132  0.58233413  1  0.273313  0  0.007147  -0.134567  0  3.828085  0
C  C23  1  0.99508662  0.43407388  0.41286733  1  0.174281  0  -0.001398  -0.148077  0  3.841935  0
C  C24  1  0.00018850  0.47263824  0.02758096  1  -0.370329  0  0.004976  0.042373  0  4.21183  0
C  C25  1  0.00366874  0.52141142  0.96732511  1  -0.247576  0  0.004874  0.046023  0  4.216458  0
C  C26  1  0.99982279  0.52735662  0.52758086  1  -0.371859  0  0.004916  0.042123  0  4.212066  0
C  C27  1  0.99634857  0.47858370  0.46732277  1  -0.247662  0  0.004942  0.046274  0  4.216469  0
C  C28  1  0.52245574  0.12048362  0.08944832  1  0.048712  0  -0.006026  -0.055815  0  3.941033  0
C  C29  1  0.47089385  0.88057654  0.90829680  1  0.05486  0  -0.005217  -0.056716  0  3.933708  0
C  C30  1  0.47752455  0.87952605  0.58945728  1  0.048802  0  -0.006171  -0.055999  0  3.940785  0
C  C31  1  0.52911746  0.11942129  0.40829892  1  0.054944  0  -0.00522  -0.056704  0  3.933548  0
C  C32  1  0.33621089  0.91482701  0.02888822  1  0.20156  0  0.081903  0.04526  0  3.909607  0
C  C33  1  0.71289963  0.06995001  0.98359322  1  0.228001  0  0.078503  0.035281  0  3.912951  0
C  C34  1  0.66378639  0.08517720  0.52889626  1  0.200909  0  0.081874  0.045435  0  3.909343  0
C  C35  1  0.28707695  0.93006016  0.48360256  1  0.229044  0  0.078551  0.035156  0  3.913265  0
C  C36  1  0.35271898  0.86164565  0.97020458  1  0.072763  0  -0.058558  -0.098586  0  3.902677  0
C  C37  1  0.68875936  0.12431014  0.04126821  1  0.006709  0  -0.065673  -0.121736  0  3.951618  0
C  C38  1  0.64729375  0.13835319  0.47020674  1  0.0727  0  -0.058585  -0.098782  0  3.902737  0
C  C39  1  0.31121864  0.87569911  0.54127574  1  0.006176  0  -0.065534  -0.121457  0  3.951489  0
C  C40  1  0.57991753  0.95169100  0.90884330  1  -0.063453  0  0.007948  0.064602  0  3.85627  0
C  C41  1  0.39208486  0.05635979  0.08181760  1  -0.039311  0  0.007678  0.05682  0  3.864112  0
C  C42  1  0.42007709  0.04830944  0.40884667  1  -0.063443  0  0.008023  0.064872  0  3.856088  0
C  C43  1  0.60790266  0.94364862  0.58182544  1  -0.039382  0  0.00777  0.056905  0  3.863758  0
C  C44  1  0.58175084  0.00363003  0.97287475  1  0.089953  0  0.012264  0.021043  0  3.906823  0
C  C45  1  0.43556743  0.99088731  0.03025938  1  0.085847  0  0.010737  0.016229  0  3.921429  0
C  C46  1  0.41823440  0.99637765  0.47288131  1  0.08874  0  0.012189  0.02072  0  3.907084  0
C  C47  1  0.56441762  0.00912130  0.53026762  1  0.086831  0  0.010699  0.016387  0  3.921151  0
Br  Br48  1  0.14250303  0.05970383  0.13260026  1  0.034767  0  0.111168  0.052633  0  1.662663  0
Br  Br49  1  0.69106136  0.98882054  0.81900153  1  0.036626  0  0.084325  0.013006  0  1.60623  0
Br  Br50  1  0.85749315  0.94030125  0.63260888  1  0.034881  0  0.111144  0.052592  0  1.662603  0
Br  Br51  1  0.30892743  0.01118025  0.31900661  1  0.036705  0  0.084316  0.012958  0  1.606115  0
N  N52  1  0.23446925  0.88169952  0.09450137  1  0.409248  0  0.047117  0.497896  0  4.272984  0
N  N53  1  0.90463543  0.07658312  0.94295856  1  0.387117  0  0.046004  0.496208  0  4.27405  0
N  N54  1  0.76553729  0.11830315  0.59450765  1  0.40942  0  0.047125  0.497924  0  4.273196  0
N  N55  1  0.09534224  0.92342657  0.44296524  1  0.387346  0  0.046189  0.496442  0  4.274133  0
O  O56  1  0.69623826  0.20994921  0.33012828  1  -1.246368  0  -0.230672  -0.5802  0  2.31182  0
O  O57  1  0.32403864  0.80173490  0.68053796  1  -1.247675  0  -0.227725  -0.576858  0  2.331003  0
O  O58  1  0.30378471  0.79004265  0.83012991  1  -1.246251  0  -0.230647  -0.580336  0  2.311811  0
O  O59  1  0.67596183  0.19826136  0.18053349  1  -1.247522  0  -0.227788  -0.576863  0  2.330901  0
O  O60  1  0.33940859  0.21848261  0.16461435  1  -1.248064  0  -0.224772  -0.573393  0  2.387501  0
O  O61  1  0.64100403  0.80120598  0.81566696  1  -1.248945  0  -0.232154  -0.602881  0  2.40117  0
O  O62  1  0.66058611  0.78152238  0.66461900  1  -1.248112  0  -0.224804  -0.573313  0  2.387536  0
O  O63  1  0.35901508  0.19878842  0.31566301  1  -1.24864  0  -0.232114  -0.602802  0  2.401399  0
O  O64  1  0.15961604  0.36667808  0.18110748  1  -1.232285  0  -0.221067  -0.571226  0  2.286101  0
O  O65  1  0.81906747  0.64694055  0.83144665  1  -1.226775  0  -0.225433  -0.578176  0  2.276579  0
O  O66  1  0.84038124  0.63332190  0.68110075  1  -1.232005  0  -0.221023  -0.57112  0  2.286104  0
O  O67  1  0.18094514  0.35304892  0.33145021  1  -1.227075  0  -0.225414  -0.578056  0  2.276374  0
O  O68  1  0.50714813  0.33338592  0.25043597  1  -1.434495  0  -0.445052  -0.990219  0  2.179441  0
O  O69  1  0.49286181  0.66660878  0.75043504  1  -1.434436  0  -0.44506  -0.990156  0  2.179409  0
O  O70  1  0.83965118  0.36627335  0.31717537  1  -1.238033  0  -0.22839  -0.590774  0  2.279779  0
O  O71  1  0.17316271  0.65423797  0.66362525  1  -1.234687  0  -0.219352  -0.560966  0  2.274052  0
O  O72  1  0.16036965  0.63371857  0.81717551  1  -1.237951  0  -0.228467  -0.590972  0  2.279787  0
O  O73  1  0.82683537  0.34575960  0.16362398  1  -1.23536  0  -0.219411  -0.561  0  2.273876  0
O  O74  1  0.01733773  0.23192591  0.25082973  1  -1.437239  0  -0.449378  -1.001166  0  2.216908  0
O  O75  1  0.98267524  0.76806877  0.75083337  1  -1.437391  0  -0.449501  -1.001256  0  2.216968  0
O  O76  1  0.32706757  0.88536216  0.15378371  1  -0.439194  0  -0.139183  -0.335683  0  1.931442  0
O  O77  1  0.07239629  0.84844641  0.08496540  1  -0.450695  0  -0.135397  -0.323831  0  1.877958  0
O  O78  1  0.01141532  0.01231237  0.93668629  1  -0.455374  0  -0.136208  -0.348992  0  2.008246  0
O  O79  1  0.95170218  0.14590558  0.92288378  1  -0.43262  0  -0.130908  -0.315201  0  1.875737  0
O  O80  1  0.67294634  0.11464024  0.65379062  1  -0.439351  0  -0.139275  -0.335811  0  1.931444  0
O  O81  1  0.92761129  0.15155629  0.58496971  1  -0.450866  0  -0.135382  -0.323862  0  1.878103  0
O  O82  1  0.98856054  0.98769736  0.43669040  1  -0.455707  0  -0.136368  -0.349103  0  2.00807  0
O  O83  1  0.04827445  0.85410542  0.42288762  1  -0.432573  0  -0.130918  -0.315261  0  1.875983  0
