# generated using pymatgen
data_CuH12C13(N2O3)2
_symmetry_space_group_name_H-M   'P 1'
_cell_length_a   10.15202117
_cell_length_b   11.69885968
_cell_length_c   14.37500851
_cell_angle_alpha   70.31220128
_cell_angle_beta   69.37348076
_cell_angle_gamma   64.32076090
_symmetry_Int_Tables_number   1
_chemical_formula_structural   CuH12C13(N2O3)2
_chemical_formula_sum   'Cu4 H48 C52 N16 O24'
_cell_volume   1405.24889158
_cell_formula_units_Z   4
loop_
 _symmetry_equiv_pos_site_id
 _symmetry_equiv_pos_as_xyz
  1  'x, y, z'
loop_
 _atom_site_type_symbol
 _atom_site_label
 _atom_site_symmetry_multiplicity
 _atom_site_fract_x
 _atom_site_fract_y
 _atom_site_fract_z
 _atom_site_occupancy
 _atom_site_pbe_bader_charge
 _atom_site_pbe_bader_spin_density
 _atom_site_pbe_cm5_charge
 _atom_site_pbe_ddec_charge
 _atom_site_pbe_ddec_spin_density
 _atom_site_pbe_ddec_sum_bond_order
 _atom_site_pbe_magmom
Cu  Cu0  1  0.75238139  0.34831314  0.01954628  1  1.127849  0.574834  0.721191  0.909832  0.747891  2.06652  0.574
Cu  Cu1  1  0.12029607  0.15183610  0.48059734  1  1.124467  -0.574752  0.720481  0.90986  -0.747952  2.06476  -0.574
Cu  Cu2  1  0.24763371  0.65168094  0.98046377  1  1.127827  -0.574838  0.721168  0.909897  -0.747889  2.066603  -0.574
Cu  Cu3  1  0.87969810  0.84815504  0.51939717  1  1.124406  0.574759  0.720498  0.909937  0.747951  2.064708  0.574
H  H4  1  0.12432848  0.33587174  0.17971851  1  0.092751  -0.000411  0.109453  0.130373  -0.000377  1.031212  0.0
H  H5  1  0.64001312  0.16372277  0.32049171  1  0.10593  0.000395  0.109779  0.129956  0.000378  1.033912  0.0
H  H6  1  0.87563989  0.66415634  0.82027716  1  0.092193  0.000412  0.109495  0.130453  0.000377  1.03119  0.0
H  H7  1  0.35998906  0.83628976  0.67951300  1  0.106114  -0.000396  0.109781  0.13  -0.000378  1.033878  0.0
H  H8  1  0.02256476  0.36958960  0.08753627  1  0.110763  6.4e-05  0.11315  0.137981  7.3e-05  1.023898  0.0
H  H9  1  0.47972944  0.13006078  0.41238167  1  0.114259  -6.3e-05  0.112407  0.137173  -7.2e-05  1.024395  0.0
H  H10  1  0.97741269  0.63041903  0.91245552  1  0.111049  -6.4e-05  0.113115  0.137976  -7.3e-05  1.023966  0.0
H  H11  1  0.52027942  0.86991771  0.58760361  1  0.116049  6.3e-05  0.112402  0.137175  7.2e-05  1.024375  0.0
H  H12  1  0.20625054  0.24711952  0.08150128  1  0.038432  -2.8e-05  0.102691  0.112811  2.2e-05  1.018053  0.0
H  H13  1  0.53528566  0.25213200  0.41890290  1  0.056227  2.2e-05  0.102325  0.111738  -2.4e-05  1.018109  0.0
H  H14  1  0.79372903  0.75288912  0.91850180  1  0.038075  2.8e-05  0.102697  0.112892  -2.1e-05  1.017949  0.0
H  H15  1  0.46469394  0.74784360  0.58112179  1  0.056558  -2.2e-05  0.102332  0.111676  2.4e-05  1.018187  0.0
H  H16  1  0.89170744  0.02744026  0.09057491  1  0.126668  2.7e-05  0.116084  0.14149  -3.1e-05  1.008999  0.0
H  H17  1  0.01032034  0.47248252  0.40919392  1  0.130683  -3.3e-05  0.116315  0.141447  2.5e-05  1.009265  0.0
H  H18  1  0.10831070  0.97254893  0.90941764  1  0.126741  -2.7e-05  0.116021  0.141351  3e-05  1.009138  0.0
H  H19  1  0.98966629  0.52753195  0.59080302  1  0.130603  3.2e-05  0.116306  0.141438  -2.5e-05  1.009131  0.0
H  H20  1  0.75626240  0.99774989  0.20559700  1  0.0544  0.000163  0.111783  0.13432  0.000127  0.989973  0.0
H  H21  1  0.96058909  0.50190488  0.29398705  1  0.057172  -0.000175  0.112199  0.135439  -0.000134  0.990408  0.0
H  H22  1  0.24376693  0.00221987  0.79439461  1  0.054201  -0.000164  0.111936  0.134406  -0.000127  0.989933  0.0
H  H23  1  0.03942694  0.49808432  0.70600463  1  0.05702  0.000175  0.112154  0.13539  0.000134  0.990522  0.0
H  H24  1  0.94249095  0.87893932  0.18418021  1  0.091984  6.2e-05  0.112789  0.136439  5.6e-05  0.968467  0.0
H  H25  1  0.00634435  0.62088006  0.31556247  1  0.098289  -6.1e-05  0.112606  0.13689  -5.3e-05  0.968408  0.0
H  H26  1  0.05754978  0.12105377  0.81580701  1  0.092256  -6.2e-05  0.112743  0.136359  -5.6e-05  0.968574  0.0
H  H27  1  0.99363982  0.37912760  0.68442930  1  0.098315  6.1e-05  0.112586  0.136825  5.3e-05  0.968521  0.0
H  H28  1  0.75261619  0.45075999  0.58306169  1  0.129843  -0.000427  0.114328  0.13982  -0.000431  1.011975  0.0
H  H29  1  0.78639995  0.04965296  0.91677033  1  0.134882  0.00043  0.114781  0.139972  0.000434  1.011507  0.0
H  H30  1  0.24738645  0.54922337  0.41692937  1  0.129963  0.000426  0.114295  0.139784  0.000431  1.011994  0.0
H  H31  1  0.21361657  0.95034013  0.08322294  1  0.135023  -0.00043  0.114796  0.139951  -0.000435  1.011476  0.0
H  H32  1  0.59350697  0.44646286  0.69039710  1  0.079381  -2e-05  0.101274  0.114331  1.9e-05  1.000146  0.0
H  H33  1  0.73010710  0.05352629  0.80956900  1  0.041087  2.3e-05  0.101197  0.113978  -2e-05  0.999532  0.0
H  H34  1  0.40651583  0.55350497  0.30961129  1  0.079139  2e-05  0.101253  0.114342  -1.9e-05  1.000055  0.0
H  H35  1  0.26989838  0.94648332  0.19042387  1  0.041001  -2.3e-05  0.101177  0.113962  2e-05  0.999571  0.0
H  H36  1  0.56508112  0.52662655  0.56542716  1  0.061448  8.9e-05  0.105074  0.119962  7.5e-05  1.009517  0.0
H  H37  1  0.65742859  0.97331051  0.93463078  1  0.079217  -7.7e-05  0.104435  0.118807  -6.9e-05  1.010459  0.0
H  H38  1  0.43489760  0.47335878  0.43459159  1  0.061188  -8.8e-05  0.105044  0.119926  -7.5e-05  1.009531  0.0
H  H39  1  0.34258221  0.02669132  0.06536012  1  0.079207  7.7e-05  0.104459  0.118843  6.9e-05  1.010398  0.0
H  H40  1  0.42307159  0.06334433  0.61800129  1  0.113542  0.00043  0.11  0.132184  0.000396  1.025076  0.0
H  H41  1  0.10458983  0.43645512  0.88175536  1  0.097034  -0.000435  0.110014  0.132262  -0.000395  1.024352  0.0
H  H42  1  0.57692530  0.93663514  0.38199923  1  0.11385  -0.00043  0.109982  0.1321  -0.000396  1.025038  0.0
H  H43  1  0.89542353  0.56355838  0.11824212  1  0.097052  0.000435  0.110068  0.132308  0.000394  1.024369  0.0
H  H44  1  0.31829071  0.23312798  0.58841579  1  0.11456  -0.000112  0.108039  0.135182  -0.0001  1.008695  0.0
H  H45  1  0.13985227  0.26666556  0.91146023  1  0.117234  0.000121  0.108203  0.135981  0.000105  1.009015  0.0
H  H46  1  0.68171393  0.76685051  0.41156846  1  0.113737  0.000112  0.108086  0.135253  0.0001  1.008596  0.0
H  H47  1  0.86014231  0.73334504  0.08855317  1  0.117213  -0.000121  0.108186  0.135928  -0.000105  1.009013  0.0
H  H48  1  0.34446190  0.15464334  0.71512170  1  0.112967  3.5e-05  0.10725  0.128724  4e-06  1.034572  0.0
H  H49  1  0.21414047  0.34501208  0.78472242  1  0.107907  -3.9e-05  0.107286  0.128548  -5e-06  1.033868  0.0
H  H50  1  0.65552037  0.84535363  0.28486931  1  0.112846  -3.5e-05  0.107242  0.128708  -4e-06  1.034575  0.0
H  H51  1  0.78587493  0.65497615  0.21528359  1  0.107708  3.9e-05  0.10726  0.128574  5e-06  1.033979  0.0
C  C52  1  0.97499449  0.14780769  0.15676261  1  1.796175  -0.000778  0.342302  0.536395  -0.000614  4.131541  -0.001
C  C53  1  0.28014814  0.35218360  0.34334252  1  1.793735  0.000751  0.343953  0.538955  0.000611  4.126844  0.001
C  C54  1  0.02499548  0.85221650  0.84322943  1  1.79446  0.000777  0.342518  0.536552  0.000613  4.130976  0.001
C  C55  1  0.71983188  0.64783671  0.65666628  1  1.794823  -0.00075  0.343963  0.539017  -0.00061  4.126464  -0.001
C  C56  1  0.91725766  0.00702549  0.32244291  1  1.173479  -0.001125  0.209409  0.414849  0.000545  4.170193  -0.003
C  C57  1  0.24729364  0.49290952  0.17755989  1  1.173276  0.001154  0.207981  0.414327  -0.000534  4.16659  0.003
C  C58  1  0.08274157  0.99297634  0.67755296  1  1.173538  0.001126  0.209495  0.414941  -0.000545  4.170105  0.003
C  C59  1  0.75270500  0.50710399  0.82245518  1  1.173354  -0.001154  0.207856  0.414182  0.000534  4.166673  -0.003
C  C60  1  0.96591369  0.06911794  0.36506827  1  0.042244  -4.9e-05  -0.076718  -0.341926  -6.7e-05  4.146901  0.0
C  C61  1  0.40054157  0.43095535  0.13505754  1  0.03891  6.5e-05  -0.07742  -0.341795  6e-05  4.147046  0.0
C  C62  1  0.03407535  0.93089070  0.63492828  1  0.041883  5.5e-05  -0.076745  -0.34206  7.1e-05  4.14695  0.0
C  C63  1  0.59946344  0.56905038  0.86494973  1  0.039041  -5.6e-05  -0.077286  -0.341679  -5.3e-05  4.146839  0.0
C  C64  1  0.03412051  0.16041624  0.30345139  1  1.174914  0.000457  0.215794  0.442739  -0.000928  4.128895  0.002
C  C65  1  0.49832671  0.33952171  0.19669746  1  1.17883  -0.000516  0.215362  0.442081  0.000901  4.130513  -0.002
C  C66  1  0.96587696  0.83959241  0.69654653  1  1.175757  -0.000461  0.215771  0.442854  0.000928  4.128903  -0.002
C  C67  1  0.50167593  0.66048207  0.80330398  1  1.179114  0.000516  0.215426  0.44204  -0.000901  4.130066  0.002
C  C68  1  0.10064736  0.29450908  0.13260419  1  0.282843  -0.000844  -0.138662  -0.247014  -0.00072  3.846238  -0.001
C  C69  1  0.52799019  0.20507990  0.36757230  1  0.23275  0.000858  -0.138658  -0.245818  0.000725  3.849056  0.001
C  C70  1  0.89932874  0.70550539  0.86739538  1  0.283591  0.000844  -0.138744  -0.247261  0.00072  3.846356  0.001
C  C71  1  0.47201112  0.79490930  0.63243349  1  0.23074  -0.000858  -0.138559  -0.245719  -0.000726  3.848957  -0.001
C  C72  1  0.87573504  0.98329748  0.17187370  1  0.249321  0.00052  -0.130146  -0.24558  0.00061  3.846759  0.0
C  C73  1  0.03165726  0.51651408  0.32787777  1  0.2434  -0.000554  -0.130975  -0.247228  -0.00063  3.848654  0.0
C  C74  1  0.12429257  0.01669172  0.82811786  1  0.248658  -0.00052  -0.130183  -0.245402  -0.00061  3.846876  0.0
C  C75  1  0.96834027  0.48348678  0.67212228  1  0.243655  0.000554  -0.130926  -0.24714  0.000629  3.848613  0.0
C  C76  1  0.94360638  0.04241142  0.47685629  1  -0.063662  0.005787  -0.031418  0.016926  0.003874  4.135601  0.005
C  C77  1  0.46300816  0.45749929  0.02325664  1  -0.105318  -0.005732  -0.031991  0.015551  -0.00384  4.135853  -0.004
C  C78  1  0.05639786  0.95758847  0.52313539  1  0.017238  -0.005784  -0.031461  0.01674  -0.003872  4.135669  -0.005
C  C79  1  0.53698656  0.54250839  0.97675127  1  0.031846  0.005736  -0.032032  0.015421  0.003842  4.13601  0.005
C  C80  1  0.80140982  0.12609983  0.53346536  1  0.049516  -0.000423  -0.079952  -0.348855  -0.000263  4.156592  -0.001
C  C81  1  0.46082661  0.37373163  0.96673429  1  0.076117  0.000498  -0.079403  -0.349001  0.000294  4.155147  0.001
C  C82  1  0.19858946  0.87389422  0.46652986  1  0.048853  0.000429  -0.079841  -0.348671  0.000266  4.156663  0.001
C  C83  1  0.53917505  0.62626439  0.03327649  1  0.076517  -0.000495  -0.079388  -0.349019  -0.000291  4.155123  -0.001
C  C84  1  0.67303149  0.09193186  0.56668377  1  1.163124  -0.000795  0.211999  0.427945  0.000731  4.154675  -0.002
C  C85  1  0.33169561  0.40798462  0.93321504  1  1.153018  0.000809  0.211793  0.430294  -0.000714  4.151987  0.002
C  C86  1  0.32696729  0.90805831  0.43331264  1  1.1637  0.000798  0.211954  0.427995  -0.000731  4.154451  0.002
C  C87  1  0.66830029  0.59200750  0.06679269  1  1.152698  -0.000808  0.21173  0.430386  0.000714  4.151675  -0.002
C  C88  1  0.52278979  0.30002018  0.61608394  1  1.802614  1.4e-05  0.333153  0.515961  0.0  4.157115  0.0
C  C89  1  0.43880225  0.19986770  0.88382681  1  1.787084  -5e-06  0.335001  0.516337  1.3e-05  4.15642  0.0
C  C90  1  0.47721887  0.69996902  0.38391028  1  1.802749  -1.4e-05  0.3332  0.516104  0.0  4.157121  0.0
C  C91  1  0.56118689  0.80014580  0.11617324  1  1.787545  6e-06  0.335002  0.516204  -1.2e-05  4.156317  0.0
C  C92  1  0.79653920  0.24022509  0.54940877  1  1.136616  0.000899  0.211817  0.439503  -0.00071  4.137019  0.002
C  C93  1  0.58593625  0.25969122  0.95080187  1  1.157071  -0.000925  0.214167  0.44015  0.000689  4.134513  -0.002
C  C94  1  0.20345111  0.75977285  0.45058693  1  1.137542  -0.000899  0.21186  0.439478  0.000711  4.137064  -0.002
C  C95  1  0.41407581  0.74032034  0.04920065  1  1.157046  0.000925  0.214017  0.440024  -0.000689  4.134874  0.002
C  C96  1  0.64058385  0.44469349  0.60923938  1  0.232594  -0.001083  -0.137698  -0.248545  -0.000883  3.893269  -0.001
C  C97  1  0.69448108  0.05538169  0.89072122  1  0.253462  0.001058  -0.13705  -0.24754  0.000864  3.890918  0.001
C  C98  1  0.35941259  0.55529474  0.39076650  1  0.233363  0.001082  -0.137629  -0.248524  0.000882  3.893159  0.001
C  C99  1  0.30553433  0.94461918  0.10927297  1  0.253547  -0.001061  -0.137031  -0.24756  -0.000866  3.890833  -0.001
C  C100  1  0.39542388  0.15693356  0.63392901  1  0.178323  0.001021  -0.144239  -0.272182  0.000798  3.876881  0.001
C  C101  1  0.18630621  0.34284147  0.86589481  1  0.211278  -0.001021  -0.14449  -0.272542  -0.000808  3.876801  -0.001
C  C102  1  0.60457626  0.84305077  0.36606449  1  0.178736  -0.001022  -0.144242  -0.272131  -0.000798  3.876907  -0.001
C  C103  1  0.81370331  0.65715843  0.13411085  1  0.211503  0.001019  -0.144543  -0.272534  0.000806  3.877049  0.001
N  N104  1  0.92510067  0.04731885  0.21820012  1  -1.202935  0.006327  -0.248985  -0.150053  0.004196  3.650979  0.006
N  N105  1  0.19127768  0.45257772  0.28178893  1  -1.190087  -0.006295  -0.24863  -0.152009  -0.004181  3.648257  -0.006
N  N106  1  0.07490472  0.95268590  0.78179480  1  -1.201855  -0.006326  -0.249014  -0.150001  -0.004195  3.651032  -0.006
N  N107  1  0.80872888  0.54743190  0.71821967  1  -1.189694  0.0063  -0.24854  -0.151996  0.004183  3.647622  0.006
N  N108  1  0.03367827  0.19837090  0.20045469  1  -1.195736  -0.006157  -0.248458  -0.137948  -0.004023  3.612319  -0.005
N  N109  1  0.43292754  0.30154821  0.29969831  1  -1.193668  0.006157  -0.248591  -0.137556  0.004021  3.609369  0.005
N  N110  1  0.96630125  0.80164552  0.79954975  1  -1.194642  0.006159  -0.248446  -0.137999  0.004025  3.612163  0.005
N  N111  1  0.56707713  0.69845073  0.70031300  1  -1.195116  -0.006153  -0.248633  -0.137486  -0.004018  3.609817  -0.005
N  N112  1  0.65579186  0.32272159  0.59269543  1  -1.191841  -0.006035  -0.252025  -0.146735  -0.003953  3.626777  -0.005
N  N113  1  0.57107069  0.17720428  0.90732399  1  -1.212052  0.006  -0.253616  -0.144014  0.003931  3.62227  0.005
N  N114  1  0.34420572  0.67727150  0.40730256  1  -1.192205  0.006038  -0.252055  -0.146741  0.003954  3.626323  0.005
N  N115  1  0.42893792  0.82279270  0.09267713  1  -1.212511  -0.005993  -0.253546  -0.143687  -0.003926  3.623026  -0.005
N  N116  1  0.53589020  0.18130456  0.60597976  1  -1.198289  0.005314  -0.253176  -0.146442  0.003477  3.651678  0.005
N  N117  1  0.32317260  0.31853430  0.89390368  1  -1.195391  -0.005285  -0.252146  -0.148376  -0.003459  3.651466  -0.005
N  N118  1  0.46410673  0.81868755  0.39402145  1  -1.198234  -0.005312  -0.253288  -0.146708  -0.003476  3.65172  -0.005
N  N119  1  0.67683086  0.68146755  0.10610714  1  -1.195537  0.005292  -0.252148  -0.148528  0.003464  3.650893  0.005
O  O120  1  0.97317289  0.18877138  0.06505394  1  -1.164618  -0.001206  -0.297376  -0.536412  -0.000636  2.253814  0.0
O  O121  1  0.22767191  0.31127934  0.43503649  1  -1.163238  0.00114  -0.298008  -0.537313  0.000596  2.253835  0.0
O  O122  1  0.02681545  0.81124407  0.93494717  1  -1.164351  0.001208  -0.297493  -0.536549  0.000638  2.25319  0.0
O  O123  1  0.77232532  0.68872737  0.56496759  1  -1.163338  -0.001132  -0.298035  -0.537389  -0.000591  2.253669  0.0
O  O124  1  0.09543058  0.21120631  0.33451457  1  -1.114285  -0.081243  -0.308946  -0.497743  -0.053223  2.316186  -0.073
O  O125  1  0.64132624  0.28859328  0.16567655  1  -1.11769  0.081457  -0.307544  -0.496208  0.053326  2.318418  0.073
O  O126  1  0.90457141  0.78879650  0.66548453  1  -1.115052  0.081248  -0.308958  -0.497797  0.053225  2.316146  0.073
O  O127  1  0.35866829  0.71140467  0.83433199  1  -1.117708  -0.081451  -0.307691  -0.496337  -0.053323  2.318124  -0.073
O  O128  1  0.86559553  0.91533825  0.37261411  1  -1.090909  0.097023  -0.302013  -0.478173  0.0634  2.298683  0.087
O  O129  1  0.15414674  0.58440785  0.12726237  1  -1.100294  -0.096725  -0.301039  -0.477422  -0.063141  2.297557  -0.087
O  O130  1  0.13440023  0.08466941  0.62737964  1  -1.090912  -0.097028  -0.302076  -0.47819  -0.063403  2.298543  -0.087
O  O131  1  0.84585549  0.41561733  0.87274651  1  -1.100759  0.096719  -0.301071  -0.477292  0.063137  2.297459  0.087
O  O132  1  0.90998788  0.27422407  0.52741700  1  -1.103566  -0.088926  -0.306749  -0.48935  -0.05811  2.314392  -0.08
O  O133  1  0.71128778  0.22575378  0.97291295  1  -1.102549  0.088866  -0.309316  -0.490991  0.058023  2.314748  0.08
O  O134  1  0.09000737  0.72577971  0.47257307  1  -1.103707  0.088907  -0.30682  -0.489364  0.058098  2.314545  0.08
O  O135  1  0.28871649  0.77425875  0.02708081  1  -1.102382  -0.088888  -0.309232  -0.49104  -0.058038  2.314559  -0.08
O  O136  1  0.39924631  0.38224588  0.64502786  1  -1.145551  -0.000397  -0.293956  -0.489778  -0.000247  2.116537  0.0
O  O137  1  0.42642579  0.11754509  0.85489201  1  -1.143491  0.000366  -0.295545  -0.491718  0.000227  2.116432  0.0
O  O138  1  0.60074366  0.61774527  0.35497257  1  -1.145712  0.000401  -0.293832  -0.489647  0.000249  2.117052  0.0
O  O139  1  0.57358390  0.88246452  0.14510467  1  -1.143757  -0.000356  -0.295532  -0.491666  -0.00022  2.116273  0.0
O  O140  1  0.67533802  0.98376047  0.56094425  1  -1.102583  0.089143  -0.306978  -0.491096  0.05826  2.313411  0.08
O  O141  1  0.22034944  0.51627689  0.93867195  1  -1.111148  -0.089012  -0.305922  -0.490134  -0.058207  2.312315  -0.08
O  O142  1  0.32466563  0.01623067  0.43905277  1  -1.102937  -0.089157  -0.307038  -0.491174  -0.058267  2.313128  -0.08
O  O143  1  0.77963387  0.48372788  0.06134657  1  -1.111192  0.088991  -0.30585  -0.490115  0.058193  2.31263  0.08
