# generated using pymatgen
data_ZnH12C13N3ClO2
_symmetry_space_group_name_H-M   'P 1'
_cell_length_a   9.49063602
_cell_length_b   11.80692257
_cell_length_c   12.70620671
_cell_angle_alpha   103.77035578
_cell_angle_beta   89.99995206
_cell_angle_gamma   90.00003719
_symmetry_Int_Tables_number   1
_chemical_formula_structural   ZnH12C13N3ClO2
_chemical_formula_sum   'Zn4 H48 C52 N12 Cl4 O8'
_cell_volume   1382.87321110
_cell_formula_units_Z   4
loop_
 _symmetry_equiv_pos_site_id
 _symmetry_equiv_pos_as_xyz
  1  'x, y, z'
loop_
 _atom_site_type_symbol
 _atom_site_label
 _atom_site_symmetry_multiplicity
 _atom_site_fract_x
 _atom_site_fract_y
 _atom_site_fract_z
 _atom_site_occupancy
 _atom_site_hle17_bader_spin_density
 _atom_site_hle17_ddec_charge
 _atom_site_hle17_ddec_spin_density
 _atom_site_hle17_ddec_sum_bond_order
 _atom_site_hle17_magmom
 _atom_site_hse06_10hf_bader_spin_density
 _atom_site_hse06_10hf_ddec_charge
 _atom_site_hse06_10hf_ddec_spin_density
 _atom_site_hse06_10hf_ddec_sum_bond_order
 _atom_site_hse06_10hf_magmom
 _atom_site_hse06_bader_spin_density
 _atom_site_hse06_ddec_charge
 _atom_site_hse06_ddec_spin_density
 _atom_site_hse06_ddec_sum_bond_order
 _atom_site_hse06_magmom
 _atom_site_pbe_bader_spin_density
 _atom_site_pbe_cm5_charge
 _atom_site_pbe_ddec_charge
 _atom_site_pbe_ddec_spin_density
 _atom_site_pbe_ddec_sum_bond_order
 _atom_site_pbe_magmom
Zn  Zn0  1  0.94406065  0.08610816  0.81046845  1  0  0.962737  0  1.933028  0  0  0.780658  0  2.4085  0  0  0.826941  0  2.357627  0  0  0.626228  0.74864  0  2.443326  0
Zn  Zn1  1  0.44406189  0.91389386  0.68953247  1  0  0.962728  0  1.933027  0  0  0.780631  0  2.408513  0  0  0.826928  0  2.357645  0  0  0.626204  0.748615  0  2.443341  0
Zn  Zn2  1  0.05593856  0.91389350  0.18953047  1  0  0.962754  0  1.933073  0  0  0.780643  0  2.408569  0  0  0.826926  0  2.357696  0  0  0.626215  0.748623  0  2.443392  0
Zn  Zn3  1  0.55593731  0.08610950  0.31047078  1  0  0.962768  0  1.933074  0  0  0.780622  0  2.408586  0  0  0.8269  0  2.357709  0  0  0.626222  0.748599  0  2.443415  0
H  H4  1  0.34037129  0.16414637  0.11312241  1  0  0.292902  0  0.933023  0  0  0.27274  0  1.000669  0  0  0.281043  0  0.99426  0  0  0.287056  0.266953  0  1.005024  0
H  H5  1  0.84037056  0.83585415  0.38687650  1  0  0.292926  0  0.93299  0  0  0.272757  0  1.000651  0  0  0.281061  0  0.994239  0  0  0.287069  0.266958  0  1.00501  0
H  H6  1  0.65962792  0.83585356  0.88687610  1  0  0.292928  0  0.933007  0  0  0.272759  0  1.000674  0  0  0.281063  0  0.994266  0  0  0.287068  0.266973  0  1.005026  0
H  H7  1  0.15963286  0.16414744  0.61312791  1  0  0.29293  0  0.933024  0  0  0.272746  0  1.000695  0  0  0.281049  0  0.994285  0  0  0.287036  0.266945  0  1.005054  0
H  H8  1  0.30625403  0.08435494  0.90630568  1  0  0.116036  0  0.95688  0  0  0.119441  0  1.025779  0  0  0.123326  0  1.021011  0  0  0.135611  0.116518  0  1.029187  0
H  H9  1  0.80625369  0.91564355  0.59369373  1  0  0.116059  0  0.956875  0  0  0.119465  0  1.025773  0  0  0.123349  0  1.021007  0  0  0.13561  0.116543  0  1.02918  0
H  H10  1  0.69374623  0.91564411  0.09369264  1  0  0.116056  0  0.956924  0  0  0.119476  0  1.025795  0  0  0.123361  0  1.021029  0  0  0.135609  0.116553  0  1.029202  0
H  H11  1  0.19374762  0.08435977  0.40631188  1  0  0.11604  0  0.957018  0  0  0.119497  0  1.025843  0  0  0.123384  0  1.02107  0  0  0.135613  0.116573  0  1.029253  0
H  H12  1  0.10688322  0.22202007  0.20874846  1  0  0.126082  0  0.950539  0  0  0.134122  0  1.012982  0  0  0.136936  0  1.011284  0  0  0.13082  0.131923  0  1.014453  0
H  H13  1  0.60688150  0.77798121  0.29125157  1  0  0.126084  0  0.950578  0  0  0.134135  0  1.013011  0  0  0.136948  0  1.011316  0  0  0.130828  0.131933  0  1.014482  0
H  H14  1  0.89311704  0.77798160  0.79124968  1  0  0.126077  0  0.950579  0  0  0.134127  0  1.01301  0  0  0.136941  0  1.01131  0  0  0.130826  0.131932  0  1.014481  0
H  H15  1  0.39312087  0.22201861  0.70875401  1  0  0.125983  0  0.950632  0  0  0.134049  0  1.013047  0  0  0.136859  0  1.01136  0  0  0.130828  0.131852  0  1.014518  0
H  H16  1  0.80745592  0.22184182  0.10984760  1  0  0.093536  0  0.926799  0  0  0.102921  0  0.991193  0  0  0.105354  0  0.987858  0  0  0.119181  0.100895  0  0.993731  0
H  H17  1  0.30745578  0.77815779  0.39015270  1  0  0.093527  0  0.926813  0  0  0.102907  0  0.991206  0  0  0.10534  0  0.987871  0  0  0.119178  0.100881  0  0.993745  0
H  H18  1  0.19254328  0.77815983  0.89015211  1  0  0.093537  0  0.92682  0  0  0.102917  0  0.991212  0  0  0.105354  0  0.987883  0  0  0.11919  0.100892  0  0.99375  0
H  H19  1  0.69254659  0.22183777  0.60984558  1  0  0.093559  0  0.926817  0  0  0.10293  0  0.991205  0  0  0.105371  0  0.987878  0  0  0.119178  0.100905  0  0.993742  0
H  H20  1  0.84885217  0.44807477  0.88766875  1  0  0.08764  0  0.967533  0  0  0.096679  0  1.03457  0  0  0.099441  0  1.03363  0  0  0.094348  0.094724  0  1.035235  0
H  H21  1  0.34884900  0.55192635  0.61233124  1  0  0.08762  0  0.967579  0  0  0.096665  0  1.034605  0  0  0.099422  0  1.033675  0  0  0.09433  0.094711  0  1.035269  0
H  H22  1  0.15114809  0.55192600  0.11233154  1  0  0.08764  0  0.967514  0  0  0.096681  0  1.034546  0  0  0.099441  0  1.03361  0  0  0.094348  0.094717  0  1.03522  0
H  H23  1  0.65115021  0.44807269  0.38766786  1  0  0.08758  0  0.967573  0  0  0.096624  0  1.034605  0  0  0.099382  0  1.033674  0  0  0.094325  0.09467  0  1.035269  0
H  H24  1  0.92198164  0.61634928  0.03631464  1  0  0.082188  0  0.970281  0  0  0.092098  0  1.033728  0  0  0.094026  0  1.034354  0  0  0.092699  0.091024  0  1.032833  0
H  H25  1  0.42197899  0.38365299  0.46368620  1  0  0.08224  0  0.97027  0  0  0.09213  0  1.033752  0  0  0.094054  0  1.034377  0  0  0.092727  0.091067  0  1.032833  0
H  H26  1  0.07801968  0.38365061  0.96368623  1  0  0.082199  0  0.970287  0  0  0.092098  0  1.033767  0  0  0.094024  0  1.034389  0  0  0.092719  0.091038  0  1.032841  0
H  H27  1  0.57802022  0.61634694  0.53631231  1  0  0.08214  0  0.970296  0  0  0.092052  0  1.033769  0  0  0.093976  0  1.034392  0  0  0.092697  0.090991  0  1.032842  0
H  H28  1  0.79751255  0.65840429  0.21171030  1  0  0.078981  0  0.992038  0  0  0.086337  0  1.061523  0  0  0.089186  0  1.060173  0  0  0.083394  0.084225  0  1.062606  0
H  H29  1  0.29751323  0.34159531  0.28829079  1  0  0.078982  0  0.992051  0  0  0.086337  0  1.061536  0  0  0.089186  0  1.060187  0  0  0.083396  0.084225  0  1.062619  0
H  H30  1  0.20248560  0.34159387  0.78828938  1  0  0.078949  0  0.99207  0  0  0.08631  0  1.06155  0  0  0.089159  0  1.0602  0  0  0.083378  0.084197  0  1.062633  0
H  H31  1  0.70248703  0.65840460  0.71170851  1  0  0.078983  0  0.991969  0  0  0.086339  0  1.061457  0  0  0.089188  0  1.060106  0  0  0.083396  0.084226  0  1.062541  0
H  H32  1  0.58661619  0.53773172  0.23644490  1  0  0.080166  0  0.95342  0  0  0.093921  0  1.009704  0  0  0.096403  0  1.009095  0  0  0.095727  0.09202  0  1.010438  0
H  H33  1  0.08661699  0.46226780  0.26355552  1  0  0.080109  0  0.953511  0  0  0.093839  0  1.009816  0  0  0.096316  0  1.009221  0  0  0.095718  0.09194  0  1.010547  0
H  H34  1  0.41337880  0.46226903  0.76355695  1  0  0.080162  0  0.953545  0  0  0.093895  0  1.009838  0  0  0.09637  0  1.009248  0  0  0.095725  0.091997  0  1.010568  0
H  H35  1  0.91338327  0.53773126  0.73644201  1  0  0.080184  0  0.95352  0  0  0.093844  0  1.009889  0  0  0.096318  0  1.009304  0  0  0.09571  0.091948  0  1.010619  0
H  H36  1  0.50980260  0.37553791  0.08675346  1  0  0.093618  0  0.959033  0  0  0.106208  0  1.017474  0  0  0.108827  0  1.016817  0  0  0.091007  0.104536  0  1.017497  0
H  H37  1  0.00980442  0.62445986  0.41324503  1  0  0.09358  0  0.959061  0  0  0.106208  0  1.01746  0  0  0.108828  0  1.016801  0  0  0.090982  0.104529  0  1.017481  0
H  H38  1  0.49019344  0.62446375  0.91324546  1  0  0.093525  0  0.959088  0  0  0.106118  0  1.017536  0  0  0.108736  0  1.016879  0  0  0.090971  0.104441  0  1.017556  0
H  H39  1  0.99019584  0.37553745  0.58675288  1  0  0.093634  0  0.959016  0  0  0.106238  0  1.017444  0  0  0.108859  0  1.016782  0  0  0.091012  0.104563  0  1.017467  0
H  H40  1  0.69155605  0.29721286  0.81426704  1  0  0.08474  0  0.938804  0  0  0.099523  0  1.004308  0  0  0.10087  0  1.003605  0  0  0.092188  0.098591  0  1.004711  0
H  H41  1  0.19155292  0.70278733  0.68573283  1  0  0.084708  0  0.938825  0  0  0.099522  0  1.004311  0  0  0.100869  0  1.003609  0  0  0.0922  0.09859  0  1.004716  0
H  H42  1  0.30844315  0.70278879  0.18573267  1  0  0.084767  0  0.938818  0  0  0.099548  0  1.004314  0  0  0.100894  0  1.003613  0  0  0.09223  0.098616  0  1.004719  0
H  H43  1  0.80844313  0.29721085  0.31426528  1  0  0.084763  0  0.938789  0  0  0.099548  0  1.00428  0  0  0.100896  0  1.003575  0  0  0.092226  0.098615  0  1.004684  0
H  H44  1  0.52086672  0.29675062  0.87318436  1  0  0.088713  0  0.947219  0  0  0.104401  0  1.012762  0  0  0.105252  0  1.013223  0  0  0.096844  0.103801  0  1.012171  0
H  H45  1  0.02086260  0.70325127  0.62681444  1  0  0.088654  0  0.947172  0  0  0.104365  0  1.012725  0  0  0.105202  0  1.013204  0  0  0.096824  0.103764  0  1.012136  0
H  H46  1  0.47913354  0.70325018  0.12681436  1  0  0.088695  0  0.947226  0  0  0.104372  0  1.012784  0  0  0.105214  0  1.013255  0  0  0.096835  0.103773  0  1.012191  0
H  H47  1  0.97913450  0.29674778  0.37318387  1  0  0.088671  0  0.947222  0  0  0.10435  0  1.012792  0  0  0.105193  0  1.013262  0  0  0.096808  0.103749  0  1.012201  0
H  H48  1  0.59996668  0.17053388  0.98853641  1  0  0.076025  0  0.932431  0  0  0.084068  0  0.995386  0  0  0.086179  0  0.993997  0  0  0.104745  0.082581  0  0.99616  0
H  H49  1  0.09996700  0.82946977  0.51146432  1  0  0.07601  0  0.932442  0  0  0.084059  0  0.995404  0  0  0.086165  0  0.994013  0  0  0.104746  0.082573  0  0.996178  0
H  H50  1  0.40003358  0.82946865  0.01146350  1  0  0.076045  0  0.932458  0  0  0.084088  0  0.995417  0  0  0.086193  0  0.994028  0  0  0.104769  0.082601  0  0.996193  0
H  H51  1  0.90003642  0.17052926  0.48853556  1  0  0.076058  0  0.932424  0  0  0.084084  0  0.995384  0  0  0.086198  0  0.994001  0  0  0.104766  0.082598  0  0.996157  0
C  C52  1  0.22292134  0.11556819  0.96472809  1  0  0.253719  0  3.605331  0  0  0.193582  0  3.876865  0  0  0.207701  0  3.887947  0  0  0.159925  0.184488  0  3.868944  0
C  C53  1  0.72292105  0.88443202  0.53527097  1  0  0.253685  0  3.605262  0  0  0.193543  0  3.876797  0  0  0.207664  0  3.887879  0  0  0.159911  0.184434  0  3.868867  0
C  C54  1  0.77707786  0.88443350  0.03526926  1  0  0.253588  0  3.605414  0  0  0.193428  0  3.876951  0  0  0.207549  0  3.888033  0  0  0.159825  0.184335  0  3.869027  0
C  C55  1  0.27708027  0.11557129  0.46473541  1  0  0.253786  0  3.605368  0  0  0.193562  0  3.876877  0  0  0.207684  0  3.887958  0  0  0.159876  0.184448  0  3.868949  0
C  C56  1  0.11724716  0.18995697  0.12193726  1  0  0.011358  0  3.597113  0  0  -0.035211  0  3.856603  0  0  -0.02965  0  3.872973  0  0  0.031951  -0.038986  0  3.846211  0
C  C57  1  0.61724642  0.81004170  0.37806216  1  0  0.011376  0  3.597149  0  0  -0.035231  0  3.856656  0  0  -0.029673  0  3.873029  0  0  0.031928  -0.039022  0  3.84625  0
C  C58  1  0.88275310  0.81004296  0.87806047  1  0  0.011339  0  3.597068  0  0  -0.03523  0  3.856565  0  0  -0.029667  0  3.872933  0  0  0.031917  -0.03901  0  3.846175  0
C  C59  1  0.38276017  0.18995638  0.62194301  1  0  0.011565  0  3.597104  0  0  -0.035088  0  3.856613  0  0  -0.029525  0  3.872976  0  0  0.031919  -0.038884  0  3.846212  0
C  C60  1  0.01876696  0.16840821  0.03931758  1  0  0.080031  0  3.849164  0  0  0.080695  0  4.108378  0  0  0.076857  0  4.133805  0  0  0.070071  0.082858  0  4.091924  0
C  C61  1  0.51876720  0.83158956  0.46068169  1  0  0.079979  0  3.849245  0  0  0.080686  0  4.108396  0  0  0.07685  0  4.133825  0  0  0.070063  0.082856  0  4.091932  0
C  C62  1  0.98123330  0.83159260  0.96068035  1  0  0.080089  0  3.849198  0  0  0.080736  0  4.108422  0  0  0.076898  0  4.133849  0  0  0.07007  0.082896  0  4.091971  0
C  C63  1  0.48123727  0.16840767  0.53932171  1  0  0.079942  0  3.84946  0  0  0.080718  0  4.108472  0  0  0.076883  0  4.133901  0  0  0.070083  0.082875  0  4.092027  0
C  C64  1  0.86885542  0.18884581  0.03567931  1  0  0.144266  0  3.661058  0  0  0.102289  0  3.911366  0  0  0.117357  0  3.922277  0  0  0.091953  0.091909  0  3.904682  0
C  C65  1  0.36885522  0.81115470  0.46432038  1  0  0.144309  0  3.661043  0  0  0.102341  0  3.911304  0  0  0.11741  0  3.922218  0  0  0.091981  0.091961  0  3.904619  0
C  C66  1  0.13114379  0.81115760  0.96432002  1  0  0.144246  0  3.661034  0  0  0.102261  0  3.911339  0  0  0.11732  0  3.92226  0  0  0.091891  0.091885  0  3.904649  0
C  C67  1  0.63114715  0.18884258  0.53567910  1  0  0.144241  0  3.661311  0  0  0.102237  0  3.911564  0  0  0.117288  0  3.922491  0  0  0.091932  0.09186  0  3.904874  0
C  C68  1  0.66579582  0.17733526  0.91883550  1  0  0.008995  0  3.663229  0  0  -0.001655  0  3.896329  0  0  -0.003017  0  3.91015  0  0  0.007443  -0.000766  0  3.886906  0
C  C69  1  0.16579500  0.82266580  0.58116459  1  0  0.009045  0  3.663196  0  0  -0.001659  0  3.896395  0  0  -0.002991  0  3.910169  0  0  0.007457  -0.000772  0  3.886979  0
C  C70  1  0.33420444  0.82266727  0.08116441  1  0  0.009088  0  3.663356  0  0  -0.001628  0  3.89648  0  0  -0.00296  0  3.910255  0  0  0.007445  -0.000748  0  3.887068  0
C  C71  1  0.83420631  0.17733148  0.41883567  1  0  0.009158  0  3.66324  0  0  -0.001502  0  3.896315  0  0  -0.002882  0  3.91016  0  0  0.007477  -0.000613  0  3.886894  0
C  C72  1  0.62855492  0.07781437  0.82077345  1  0  0.63833  0  3.852804  0  0  0.584318  0  4.154014  0  0  0.617655  0  4.147823  0  0  0.208534  0.56178  0  4.157122  0
C  C73  1  0.12855407  0.92218581  0.67922567  1  0  0.638297  0  3.852877  0  0  0.584336  0  4.154032  0  0  0.617667  0  4.147834  0  0  0.208557  0.561799  0  4.157145  0
C  C74  1  0.37144534  0.92218729  0.17922626  1  0  0.638325  0  3.852852  0  0  0.584376  0  4.153978  0  0  0.617704  0  4.147787  0  0  0.208573  0.561847  0  4.157079  0
C  C75  1  0.87144514  0.07781150  0.32077223  1  0  0.638264  0  3.852942  0  0  0.584295  0  4.154075  0  0  0.617636  0  4.147886  0  0  0.208543  0.561755  0  4.157194  0
C  C76  1  0.63462832  0.29542684  0.88928992  1  0  -0.178869  0  3.66876  0  0  -0.229151  0  3.912675  0  0  -0.230191  0  3.925032  0  0  -0.152549  -0.228349  0  3.904299  0
C  C77  1  0.13462632  0.70457335  0.61070841  1  0  -0.178688  0  3.668606  0  0  -0.22905  0  3.912617  0  0  -0.230087  0  3.924972  0  0  -0.152499  -0.228247  0  3.904244  0
C  C78  1  0.36537089  0.70457481  0.11071057  1  0  -0.178813  0  3.66871  0  0  -0.229072  0  3.9126  0  0  -0.230112  0  3.924954  0  0  -0.15256  -0.22827  0  3.904228  0
C  C79  1  0.86537183  0.29542568  0.38929069  1  0  -0.178869  0  3.668791  0  0  -0.229158  0  3.912692  0  0  -0.230185  0  3.925057  0  0  -0.152542  -0.228354  0  3.904318  0
C  C80  1  0.67581733  0.39929012  0.97756584  1  0  0.092487  0  3.759721  0  0  0.117184  0  3.992167  0  0  0.116605  0  4.018325  0  0  -0.016831  0.117334  0  3.974541  0
C  C81  1  0.17581746  0.60071093  0.52243425  1  0  0.092392  0  3.759811  0  0  0.117141  0  3.99223  0  0  0.116564  0  4.018385  0  0  -0.016899  0.117292  0  3.974604  0
C  C82  1  0.32417977  0.60071153  0.02243387  1  0  0.092333  0  3.759897  0  0  0.117048  0  3.992326  0  0  0.116469  0  4.018483  0  0  -0.016884  0.117199  0  3.974697  0
C  C83  1  0.82418280  0.39928812  0.47756407  1  0  0.092432  0  3.75992  0  0  0.117143  0  3.992349  0  0  0.116564  0  4.018506  0  0  -0.016864  0.117294  0  3.974721  0
C  C84  1  0.79090555  0.46871349  0.96408059  1  0  -0.131745  0  3.751398  0  0  -0.150273  0  3.99195  0  0  -0.153635  0  4.014307  0  0  -0.098338  -0.148083  0  3.976657  0
C  C85  1  0.29090560  0.53128937  0.53591905  1  0  -0.131746  0  3.751461  0  0  -0.150279  0  3.991994  0  0  -0.153641  0  4.014351  0  0  -0.098344  -0.148092  0  3.976705  0
C  C86  1  0.20909577  0.53128815  0.03591990  1  0  -0.131789  0  3.751518  0  0  -0.150327  0  3.992083  0  0  -0.15369  0  4.014443  0  0  -0.098378  -0.14813  0  3.976797  0
C  C87  1  0.70909571  0.46871057  0.46407868  1  0  -0.131646  0  3.751468  0  0  -0.150176  0  3.992033  0  0  -0.153538  0  4.014392  0  0  -0.098318  -0.147988  0  3.976742  0
C  C88  1  0.83214253  0.56292796  0.04743055  1  0  -0.070495  0  3.800945  0  0  -0.081156  0  4.04559  0  0  -0.083105  0  4.068976  0  0  -0.100949  -0.079772  0  4.029175  0
C  C89  1  0.33214731  0.43707341  0.45256936  1  0  -0.070524  0  3.801051  0  0  -0.081187  0  4.045685  0  0  -0.083133  0  4.06907  0  0  -0.100981  -0.079806  0  4.02928  0
C  C90  1  0.16785457  0.43707192  0.95257111  1  0  -0.070468  0  3.801033  0  0  -0.081139  0  4.045681  0  0  -0.083086  0  4.069069  0  0  -0.100988  -0.079757  0  4.029272  0
C  C91  1  0.66785821  0.56292653  0.54742759  1  0  -0.070484  0  3.801001  0  0  -0.081175  0  4.045674  0  0  -0.083119  0  4.069058  0  0  -0.100986  -0.079793  0  4.02927  0
C  C92  1  0.76033276  0.58738962  0.14617264  1  0  -0.095382  0  3.804029  0  0  -0.107914  0  4.049628  0  0  -0.110692  0  4.072004  0  0  -0.106207  -0.105783  0  4.034138  0
C  C93  1  0.26033658  0.41260907  0.35382906  1  0  -0.095383  0  3.804164  0  0  -0.107905  0  4.04973  0  0  -0.110681  0  4.072105  0  0  -0.106173  -0.105775  0  4.034243  0
C  C94  1  0.23966118  0.41260676  0.85382899  1  0  -0.095292  0  3.804088  0  0  -0.107814  0  4.049647  0  0  -0.110588  0  4.072021  0  0  -0.106121  -0.105684  0  4.03416  0
C  C95  1  0.73966474  0.58738909  0.64616984  1  0  -0.095337  0  3.804032  0  0  -0.107853  0  4.049593  0  0  -0.110628  0  4.071965  0  0  -0.10616  -0.105724  0  4.034107  0
C  C96  1  0.64429413  0.51932832  0.15990890  1  0  -0.078421  0  3.809612  0  0  -0.089301  0  4.057029  0  0  -0.091338  0  4.079424  0  0  -0.098947  -0.087719  0  4.041592  0
C  C97  1  0.14429486  0.48066770  0.34009303  1  0  -0.07831  0  3.80976  0  0  -0.089173  0  4.057177  0  0  -0.091212  0  4.079571  0  0  -0.09896  -0.087593  0  4.041741  0
C  C98  1  0.35570613  0.48066629  0.84009389  1  0  -0.078461  0  3.809903  0  0  -0.089338  0  4.057333  0  0  -0.091377  0  4.079723  0  0  -0.098968  -0.087759  0  4.041897  0
C  C99  1  0.85570750  0.51932956  0.65990802  1  0  -0.078474  0  3.80979  0  0  -0.089274  0  4.057195  0  0  -0.091314  0  4.079587  0  0  -0.09896  -0.087697  0  4.041763  0
C  C100  1  0.60145297  0.42702577  0.07563837  1  0  -0.114356  0  3.740778  0  0  -0.134687  0  3.985169  0  0  -0.137924  0  4.008086  0  0  -0.096844  -0.131991  0  3.968959  0
C  C101  1  0.10145473  0.57297291  0.42436027  1  0  -0.114335  0  3.740884  0  0  -0.134706  0  3.985232  0  0  -0.137942  0  4.008146  0  0  -0.096765  -0.131997  0  3.969012  0
C  C102  1  0.39854308  0.57297328  0.92435994  1  0  -0.114178  0  3.740931  0  0  -0.134511  0  3.985291  0  0  -0.137745  0  4.008204  0  0  -0.096779  -0.131807  0  3.969072  0
C  C103  1  0.89854658  0.42702614  0.57563804  1  0  -0.11436  0  3.740813  0  0  -0.134698  0  3.985157  0  0  -0.137935  0  4.008072  0  0  -0.096829  -0.132  0  3.968946  0
N  N104  1  0.08710222  0.12096981  0.94203097  1  0  -0.418301  0  3.241307  0  0  -0.349394  0  3.530516  0  0  -0.369148  0  3.546258  0  0  -0.342828  -0.33616  0  3.519967  0
N  N105  1  0.58710189  0.87902772  0.55796835  1  0  -0.418231  0  3.241264  0  0  -0.349323  0  3.530446  0  0  -0.369082  0  3.546194  0  0  -0.342814  -0.336091  0  3.519899  0
N  N106  1  0.91289699  0.87903099  0.05796697  1  0  -0.41825  0  3.241308  0  0  -0.349321  0  3.530503  0  0  -0.369075  0  3.546245  0  0  -0.342798  -0.336085  0  3.519952  0
N  N107  1  0.41290047  0.12097300  0.44203586  1  0  -0.418376  0  3.24147  0  0  -0.349376  0  3.530528  0  0  -0.36913  0  3.546265  0  0  -0.34283  -0.336141  0  3.519988  0
N  N108  1  0.24424919  0.15685674  0.07314147  1  0  -0.264801  0  3.440991  0  0  -0.197883  0  3.676316  0  0  -0.21512  0  3.691566  0  0  -0.367955  -0.186597  0  3.665807  0
N  N109  1  0.74424843  0.84314287  0.42685730  1  0  -0.264874  0  3.440898  0  0  -0.19795  0  3.67624  0  0  -0.215186  0  3.691489  0  0  -0.367961  -0.186614  0  3.665689  0
N  N110  1  0.75575107  0.84314319  0.92685626  1  0  -0.264768  0  3.44087  0  0  -0.19785  0  3.676205  0  0  -0.21509  0  3.691457  0  0  -0.367868  -0.186562  0  3.665691  0
N  N111  1  0.25575605  0.15685785  0.57314691  1  0  -0.264922  0  3.440954  0  0  -0.198001  0  3.676378  0  0  -0.215237  0  3.691624  0  0  -0.36788  -0.186659  0  3.665821  0
N  N112  1  0.81326010  0.16523075  0.94053393  1  0  -0.335804  0  3.297605  0  0  -0.259125  0  3.57018  0  0  -0.280054  0  3.586884  0  0  -0.337509  -0.245902  0  3.559642  0
N  N113  1  0.31325932  0.83477036  0.55946607  1  0  -0.335859  0  3.297576  0  0  -0.25917  0  3.570162  0  0  -0.280109  0  3.586864  0  0  -0.337538  -0.245951  0  3.55963  0
N  N114  1  0.18674121  0.83477264  0.05946696  1  0  -0.335858  0  3.297604  0  0  -0.259136  0  3.570162  0  0  -0.280071  0  3.586861  0  0  -0.337466  -0.245916  0  3.559628  0
N  N115  1  0.68674199  0.16522691  0.44053419  1  0  -0.335846  0  3.297731  0  0  -0.259165  0  3.57032  0  0  -0.280083  0  3.58703  0  0  -0.337512  -0.245947  0  3.559791  0
Cl  Cl116  1  0.96768405  0.21391731  0.70211909  1  0  -0.573612  0  0.960965  0  0  -0.518296  0  1.23565  0  0  -0.533644  0  1.211343  0  0  -0.279114  -0.507009  0  1.251619  0
Cl  Cl117  1  0.46768191  0.78608210  0.79788199  1  0  -0.573615  0  0.96096  0  0  -0.518307  0  1.235657  0  0  -0.533655  0  1.211347  0  0  -0.279109  -0.507021  0  1.251624  0
Cl  Cl118  1  0.03231305  0.78608175  0.29787844  1  0  -0.57361  0  0.960959  0  0  -0.518311  0  1.235662  0  0  -0.533661  0  1.211357  0  0  -0.279124  -0.507023  0  1.251628  0
Cl  Cl119  1  0.53231519  0.21392035  0.20212341  1  0  -0.573614  0  0.960979  0  0  -0.518303  0  1.235674  0  0  -0.533651  0  1.211369  0  0  -0.279127  -0.507019  0  1.251643  0
O  O120  1  0.72613848  0.01726958  0.76832115  1  0  -0.604621  0  2.046873  0  0  -0.543152  0  2.303799  0  0  -0.569168  0  2.293712  0  0  -0.303835  -0.524678  0  2.309691  0
O  O121  1  0.22613867  0.98272980  0.73167536  1  0  -0.604625  0  2.046942  0  0  -0.543158  0  2.303832  0  0  -0.569187  0  2.293773  0  0  -0.303858  -0.524659  0  2.309671  0
O  O122  1  0.27385968  0.98272947  0.23167716  1  0  -0.604668  0  2.046952  0  0  -0.543207  0  2.303833  0  0  -0.569233  0  2.29377  0  0  -0.303875  -0.524712  0  2.309667  0
O  O123  1  0.77385842  0.01726926  0.26832217  1  0  -0.6046  0  2.047029  0  0  -0.543122  0  2.303895  0  0  -0.56915  0  2.293837  0  0  -0.30383  -0.524623  0  2.309735  0
O  O124  1  0.49730555  0.06409738  0.79790578  1  0  -0.626131  0  2.090707  0  0  -0.553956  0  2.361432  0  0  -0.583232  0  2.349094  0  0  -0.317796  -0.532998  0  2.368688  0
O  O125  1  0.99730511  0.93590204  0.70209529  1  0  -0.626123  0  2.090685  0  0  -0.553968  0  2.361397  0  0  -0.583245  0  2.349065  0  0  -0.317805  -0.53301  0  2.368651  0
O  O126  1  0.50269471  0.93590425  0.20209550  1  0  -0.626166  0  2.090696  0  0  -0.553996  0  2.361373  0  0  -0.583265  0  2.349032  0  0  -0.317815  -0.533041  0  2.368622  0
O  O127  1  0.00269409  0.06409527  0.29790261  1  0  -0.626189  0  2.090764  0  0  -0.554017  0  2.361454  0  0  -0.583289  0  2.349111  0  0  -0.317816  -0.533061  0  2.368709  0
