# generated using pymatgen
data_Zn2H6C4S(N2O)4
_symmetry_space_group_name_H-M   'P 1'
_cell_length_a   7.79908480
_cell_length_b   9.64102662
_cell_length_c   9.29718777
_cell_angle_alpha   94.36341333
_cell_angle_beta   110.82916206
_cell_angle_gamma   113.60809470
_symmetry_Int_Tables_number   1
_chemical_formula_structural   Zn2H6C4S(N2O)4
_chemical_formula_sum   'Zn4 H12 C8 S2 N16 O8'
_cell_volume   578.88479059
_cell_formula_units_Z   2
loop_
 _symmetry_equiv_pos_site_id
 _symmetry_equiv_pos_as_xyz
  1  'x, y, z'
loop_
 _atom_site_type_symbol
 _atom_site_label
 _atom_site_symmetry_multiplicity
 _atom_site_fract_x
 _atom_site_fract_y
 _atom_site_fract_z
 _atom_site_occupancy
 _atom_site_hle17_bader_spin_density
 _atom_site_hle17_ddec_charge
 _atom_site_hle17_ddec_spin_density
 _atom_site_hle17_ddec_sum_bond_order
 _atom_site_hle17_magmom
 _atom_site_hse06_10hf_bader_spin_density
 _atom_site_hse06_10hf_ddec_charge
 _atom_site_hse06_10hf_ddec_spin_density
 _atom_site_hse06_10hf_ddec_sum_bond_order
 _atom_site_hse06_10hf_magmom
 _atom_site_hse06_bader_spin_density
 _atom_site_hse06_ddec_charge
 _atom_site_hse06_ddec_spin_density
 _atom_site_hse06_ddec_sum_bond_order
 _atom_site_hse06_magmom
 _atom_site_pbe_bader_spin_density
 _atom_site_pbe_cm5_charge
 _atom_site_pbe_ddec_charge
 _atom_site_pbe_ddec_spin_density
 _atom_site_pbe_ddec_sum_bond_order
 _atom_site_pbe_magmom
Zn  Zn0  1  0.32058300  0.30572673  0.99850835  1  0  0.983735  0  1.921731  0  0  0.784314  0  2.41256  0  0  0.824949  0  2.363535  0  0  0.743612  0.755994  0  2.446487  0
Zn  Zn1  1  0.67942654  0.69427337  0.00149440  1  0  0.983738  0  1.921641  0  0  0.784313  0  2.412469  0  0  0.82495  0  2.363445  0  0  0.743578  0.755984  0  2.446392  0
Zn  Zn2  1  0.53284749  0.19020035  0.47524499  1  0  0.959736  0  1.974843  0  0  0.76675  0  2.465033  0  0  0.806179  0  2.41597  0  0  0.738342  0.739532  0  2.498618  0
Zn  Zn3  1  0.46715356  0.80980050  0.52476118  1  0  0.959781  0  1.974649  0  0  0.76683  0  2.464875  0  0  0.80624  0  2.415861  0  0  0.738373  0.739611  0  2.49846  0
H  H4  1  0.94031760  0.60883460  0.75987418  1  0  0.340325  0  0.918999  0  0  0.324547  0  0.979101  0  0  0.332271  0  0.972648  0  0  0.295697  0.319253  0  0.983211  0
H  H5  1  0.05967782  0.39116824  0.24011819  1  0  0.3403  0  0.919055  0  0  0.324529  0  0.979154  0  0  0.332252  0  0.972702  0  0  0.295707  0.319235  0  0.983264  0
H  H6  1  0.77028685  0.53461112  0.56926635  1  0  0.335539  0  0.875998  0  0  0.325676  0  0.929605  0  0  0.331637  0  0.92485  0  0  0.306194  0.321365  0  0.932944  0
H  H7  1  0.22969670  0.46538583  0.43072216  1  0  0.335417  0  0.876083  0  0  0.325599  0  0.929641  0  0  0.331561  0  0.924878  0  0  0.306153  0.321287  0  0.932982  0
H  H8  1  0.10695617  0.94605742  0.88458579  1  0  0.354869  0  0.855689  0  0  0.342759  0  0.909549  0  0  0.349245  0  0.904537  0  0  0.314777  0.338081  0  0.913193  0
H  H9  1  0.89303704  0.05393577  0.11540920  1  0  0.354957  0  0.855818  0  0  0.342857  0  0.909633  0  0  0.349344  0  0.90462  0  0  0.31481  0.338181  0  0.913274  0
H  H10  1  0.87209830  0.80296251  0.75113732  1  0  0.314445  0  0.94228  0  0  0.294766  0  1.014438  0  0  0.302272  0  1.008053  0  0  0.292601  0.29007  0  1.018227  0
H  H11  1  0.12789105  0.19703252  0.24886399  1  0  0.314419  0  0.942288  0  0  0.294702  0  1.014484  0  0  0.302207  0  1.008102  0  0  0.292563  0.290006  0  1.018275  0
H  H12  1  0.25873107  0.14780906  0.66811229  1  0  0.104987  0  0.915516  0  0  0.118042  0  0.969988  0  0  0.119966  0  0.967633  0  0  0.143515  0.116418  0  0.97194  0
H  H13  1  0.74127319  0.85219054  0.33189604  1  0  0.105014  0  0.915466  0  0  0.118069  0  0.969937  0  0  0.119992  0  0.96758  0  0  0.143522  0.116442  0  0.971891  0
H  H14  1  0.98927621  0.37666060  0.75892386  1  0  0.106819  0  0.951638  0  0  0.115869  0  1.016271  0  0  0.118718  0  1.012106  0  0  0.137432  0.114183  0  1.018427  0
H  H15  1  0.01074238  0.62334276  0.24106847  1  0  0.106729  0  0.951669  0  0  0.11577  0  1.016321  0  0  0.118618  0  1.012155  0  0  0.137399  0.114085  0  1.01848  0
C  C16  1  0.63853097  0.47389722  0.71807837  1  0  0.587099  0  3.783275  0  0  0.538959  0  4.061424  0  0  0.561682  0  4.072004  0  0  0.327636  0.523793  0  4.053866  0
C  C17  1  0.36147232  0.52610633  0.28192348  1  0  0.587114  0  3.783288  0  0  0.53896  0  4.061448  0  0  0.561679  0  4.072029  0  0  0.327645  0.523795  0  4.053888  0
C  C18  1  0.38093894  0.26705433  0.70508848  1  0  0.240302  0  3.708714  0  0  0.181333  0  3.976871  0  0  0.196961  0  3.987936  0  0  0.154094  0.171082  0  3.969533  0
C  C19  1  0.61906402  0.73294908  0.29491539  1  0  0.240346  0  3.708729  0  0  0.181382  0  3.976885  0  0  0.197013  0  3.987948  0  0  0.154131  0.171132  0  3.969544  0
C  C20  1  0.90598827  0.02523470  0.77209777  1  0  0.61135  0  3.814681  0  0  0.561451  0  4.089048  0  0  0.58638  0  4.098353  0  0  0.335137  0.545045  0  4.082013  0
C  C21  1  0.09400795  0.97476412  0.22790210  1  0  0.611314  0  3.814831  0  0  0.561482  0  4.089088  0  0  0.58641  0  4.098395  0  0  0.335095  0.545076  0  4.08205  0
C  C22  1  0.92685783  0.25068201  0.74393565  1  0  0.234617  0  3.708263  0  0  0.173014  0  3.976969  0  0  0.189837  0  3.986924  0  0  0.148126  0.162005  0  3.969406  0
C  C23  1  0.07315782  0.74931895  0.25605646  1  0  0.234704  0  3.708053  0  0  0.173113  0  3.976771  0  0  0.189937  0  3.986723  0  0  0.148112  0.162101  0  3.969212  0
S  S24  1  0.66180827  0.24504793  0.21588035  1  0  1.54215  0  5.839129  0  0  1.431534  0  6.365736  0  0  1.486692  0  6.331729  0  0  0.543112  1.393232  0  6.388188  0
S  S25  1  0.33818844  0.75494964  0.78412067  1  0  1.542178  0  5.840308  0  0  1.431548  0  6.366918  0  0  1.486706  0  6.33291  0  0  0.543091  1.393253  0  6.389369  0
N  N26  1  0.44020520  0.36991544  0.83710472  1  0  -0.27523  0  3.24616  0  0  -0.211545  0  3.550165  0  0  -0.226904  0  3.563173  0  0  -0.260545  -0.201528  0  3.541931  0
N  N27  1  0.55979635  0.63008563  0.16289841  1  0  -0.275248  0  3.2463  0  0  -0.21158  0  3.550306  0  0  -0.226941  0  3.563314  0  0  -0.260564  -0.201561  0  3.542067  0
N  N28  1  0.60457036  0.50403233  0.84606920  1  0  -0.374036  0  3.145583  0  0  -0.303239  0  3.447898  0  0  -0.322389  0  3.457362  0  0  -0.266127  -0.290741  0  3.442006  0
N  N29  1  0.39542797  0.49597000  0.15393178  1  0  -0.374073  0  3.145574  0  0  -0.303231  0  3.447851  0  0  -0.322376  0  3.457313  0  0  -0.266099  -0.290736  0  3.441963  0
N  N30  1  0.49915211  0.32615859  0.62652526  1  0  -0.524724  0  3.219797  0  0  -0.443661  0  3.521951  0  0  -0.467554  0  3.528384  0  0  -0.372853  -0.427806  0  3.517427  0
N  N31  1  0.50084535  0.67384249  0.37347636  1  0  -0.524774  0  3.21987  0  0  -0.443709  0  3.522025  0  0  -0.467602  0  3.528456  0  0  -0.37287  -0.427854  0  3.517503  0
N  N32  1  0.78928436  0.57732321  0.68100411  1  0  -0.718593  0  3.022937  0  0  -0.680544  0  3.248863  0  0  -0.69925  0  3.243479  0  0  -0.584395  -0.667802  0  3.25165  0
N  N33  1  0.21070670  0.42267343  0.31899149  1  0  -0.718473  0  3.022865  0  0  -0.680466  0  3.24875  0  0  -0.699171  0  3.243372  0  0  -0.584392  -0.667724  0  3.251537  0
N  N34  1  0.03176446  0.18225266  0.83451151  1  0  -0.532999  0  3.210431  0  0  -0.444185  0  3.509979  0  0  -0.469156  0  3.514718  0  0  -0.37228  -0.4275  0  3.506284  0
N  N35  1  0.96824732  0.81775014  0.16548691  1  0  -0.532988  0  3.210437  0  0  -0.444207  0  3.509988  0  0  -0.469175  0  3.514721  0  0  -0.372214  -0.42752  0  3.506286  0
N  N36  1  0.74559737  0.14544778  0.63348015  1  0  -0.275708  0  3.270325  0  0  -0.20858  0  3.575982  0  0  -0.224242  0  3.588001  0  0  -0.267749  -0.198207  0  3.567791  0
N  N37  1  0.25441115  0.85455393  0.36651588  1  0  -0.275701  0  3.270228  0  0  -0.208594  0  3.575883  0  0  -0.224255  0  3.587903  0  0  -0.267728  -0.198223  0  3.567696  0
N  N38  1  0.72932108  0.99970876  0.65026198  1  0  -0.409397  0  3.150442  0  0  -0.335536  0  3.452072  0  0  -0.355881  0  3.460682  0  0  -0.284446  -0.322156  0  3.446424  0
N  N39  1  0.27067760  0.00029313  0.34974558  1  0  -0.409368  0  3.150431  0  0  -0.335487  0  3.451984  0  0  -0.355833  0  3.460593  0  0  -0.284427  -0.322109  0  3.446334  0
N  N40  1  0.95315345  0.91344726  0.82635356  1  0  -0.691957  0  3.076127  0  0  -0.660686  0  3.320235  0  0  -0.680315  0  3.315228  0  0  -0.580422  -0.647471  0  3.322994  0
N  N41  1  0.04683949  0.08654901  0.17364811  1  0  -0.692068  0  3.076353  0  0  -0.660796  0  3.320466  0  0  -0.680425  0  3.315455  0  0  -0.580442  -0.647586  0  3.323232  0
O  O42  1  0.43930554  0.17123151  0.09116427  1  0  -0.737124  0  2.024411  0  0  -0.659529  0  2.313724  0  0  -0.68367  0  2.291266  0  0  -0.373375  -0.642297  0  2.328394  0
O  O43  1  0.56067410  0.82876494  0.90883032  1  0  -0.737235  0  2.024684  0  0  -0.659587  0  2.313929  0  0  -0.683725  0  2.29147  0  0  -0.373366  -0.642356  0  2.328596  0
O  O44  1  0.66546693  0.33219879  0.36370354  1  0  -0.761088  0  1.987477  0  0  -0.686619  0  2.272899  0  0  -0.710022  0  2.250279  0  0  -0.38783  -0.670036  0  2.28769  0
O  O45  1  0.33453290  0.66780851  0.63631144  1  0  -0.760926  0  1.987683  0  0  -0.68659  0  2.273247  0  0  -0.709977  0  2.250597  0  0  -0.387821  -0.670005  0  2.288035  0
O  O46  1  0.72011158  0.12168363  0.25406279  1  0  -0.701029  0  1.879939  0  0  -0.660746  0  2.115905  0  0  -0.681663  0  2.100164  0  0  -0.367413  -0.645785  0  2.126242  0
O  O47  1  0.27988263  0.87830649  0.74594310  1  0  -0.701029  0  1.880247  0  0  -0.660728  0  2.116208  0  0  -0.681645  0  2.100466  0  0  -0.367413  -0.645767  0  2.126546  0
O  O48  1  0.79727861  0.36299951  0.16088292  1  0  -0.714045  0  1.911931  0  0  -0.664117  0  2.143817  0  0  -0.685718  0  2.128012  0  0  -0.362803  -0.648691  0  2.154039  0
O  O49  1  0.20273437  0.63700321  0.83911702  1  0  -0.714171  0  1.912221  0  0  -0.664206  0  2.144083  0  0  -0.68581  0  2.128276  0  0  -0.362879  -0.648782  0  2.154305  0
