# generated using pymatgen
data_CuH3(CN2)2
_symmetry_space_group_name_H-M   'P 1'
_cell_length_a   8.23596538
_cell_length_b   9.53314164
_cell_length_c   10.28384456
_cell_angle_alpha   89.99987609
_cell_angle_beta   90.00017375
_cell_angle_gamma   108.12735780
_symmetry_Int_Tables_number   1
_chemical_formula_structural   CuH3(CN2)2
_chemical_formula_sum   'Cu8 H24 C16 N32'
_cell_volume   767.35713915
_cell_formula_units_Z   8
loop_
 _symmetry_equiv_pos_site_id
 _symmetry_equiv_pos_as_xyz
  1  'x, y, z'
loop_
 _atom_site_type_symbol
 _atom_site_label
 _atom_site_symmetry_multiplicity
 _atom_site_fract_x
 _atom_site_fract_y
 _atom_site_fract_z
 _atom_site_occupancy
 _atom_site_hle17_bader_spin_density
 _atom_site_hle17_ddec_charge
 _atom_site_hle17_ddec_spin_density
 _atom_site_hle17_ddec_sum_bond_order
 _atom_site_hle17_magmom
 _atom_site_hse06_10hf_bader_spin_density
 _atom_site_hse06_10hf_ddec_charge
 _atom_site_hse06_10hf_ddec_spin_density
 _atom_site_hse06_10hf_ddec_sum_bond_order
 _atom_site_hse06_10hf_magmom
 _atom_site_hse06_bader_spin_density
 _atom_site_hse06_ddec_charge
 _atom_site_hse06_ddec_spin_density
 _atom_site_hse06_ddec_sum_bond_order
 _atom_site_hse06_magmom
 _atom_site_pbe_bader_spin_density
 _atom_site_pbe_cm5_charge
 _atom_site_pbe_ddec_charge
 _atom_site_pbe_ddec_spin_density
 _atom_site_pbe_ddec_sum_bond_order
 _atom_site_pbe_magmom
Cu  Cu0  1  0.31089685  0.01392708  0.61721312  1  0  0.393793  0  1.909525  0  0  0.256763  0  2.405706  0  0  0.26955  0  2.350696  0  0  0.508875  0.249459  0  2.443629  0
Cu  Cu1  1  0.18910427  0.48607465  0.11721174  1  0  0.393823  0  1.909614  0  0  0.256771  0  2.405797  0  0  0.269557  0  2.350784  0  0  0.508845  0.249456  0  2.443664  0
Cu  Cu2  1  0.68910421  0.98607562  0.38278665  1  0  0.393785  0  1.909493  0  0  0.25676  0  2.405692  0  0  0.269558  0  2.350695  0  0  0.508848  0.249457  0  2.443599  0
Cu  Cu3  1  0.81089716  0.51392582  0.88278705  1  0  0.393809  0  1.909539  0  0  0.256788  0  2.405733  0  0  0.269583  0  2.350742  0  0  0.508869  0.24948  0  2.443632  0
Cu  Cu4  1  0.00207939  0.84125752  0.38401896  1  0  0.403914  0  1.924762  0  0  0.27232  0  2.417744  0  0  0.283738  0  2.364483  0  0  0.525978  0.265789  0  2.45411  0
Cu  Cu5  1  0.49792064  0.65874482  0.88401953  1  0  0.403892  0  1.924777  0  0  0.272282  0  2.417753  0  0  0.283714  0  2.364505  0  0  0.525981  0.265754  0  2.454126  0
Cu  Cu6  1  0.99792287  0.15874516  0.61597886  1  0  0.403898  0  1.92476  0  0  0.272283  0  2.417734  0  0  0.283709  0  2.364473  0  0  0.52598  0.265762  0  2.454103  0
Cu  Cu7  1  0.50207759  0.34125681  0.11598218  1  0  0.403924  0  1.92475  0  0  0.272312  0  2.417711  0  0  0.283732  0  2.364445  0  0  0.525956  0.265767  0  2.454074  0
H  H8  1  0.54382170  0.27176859  0.41711871  1  0  0.084583  0  0.971586  0  0  0.09359  0  1.03873  0  0  0.095774  0  1.036286  0  0  0.123139  0.091722  0  1.040944  0
H  H9  1  0.95618173  0.22823180  0.91711807  1  0  0.084595  0  0.971586  0  0  0.093605  0  1.038717  0  0  0.095789  0  1.036273  0  0  0.123164  0.091735  0  1.040929  0
H  H10  1  0.45618177  0.72823407  0.58287814  1  0  0.084619  0  0.971595  0  0  0.093622  0  1.03874  0  0  0.095806  0  1.036297  0  0  0.123151  0.091752  0  1.040953  0
H  H11  1  0.04382091  0.77176865  0.08287975  1  0  0.084592  0  0.971584  0  0  0.093597  0  1.038732  0  0  0.095781  0  1.036288  0  0  0.123136  0.091726  0  1.040944  0
H  H12  1  0.31392388  0.83970903  0.85693294  1  0  0.312566  0  0.90325  0  0  0.297304  0  0.971  0  0  0.30475  0  0.963659  0  0  0.295521  0.291759  0  0.976606  0
H  H13  1  0.18607686  0.66029223  0.35693416  1  0  0.312607  0  0.903219  0  0  0.297348  0  0.970952  0  0  0.304794  0  0.963613  0  0  0.295557  0.291801  0  0.976555  0
H  H14  1  0.68607635  0.16029146  0.14306682  1  0  0.31259  0  0.903214  0  0  0.297326  0  0.97096  0  0  0.304773  0  0.963618  0  0  0.295542  0.291781  0  0.976564  0
H  H15  1  0.81392216  0.33970828  0.64306949  1  0  0.312616  0  0.903209  0  0  0.297366  0  0.970924  0  0  0.30481  0  0.963587  0  0  0.29555  0.29182  0  0.976529  0
H  H16  1  0.18259353  0.68647578  0.92641571  1  0  0.310097  0  0.91641  0  0  0.291662  0  0.991735  0  0  0.300261  0  0.982199  0  0  0.291577  0.285617  0  0.99825  0
H  H17  1  0.31740701  0.81352428  0.42641597  1  0  0.310059  0  0.916421  0  0  0.291627  0  0.991757  0  0  0.300227  0  0.982215  0  0  0.291564  0.28558  0  0.998278  0
H  H18  1  0.81740628  0.31352360  0.07358406  1  0  0.310056  0  0.916435  0  0  0.29162  0  0.991765  0  0  0.300221  0  0.982229  0  0  0.291561  0.285575  0  0.998279  0
H  H19  1  0.68258955  0.18647294  0.57358672  1  0  0.310063  0  0.916408  0  0  0.291631  0  0.991739  0  0  0.300233  0  0.982193  0  0  0.291558  0.285586  0  0.99826  0
H  H20  1  0.79544046  0.56337995  0.56909496  1  0  0.076582  0  0.976623  0  0  0.086953  0  1.04498  0  0  0.089124  0  1.042373  0  0  0.120943  0.085102  0  1.047172  0
H  H21  1  0.70455782  0.93661642  0.06909858  1  0  0.076544  0  0.976684  0  0  0.086911  0  1.045043  0  0  0.089087  0  1.042438  0  0  0.120918  0.085061  0  1.047236  0
H  H22  1  0.20456177  0.43661940  0.43090189  1  0  0.076586  0  0.976588  0  0  0.086951  0  1.044951  0  0  0.089127  0  1.042347  0  0  0.120945  0.085101  0  1.047143  0
H  H23  1  0.29544241  0.06338407  0.93090313  1  0  0.076548  0  0.976692  0  0  0.086918  0  1.04505  0  0  0.089094  0  1.042446  0  0  0.120934  0.085067  0  1.047239  0
H  H24  1  0.13285751  0.16767046  0.08002454  1  0  0.301648  0  0.923977  0  0  0.285271  0  0.998173  0  0  0.291899  0  0.992123  0  0  0.292673  0.280391  0  1.002763  0
H  H25  1  0.36714386  0.33232911  0.58002638  1  0  0.301672  0  0.923934  0  0  0.285278  0  0.998155  0  0  0.291907  0  0.992105  0  0  0.292692  0.280402  0  1.002753  0
H  H26  1  0.86714188  0.83232783  0.91997523  1  0  0.301717  0  0.923886  0  0  0.285294  0  0.998133  0  0  0.29192  0  0.992086  0  0  0.292686  0.280415  0  1.002729  0
H  H27  1  0.63285878  0.66767135  0.41997436  1  0  0.301645  0  0.923969  0  0  0.285272  0  0.998159  0  0  0.291899  0  0.992111  0  0  0.292682  0.280392  0  1.002755  0
H  H28  1  0.99954194  0.01611447  0.15131621  1  0  0.311594  0  0.89666  0  0  0.29926  0  0.96092  0  0  0.305886  0  0.954745  0  0  0.299692  0.294448  0  0.965378  0
H  H29  1  0.50045859  0.48388412  0.65131685  1  0  0.311602  0  0.896619  0  0  0.299246  0  0.960918  0  0  0.305875  0  0.954743  0  0  0.299696  0.294435  0  0.965376  0
H  H30  1  0.00045666  0.98388493  0.84868355  1  0  0.311566  0  0.896659  0  0  0.299235  0  0.960925  0  0  0.305862  0  0.95475  0  0  0.299698  0.294423  0  0.965383  0
H  H31  1  0.49954284  0.51611636  0.34868389  1  0  0.311572  0  0.896647  0  0  0.299247  0  0.960905  0  0  0.305871  0  0.954733  0  0  0.299705  0.294436  0  0.965359  0
C  C32  1  0.10103130  0.73995276  0.75463641  1  0  0.550362  0  3.837708  0  0  0.51515  0  4.096341  0  0  0.534656  0  4.111669  0  0  0.302348  0.50219  0  4.085349  0
C  C33  1  0.39896582  0.76004315  0.25463892  1  0  0.550305  0  3.837761  0  0  0.515109  0  4.09636  0  0  0.534617  0  4.111686  0  0  0.302296  0.502149  0  4.085362  0
C  C34  1  0.89896768  0.26004442  0.24536044  1  0  0.550345  0  3.83765  0  0  0.515115  0  4.096293  0  0  0.534624  0  4.111619  0  0  0.302322  0.502157  0  4.085298  0
C  C35  1  0.60103037  0.23995629  0.74536279  1  0  0.550311  0  3.837769  0  0  0.515094  0  4.096393  0  0  0.5346  0  4.111721  0  0  0.302327  0.502135  0  4.085404  0
C  C36  1  0.90688300  0.63806985  0.61634778  1  0  0.194223  0  3.74095  0  0  0.146531  0  4.000707  0  0  0.158544  0  4.016032  0  0  0.117508  0.13866  0  3.989817  0
C  C37  1  0.59311626  0.86192866  0.11634739  1  0  0.1943  0  3.741003  0  0  0.1466  0  4.000761  0  0  0.158607  0  4.016092  0  0  0.11755  0.138727  0  3.989874  0
C  C38  1  0.09311482  0.36193067  0.38365199  1  0  0.19421  0  3.740974  0  0  0.146516  0  4.000719  0  0  0.158519  0  4.016052  0  0  0.117509  0.138645  0  3.989827  0
C  C39  1  0.40688150  0.13806854  0.88365238  1  0  0.19419  0  3.74095  0  0  0.146491  0  4.000709  0  0  0.158493  0  4.016043  0  0  0.117449  0.138619  0  3.989816  0
C  C40  1  0.22186676  0.10384158  0.24313784  1  0  0.561395  0  3.810391  0  0  0.524314  0  4.073924  0  0  0.543487  0  4.088532  0  0  0.307248  0.511406  0  4.063469  0
C  C41  1  0.27813556  0.39615885  0.74313641  1  0  0.561385  0  3.810355  0  0  0.524319  0  4.073871  0  0  0.543492  0  4.088482  0  0  0.307264  0.511407  0  4.063427  0
C  C42  1  0.77813468  0.89615890  0.75686290  1  0  0.561385  0  3.810363  0  0  0.524275  0  4.073942  0  0  0.543449  0  4.08855  0  0  0.307251  0.51137  0  4.063494  0
C  C43  1  0.72186629  0.60384272  0.25686335  1  0  0.56156  0  3.810204  0  0  0.524474  0  4.073754  0  0  0.543647  0  4.08836  0  0  0.307298  0.511565  0  4.063302  0
C  C44  1  0.42631739  0.19985973  0.37524325  1  0  0.173716  0  3.778324  0  0  0.125234  0  4.047399  0  0  0.138984  0  4.058222  0  0  0.112629  0.115847  0  4.040262  0
C  C45  1  0.07368374  0.30013943  0.87524152  1  0  0.173623  0  3.778297  0  0  0.125136  0  4.047393  0  0  0.138888  0  4.058214  0  0  0.112555  0.115748  0  4.040242  0
C  C46  1  0.57368321  0.80013854  0.62475943  1  0  0.173543  0  3.778299  0  0  0.125061  0  4.047388  0  0  0.138812  0  4.058211  0  0  0.112555  0.115677  0  4.040247  0
C  C47  1  0.92631728  0.69985994  0.12475630  1  0  0.173731  0  3.778286  0  0  0.125248  0  4.047363  0  0  0.139001  0  4.058181  0  0  0.112642  0.115862  0  4.040216  0
N  N48  1  0.14098092  0.82061346  0.64564796  1  0  -0.3893  0  3.245097  0  0  -0.319744  0  3.555132  0  0  -0.334938  0  3.5596  0  0  -0.324615  -0.31004  0  3.552042  0
N  N49  1  0.35901747  0.67938369  0.14564859  1  0  -0.38933  0  3.245077  0  0  -0.319778  0  3.555112  0  0  -0.334968  0  3.55957  0  0  -0.324619  -0.310069  0  3.551994  0
N  N50  1  0.85902010  0.17938591  0.35435278  1  0  -0.389325  0  3.245004  0  0  -0.319765  0  3.555053  0  0  -0.334964  0  3.559528  0  0  -0.324609  -0.310061  0  3.551961  0
N  N51  1  0.64098234  0.32061569  0.85435215  1  0  -0.389311  0  3.245117  0  0  -0.319753  0  3.555165  0  0  -0.33495  0  3.559641  0  0  -0.324608  -0.310046  0  3.552065  0
N  N52  1  0.01287488  0.75339658  0.55588863  1  0  -0.252446  0  3.32153  0  0  -0.187572  0  3.631189  0  0  -0.198559  0  3.640208  0  0  -0.310839  -0.180153  0  3.624737  0
N  N53  1  0.48712404  0.74660291  0.05588847  1  0  -0.252408  0  3.321446  0  0  -0.187515  0  3.63107  0  0  -0.198503  0  3.640098  0  0  -0.310847  -0.180095  0  3.624616  0
N  N54  1  0.98712418  0.24660726  0.44411210  1  0  -0.252393  0  3.321576  0  0  -0.187498  0  3.631198  0  0  -0.198486  0  3.640229  0  0  -0.310853  -0.180081  0  3.624744  0
N  N55  1  0.51287577  0.25339648  0.94411032  1  0  -0.252421  0  3.321537  0  0  -0.187537  0  3.631166  0  0  -0.198523  0  3.64019  0  0  -0.310824  -0.180115  0  3.6247  0
N  N56  1  0.95418242  0.62473780  0.74193999  1  0  -0.49586  0  3.284348  0  0  -0.415198  0  3.593027  0  0  -0.435379  0  3.596872  0  0  -0.413598  -0.401907  0  3.590397  0
N  N57  1  0.54581604  0.87526055  0.24194043  1  0  -0.495889  0  3.284314  0  0  -0.415228  0  3.592978  0  0  -0.435411  0  3.596825  0  0  -0.413579  -0.401938  0  3.590353  0
N  N58  1  0.04581539  0.37526273  0.25805881  1  0  -0.495903  0  3.284259  0  0  -0.415221  0  3.59291  0  0  -0.435397  0  3.596744  0  0  -0.413597  -0.401928  0  3.590263  0
N  N59  1  0.45418540  0.12473993  0.75805739  1  0  -0.495775  0  3.284224  0  0  -0.415092  0  3.592862  0  0  -0.435267  0  3.596699  0  0  -0.413543  -0.401802  0  3.59024  0
N  N60  1  0.19008421  0.77584527  0.86914230  1  0  -0.700113  0  3.076337  0  0  -0.669395  0  3.31783  0  0  -0.687046  0  3.310747  0  0  -0.598446  -0.656674  0  3.322645  0
N  N61  1  0.30991736  0.72415485  0.36913980  1  0  -0.700038  0  3.076376  0  0  -0.669331  0  3.317863  0  0  -0.68698  0  3.310779  0  0  -0.598418  -0.656611  0  3.322675  0
N  N62  1  0.80991602  0.22415522  0.13086038  1  0  -0.700025  0  3.076352  0  0  -0.669297  0  3.317844  0  0  -0.68695  0  3.310757  0  0  -0.598403  -0.656578  0  3.322652  0
N  N63  1  0.69008365  0.27584452  0.63085899  1  0  -0.700101  0  3.076341  0  0  -0.669388  0  3.317833  0  0  -0.687037  0  3.310747  0  0  -0.598437  -0.656666  0  3.322649  0
N  N64  1  0.18383652  0.02439785  0.35260860  1  0  -0.367826  0  3.259392  0  0  -0.304846  0  3.577042  0  0  -0.318712  0  3.580418  0  0  -0.323528  -0.29617  0  3.575102  0
N  N65  1  0.31616453  0.47560133  0.85260906  1  0  -0.367817  0  3.259386  0  0  -0.304852  0  3.57704  0  0  -0.318726  0  3.580428  0  0  -0.323533  -0.296178  0  3.575097  0
N  N66  1  0.81616329  0.97560153  0.64739116  1  0  -0.367837  0  3.259323  0  0  -0.304853  0  3.576989  0  0  -0.318723  0  3.580369  0  0  -0.323523  -0.296178  0  3.575056  0
N  N67  1  0.68383691  0.52439914  0.14739168  1  0  -0.367886  0  3.259362  0  0  -0.304907  0  3.577019  0  0  -0.318773  0  3.580392  0  0  -0.32355  -0.29623  0  3.575068  0
N  N68  1  0.31765624  0.08751045  0.43898204  1  0  -0.28747  0  3.375638  0  0  -0.221713  0  3.702164  0  0  -0.230528  0  3.702155  0  0  -0.316553  -0.216132  0  3.702829  0
N  N69  1  0.18234430  0.41248973  0.93898132  1  0  -0.287522  0  3.375707  0  0  -0.221755  0  3.702219  0  0  -0.230572  0  3.702214  0  0  -0.316582  -0.216167  0  3.702844  0
N  N70  1  0.68234032  0.91248676  0.56101967  1  0  -0.287404  0  3.37555  0  0  -0.221648  0  3.702063  0  0  -0.230469  0  3.702068  0  0  -0.31654  -0.216065  0  3.70272  0
N  N71  1  0.81765593  0.58751076  0.06101747  1  0  -0.287498  0  3.375626  0  0  -0.221733  0  3.702135  0  0  -0.230551  0  3.702135  0  0  -0.316554  -0.216146  0  3.702778  0
N  N72  1  0.37261690  0.21502011  0.25247294  1  0  -0.500556  0  3.344333  0  0  -0.424294  0  3.665254  0  0  -0.442442  0  3.664605  0  0  -0.416327  -0.41231  0  3.665628  0
N  N73  1  0.12738544  0.28498031  0.75247137  1  0  -0.500431  0  3.344133  0  0  -0.424176  0  3.665051  0  0  -0.442327  0  3.664405  0  0  -0.416274  -0.412201  0  3.665446  0
N  N74  1  0.62738411  0.78497927  0.74753169  1  0  -0.500462  0  3.344136  0  0  -0.424202  0  3.665077  0  0  -0.442357  0  3.664441  0  0  -0.416297  -0.41222  0  3.665465  0
N  N75  1  0.87261761  0.71502125  0.24752742  1  0  -0.500608  0  3.344227  0  0  -0.424351  0  3.665169  0  0  -0.442498  0  3.664513  0  0  -0.416326  -0.412369  0  3.665549  0
N  N76  1  0.12364302  0.07446440  0.13232413  1  0  -0.680922  0  3.04012  0  0  -0.651604  0  3.273835  0  0  -0.669068  0  3.269865  0  0  -0.594223  -0.639018  0  3.276667  0
N  N77  1  0.37635732  0.42553511  0.63232386  1  0  -0.680944  0  3.04016  0  0  -0.651599  0  3.273872  0  0  -0.669065  0  3.269903  0  0  -0.594228  -0.63901  0  3.27671  0
N  N78  1  0.87635558  0.92553501  0.86767661  1  0  -0.680956  0  3.040085  0  0  -0.651584  0  3.273839  0  0  -0.669047  0  3.26987  0  0  -0.594234  -0.638994  0  3.276674  0
N  N79  1  0.62364533  0.57446535  0.36767493  1  0  -0.680962  0  3.040151  0  0  -0.651653  0  3.273863  0  0  -0.669114  0  3.269891  0  0  -0.594263  -0.639064  0  3.276698  0
