# generated using pymatgen
data_AgH14C16(NO)5
_symmetry_space_group_name_H-M   'P 1'
_cell_length_a   8.11183824
_cell_length_b   8.87466853
_cell_length_c   12.38053048
_cell_angle_alpha   86.01066555
_cell_angle_beta   80.95404609
_cell_angle_gamma   66.13053855
_symmetry_Int_Tables_number   1
_chemical_formula_structural   AgH14C16(NO)5
_chemical_formula_sum   'Ag2 H28 C32 N10 O10'
_cell_volume   804.88757118
_cell_formula_units_Z   2
loop_
 _symmetry_equiv_pos_site_id
 _symmetry_equiv_pos_as_xyz
  1  'x, y, z'
loop_
 _atom_site_type_symbol
 _atom_site_label
 _atom_site_symmetry_multiplicity
 _atom_site_fract_x
 _atom_site_fract_y
 _atom_site_fract_z
 _atom_site_occupancy
 _atom_site_pbe_bader_charge
 _atom_site_pbe_bader_spin_density
 _atom_site_pbe_cm5_charge
 _atom_site_pbe_ddec_charge
 _atom_site_pbe_ddec_spin_density
 _atom_site_pbe_ddec_sum_bond_order
 _atom_site_pbe_magmom
Ag  Ag0  1  0.36169012  0.53648191  0.91535950  1  0.54831  0  0.472248  0.303418  0  1.960792  0
Ag  Ag1  1  0.63831259  0.46351589  0.08464198  1  0.549027  0  0.472259  0.303458  0  1.960773  0
H  H2  1  0.35519621  0.20633125  0.88821638  1  0.122992  0  0.114409  0.091339  0  1.018738  0
H  H3  1  0.64480508  0.79366409  0.11178294  1  0.123008  0  0.114383  0.09128  0  1.018714  0
H  H4  1  0.48524407  0.97342045  0.75740570  1  0.1431  0  0.107414  0.122829  0  1.037944  0
H  H5  1  0.51475559  0.02657859  0.24259198  1  0.143121  0  0.1074  0.122809  0  1.037921  0
H  H6  1  0.82070146  0.21486418  0.58605531  1  0.133714  0  0.109603  0.126222  0  1.016012  0
H  H7  1  0.17930016  0.78513609  0.41394373  1  0.133722  0  0.109587  0.126189  0  1.016065  0
H  H8  1  0.66853732  0.44169989  0.71843146  1  0.153157  0  0.116781  0.098485  0  1.027894  0
H  H9  1  0.33146001  0.55830161  0.28156796  1  0.153182  0  0.116777  0.098487  0  1.027846  0
H  H10  1  0.85710343  0.95275755  0.51639718  1  0.104605  0  0.104343  0.10192  0  1.012346  0
H  H11  1  0.14289944  0.04724272  0.48360254  1  0.104659  0  0.104364  0.101969  0  1.012309  0
H  H12  1  0.57121468  0.81213610  0.60914565  1  0.118397  0  0.109444  0.127697  0  1.028431  0
H  H13  1  0.42878367  0.18787157  0.39084932  1  0.118409  0  0.109418  0.12769  0  1.028429  0
H  H14  1  0.03388493  0.59952767  0.08849089  1  0.119592  0  0.115007  0.089776  0  1.025725  0
H  H15  1  0.96611723  0.40047137  0.91150815  1  0.119743  0  0.115009  0.089771  0  1.025756  0
H  H16  1  0.84959238  0.80590214  0.23322741  1  0.089114  0  0.105291  0.110804  0  1.042646  0
H  H17  1  0.15040766  0.19409320  0.76677203  1  0.089149  0  0.10526  0.110753  0  1.042674  0
H  H18  1  0.15233180  0.09881269  0.10327617  1  0.13336  0  0.104769  0.124337  0  1.04292  0
H  H19  1  0.84766607  0.90118757  0.89672810  1  0.133327  0  0.104751  0.124327  0  1.04294  0
H  H20  1  0.33737348  0.87160550  0.97267794  1  0.141233  0  0.114088  0.094525  0  1.01882  0
H  H21  1  0.66263009  0.12839599  0.02732649  1  0.141165  0  0.114097  0.094496  0  1.018788  0
H  H22  1  0.75741707  0.07011780  0.31316419  1  0.080974  0  0.107596  0.107458  0  1.005437  0
H  H23  1  0.24257956  0.92988246  0.68684021  1  0.081053  0  0.107585  0.107497  0  1.00538  0
H  H24  1  0.98609830  0.27204962  0.23021134  1  0.119389  0  0.105828  0.116903  0  1.066237  0
H  H25  1  0.01390066  0.72794818  0.76979132  1  0.119389  0  0.105807  0.116886  0  1.066334  0
H  H26  1  0.92873531  0.48283276  0.33943525  1  0.555554  0  0.328735  0.281082  0  0.97498  0
H  H27  1  0.07126864  0.51716503  0.66056609  1  0.555468  0  0.328749  0.281079  0  0.975044  0
H  H28  1  0.59726607  0.59296990  0.50066342  1  0.576619  0  0.323504  0.283991  0  1.002157  0
H  H29  1  0.40273250  0.40703160  0.49933506  1  0.576616  0  0.323507  0.284011  0  1.002122  0
C  C30  1  0.45277793  0.20571021  0.81666478  1  0.400608  0  0.033677  0.065902  0  3.961777  0
C  C31  1  0.54722282  0.79428636  0.18333615  1  0.400498  0  0.033643  0.065832  0  3.961824  0
C  C32  1  0.52610639  0.07679719  0.74313121  1  -0.021274  0  -0.086033  -0.169449  0  3.909756  0
C  C33  1  0.47389685  0.92319938  0.25686703  1  -0.021265  0  -0.086012  -0.169361  0  3.909659  0
C  C34  1  0.65832301  0.07728731  0.65470981  1  -0.023684  0  0.008712  0.147697  0  3.999916  0
C  C35  1  0.34167861  0.92271295  0.34528923  1  -0.02351  0  0.008727  0.147708  0  4.000002  0
C  C36  1  0.71266198  0.20949054  0.64855976  1  -0.014599  0  -0.075653  -0.150987  0  3.892234  0
C  C37  1  0.28733714  0.79050973  0.35144034  1  -0.014784  0  -0.075649  -0.150962  0  3.8923  0
C  C38  1  0.62952622  0.33710044  0.72345491  1  0.446627  0  0.044248  0.096686  0  3.889263  0
C  C39  1  0.37047165  0.66289983  0.27654613  1  0.446578  0  0.044241  0.096664  0  3.889297  0
C  C40  1  0.74104750  0.94832544  0.57282463  1  -0.089911  0  -0.076171  -0.082824  0  3.945781  0
C  C41  1  0.25895536  0.05167483  0.42717267  1  -0.089835  0  -0.076191  -0.082914  0  3.945726  0
C  C42  1  0.68749916  0.82621071  0.55908864  1  -0.003042  0  -0.08492  -0.200194  0  3.918737  0
C  C43  1  0.31250511  0.17379202  0.44091001  1  -0.003146  0  -0.084905  -0.200145  0  3.918493  0
C  C44  1  0.05567877  0.71154897  0.09543813  1  0.446773  0  0.040203  0.086758  0  3.927904  0
C  C45  1  0.94432339  0.28845006  0.90456415  1  0.446539  0  0.040227  0.086729  0  3.927884  0
C  C46  1  0.95094686  0.82891259  0.17410804  1  0.059578  0  -0.078008  -0.157639  0  3.915867  0
C  C47  1  0.04905264  0.17108397  0.82589382  1  0.059555  0  -0.077951  -0.157506  0  3.915663  0
C  C48  1  0.98040212  0.97324576  0.18020791  1  -0.062105  0  0.009702  0.143254  0  4.002422  0
C  C49  1  0.01959364  0.02675081  0.81979757  1  -0.061921  0  0.009699  0.143317  0  4.002335  0
C  C50  1  0.12146010  0.98995370  0.10502483  1  -0.013052  0  -0.083041  -0.161837  0  3.905407  0
C  C51  1  0.87853598  0.01004780  0.89498038  1  -0.013376  0  -0.083082  -0.161943  0  3.90544  0
C  C52  1  0.22406967  0.86566445  0.03062553  1  0.404131  0  0.034837  0.073714  0  3.951305  0
C  C53  1  0.77593124  0.13433458  0.96937768  1  0.404414  0  0.034915  0.073944  0  3.951169  0
C  C54  1  0.86495546  0.09639190  0.26144468  1  0.084441  0  -0.069753  -0.061826  0  3.920426  0
C  C55  1  0.13504171  0.90360713  0.73855730  1  0.084363  0  -0.069809  -0.062029  0  3.920489  0
C  C56  1  0.87979125  0.23908272  0.27724755  1  -0.141674  0  -0.09321  -0.232933  0  3.965014  0
C  C57  1  0.12020201  0.76091385  0.72275173  1  -0.141939  0  -0.093026  -0.23267  0  3.964813  0
C  C58  1  0.79056675  0.70383846  0.47282598  1  1.346789  0  0.225691  0.461414  0  4.165384  0
C  C59  1  0.20943470  0.29615934  0.52717724  1  1.347038  0  0.225637  0.461357  0  4.165459  0
C  C60  1  0.75666559  0.35492248  0.36266836  1  1.365444  0  0.228792  0.464317  0  4.187906  0
C  C61  1  0.24333673  0.64507901  0.63732974  1  1.365644  0  0.228748  0.464184  0  4.187949  0
N  N62  1  0.49929577  0.33692871  0.80610547  1  -1.207972  0  -0.360353  -0.191865  0  3.646134  0
N  N63  1  0.50070444  0.66306909  0.19389626  1  -1.207919  0  -0.360294  -0.191784  0  3.646119  0
N  N64  1  0.19232917  0.72811110  0.02500966  1  -1.205424  0  -0.359717  -0.189833  0  3.645298  0
N  N65  1  0.80767049  0.27188793  0.97499126  1  -1.205305  0  -0.359832  -0.190004  0  3.645379  0
N  N66  1  0.80939021  0.47759644  0.37897520  1  -0.856482  0  -0.286419  -0.199149  0  3.60679  0
N  N67  1  0.19060999  0.52240136  0.62102653  1  -0.856413  0  -0.286469  -0.199257  0  3.606911  0
N  N68  1  0.71794610  0.59321383  0.45807737  1  -0.828149  0  -0.286802  -0.203046  0  3.551675  0
N  N69  1  0.28205623  0.40678767  0.54192234  1  -0.828164  0  -0.286792  -0.203032  0  3.551676  0
N  N70  1  0.71799574  0.66796064  0.83383066  1  0.828757  0  0.089478  0.709042  0  4.427312  0
N  N71  1  0.28200517  0.33203840  0.16616528  1  0.828529  0  0.089629  0.709125  0  4.427288  0
O  O72  1  0.93411849  0.69725917  0.41504132  1  -1.155077  0  -0.303649  -0.495592  0  2.136144  0
O  O73  1  0.06588959  0.30273493  0.58495898  1  -1.155287  0  -0.303591  -0.495521  0  2.136272  0
O  O74  1  0.61789335  0.34344213  0.41635933  1  -1.180684  0  -0.30215  -0.516101  0  2.232007  0
O  O75  1  0.38209681  0.65656431  0.58364059  1  -1.180676  0  -0.30215  -0.515989  0  2.232099  0
O  O76  1  0.82427930  0.59360669  0.74991705  1  -0.561571  0  -0.1914  -0.455897  0  2.013264  0
O  O77  1  0.17571661  0.40639235  0.25007860  1  -0.561485  0  -0.191571  -0.456085  0  2.013128  0
O  O78  1  0.78226253  0.68687201  0.91677137  1  -0.575419  0  -0.209263  -0.485932  0  1.980724  0
O  O79  1  0.21774695  0.31312456  0.08322219  1  -0.575406  0  -0.209268  -0.4859  0  1.980817  0
O  O80  1  0.54685360  0.72146493  0.83461602  1  -0.583493  0  -0.207851  -0.474499  0  2.063303  0
O  O81  1  0.45314514  0.27853903  0.16538475  1  -0.583413  0  -0.207833  -0.474428  0  2.063299  0
