# generated using pymatgen
data_TbPH9C8NO9
_symmetry_space_group_name_H-M   'P 1'
_cell_length_a   9.47700114
_cell_length_b   10.48556109
_cell_length_c   15.56204084
_cell_angle_alpha   89.99993729
_cell_angle_beta   102.75209910
_cell_angle_gamma   89.99982547
_symmetry_Int_Tables_number   1
_chemical_formula_structural   TbPH9C8NO9
_chemical_formula_sum   'Tb4 P4 H36 C32 N4 O36'
_cell_volume   1508.28227199
_cell_formula_units_Z   4
loop_
 _symmetry_equiv_pos_site_id
 _symmetry_equiv_pos_as_xyz
  1  'x, y, z'
loop_
 _atom_site_type_symbol
 _atom_site_label
 _atom_site_symmetry_multiplicity
 _atom_site_fract_x
 _atom_site_fract_y
 _atom_site_fract_z
 _atom_site_occupancy
 _atom_site_hle17_bader_spin_density
 _atom_site_hle17_ddec_charge
 _atom_site_hle17_ddec_spin_density
 _atom_site_hle17_ddec_sum_bond_order
 _atom_site_hle17_magmom
 _atom_site_hse06_10hf_bader_spin_density
 _atom_site_hse06_10hf_ddec_charge
 _atom_site_hse06_10hf_ddec_spin_density
 _atom_site_hse06_10hf_ddec_sum_bond_order
 _atom_site_hse06_10hf_magmom
 _atom_site_hse06_bader_spin_density
 _atom_site_hse06_ddec_charge
 _atom_site_hse06_ddec_spin_density
 _atom_site_hse06_ddec_sum_bond_order
 _atom_site_hse06_magmom
 _atom_site_pbe_bader_spin_density
 _atom_site_pbe_cm5_charge
 _atom_site_pbe_ddec_charge
 _atom_site_pbe_ddec_spin_density
 _atom_site_pbe_ddec_sum_bond_order
 _atom_site_pbe_magmom
Tb  Tb0  1  0.21703789  0.11789865  0.39638055  1  0  2.255321  0  1.677342  0  0  2.110283  0  2.150824  0  0  2.228295  0  1.972719  0  0  1.510738  2.076399  0  2.182112  0
Tb  Tb1  1  0.28297233  0.61790161  0.10362124  1  0  2.255303  0  1.677393  0  0  2.110324  0  2.150769  0  0  2.228268  0  1.972768  0  0  1.510823  2.076437  0  2.182077  0
Tb  Tb2  1  0.78296614  0.88209810  0.60362226  1  0  2.255264  0  1.677385  0  0  2.110256  0  2.150797  0  0  2.228219  0  1.972763  0  0  1.510871  2.076369  0  2.182105  0
Tb  Tb3  1  0.71704469  0.38210278  0.89638205  1  0  2.255344  0  1.677358  0  0  2.110321  0  2.150821  0  0  2.228316  0  1.972733  0  0  1.510799  2.076441  0  2.182115  0
P  P4  1  0.16548975  0.86435772  0.23279580  1  0  1.591007  0  4.73922  0  0  1.441546  0  5.247395  0  0  1.491922  0  5.211124  0  0  0.377641  1.407287  0  5.275198  0
P  P5  1  0.33451089  0.36436323  0.26720066  1  0  1.590945  0  4.739334  0  0  1.4415  0  5.247495  0  0  1.491873  0  5.211223  0  0  0.377629  1.407226  0  5.275325  0
P  P6  1  0.83450350  0.13563713  0.76719784  1  0  1.590891  0  4.739391  0  0  1.441454  0  5.247577  0  0  1.491833  0  5.211315  0  0  0.377734  1.407188  0  5.275402  0
P  P7  1  0.66549100  0.63564115  0.73279608  1  0  1.591002  0  4.73936  0  0  1.441556  0  5.247539  0  0  1.491938  0  5.211264  0  0  0.377645  1.407295  0  5.275354  0
H  H8  1  0.33368494  0.88371878  0.92785944  1  0  0.127084  0  0.914425  0  0  0.136129  0  0.97168  0  0  0.140471  0  0.966976  0  0  0.13782  0.13313  0  0.975  0
H  H9  1  0.16630801  0.38372317  0.57213728  1  0  0.127091  0  0.914469  0  0  0.13611  0  0.971747  0  0  0.14045  0  0.967041  0  0  0.137839  0.133112  0  0.975067  0
H  H10  1  0.66631910  0.11628465  0.07214209  1  0  0.127118  0  0.914427  0  0  0.136212  0  0.971631  0  0  0.140555  0  0.966925  0  0  0.137849  0.13321  0  0.974953  0
H  H11  1  0.83368522  0.61627835  0.42786021  1  0  0.127099  0  0.914427  0  0  0.136151  0  0.971676  0  0  0.140492  0  0.966972  0  0  0.137829  0.133151  0  0.975002  0
H  H12  1  0.39545069  0.12040905  0.92360149  1  0  0.119419  0  0.944963  0  0  0.127772  0  1.002916  0  0  0.13149  0  1.001468  0  0  0.114501  0.12512  0  1.004354  0
H  H13  1  0.10454868  0.62041349  0.57639693  1  0  0.119475  0  0.944892  0  0  0.127787  0  1.002891  0  0  0.131504  0  1.001445  0  0  0.114497  0.125138  0  1.004321  0
H  H14  1  0.60455876  0.87959724  0.07640142  1  0  0.119395  0  0.944934  0  0  0.127723  0  1.002924  0  0  0.131439  0  1.001481  0  0  0.114477  0.125098  0  1.004327  0
H  H15  1  0.89544456  0.37959184  0.42359734  1  0  0.11945  0  0.944838  0  0  0.127774  0  1.002831  0  0  0.131493  0  1.001382  0  0  0.114507  0.125125  0  1.004268  0
H  H16  1  0.29424160  0.26986115  0.02187893  1  0  0.11682  0  0.953238  0  0  0.124698  0  1.014807  0  0  0.128055  0  1.012053  0  0  0.114698  0.122704  0  1.015948  0
H  H17  1  0.20575182  0.76985989  0.47812047  1  0  0.116817  0  0.95319  0  0  0.124674  0  1.014783  0  0  0.128031  0  1.012029  0  0  0.114659  0.122673  0  1.015927  0
H  H18  1  0.70576136  0.73014228  0.97812245  1  0  0.116755  0  0.953141  0  0  0.124589  0  1.014778  0  0  0.127947  0  1.012024  0  0  0.114656  0.122592  0  1.015912  0
H  H19  1  0.79422627  0.23013686  0.52187368  1  0  0.116813  0  0.953252  0  0  0.124635  0  1.014893  0  0  0.127991  0  1.012141  0  0  0.114681  0.122637  0  1.016031  0
H  H20  1  0.14556308  0.17959715  0.12085805  1  0  0.128963  0  0.923781  0  0  0.138487  0  0.980459  0  0  0.14253  0  0.978081  0  0  0.120734  0.135845  0  0.981589  0
H  H21  1  0.35443067  0.67960614  0.37914467  1  0  0.129009  0  0.923691  0  0  0.138476  0  0.980439  0  0  0.142517  0  0.978064  0  0  0.120728  0.135831  0  0.981569  0
H  H22  1  0.85444205  0.82039674  0.87914105  1  0  0.128928  0  0.923825  0  0  0.138425  0  0.980532  0  0  0.142467  0  0.978155  0  0  0.120726  0.135785  0  0.981657  0
H  H23  1  0.64554741  0.32039920  0.62085397  1  0  0.128922  0  0.923854  0  0  0.138442  0  0.980533  0  0  0.142484  0  0.978156  0  0  0.120717  0.135797  0  0.981668  0
H  H24  1  0.99939282  0.84884392  0.09361088  1  0  0.164626  0  0.958148  0  0  0.171103  0  1.023718  0  0  0.174571  0  1.022678  0  0  0.120157  0.168558  0  1.025057  0
H  H25  1  0.50061494  0.34884154  0.40638979  1  0  0.16463  0  0.958049  0  0  0.171107  0  1.023609  0  0  0.174572  0  1.022569  0  0  0.120158  0.168561  0  1.024943  0
H  H26  1  0.00061557  0.15116237  0.90638417  1  0  0.164633  0  0.958049  0  0  0.171121  0  1.023618  0  0  0.174594  0  1.022576  0  0  0.120127  0.168577  0  1.024956  0
H  H27  1  0.49938910  0.65115807  0.59361174  1  0  0.164624  0  0.958124  0  0  0.171109  0  1.023674  0  0  0.174579  0  1.022634  0  0  0.120141  0.168568  0  1.025004  0
H  H28  1  0.98686600  0.00001474  0.14579011  1  0  0.140688  0  0.938809  0  0  0.154248  0  0.993936  0  0  0.156724  0  0.993254  0  0  0.112785  0.152637  0  0.994425  0
H  H29  1  0.51312362  0.50001707  0.35420964  1  0  0.140662  0  0.938904  0  0  0.154219  0  0.994028  0  0  0.156697  0  0.993327  0  0  0.112787  0.152606  0  0.994523  0
H  H30  1  0.01313347  0.99997831  0.85420795  1  0  0.140688  0  0.938973  0  0  0.154235  0  0.994112  0  0  0.15671  0  0.993442  0  0  0.112744  0.152629  0  0.994602  0
H  H31  1  0.48686419  0.49998731  0.64578969  1  0  0.140732  0  0.938802  0  0  0.154263  0  0.993954  0  0  0.156737  0  0.993278  0  0  0.112794  0.152651  0  0.994451  0
H  H32  1  0.02960703  0.84511708  0.32581487  1  0  0.426779  0  0.878115  0  0  0.394424  0  0.943865  0  0  0.407065  0  0.925458  0  0  0.308671  0.385633  0  0.956691  0
H  H33  1  0.47038937  0.34511474  0.17417717  1  0  0.426718  0  0.878191  0  0  0.394458  0  0.943801  0  0  0.407097  0  0.925399  0  0  0.308704  0.385666  0  0.956628  0
H  H34  1  0.97038623  0.15487967  0.67417492  1  0  0.426745  0  0.87816  0  0  0.394495  0  0.943752  0  0  0.407135  0  0.925345  0  0  0.308722  0.385707  0  0.956572  0
H  H35  1  0.52962009  0.65488106  0.82582124  1  0  0.426751  0  0.878151  0  0  0.394503  0  0.943736  0  0  0.407141  0  0.925334  0  0  0.308729  0.385702  0  0.956573  0
H  H36  1  0.00980310  0.25647627  0.26972591  1  0  0.453872  0  0.81111  0  0  0.431066  0  0.861075  0  0  0.441191  0  0.846416  0  0  0.327856  0.423976  0  0.871521  0
H  H37  1  0.49021522  0.75647463  0.23028395  1  0  0.453928  0  0.811059  0  0  0.431115  0  0.861009  0  0  0.441242  0  0.846347  0  0  0.327902  0.424027  0  0.871453  0
H  H38  1  0.99021389  0.74352907  0.73028445  1  0  0.453896  0  0.81114  0  0  0.431084  0  0.861065  0  0  0.441211  0  0.846403  0  0  0.327881  0.423991  0  0.871516  0
H  H39  1  0.50980285  0.24352594  0.76972848  1  0  0.453924  0  0.811061  0  0  0.431118  0  0.86101  0  0  0.441244  0  0.846349  0  0  0.3279  0.424027  0  0.871457  0
H  H40  1  0.88569818  0.16961083  0.29388619  1  0  0.453001  0  0.791661  0  0  0.441414  0  0.827321  0  0  0.449266  0  0.816479  0  0  0.346395  0.435884  0  0.835211  0
H  H41  1  0.61430054  0.66960073  0.20611017  1  0  0.453094  0  0.791875  0  0  0.441506  0  0.827268  0  0  0.449356  0  0.81643  0  0  0.346426  0.435979  0  0.835153  0
H  H42  1  0.11429613  0.83040595  0.70611016  1  0  0.453108  0  0.791844  0  0  0.441519  0  0.827245  0  0  0.449368  0  0.816408  0  0  0.346441  0.435992  0  0.835129  0
H  H43  1  0.38570350  0.33039888  0.79389072  1  0  0.452962  0  0.79173  0  0  0.441331  0  0.827439  0  0  0.449177  0  0.816609  0  0  0.346395  0.435809  0  0.835314  0
C  C44  1  0.29532863  0.95679834  0.96685090  1  0  -0.001944  0  3.612937  0  0  -0.044311  0  3.875704  0  0  -0.037106  0  3.888084  0  0  0.041017  -0.049249  0  3.868859  0
C  C45  1  0.20467701  0.45679697  0.53315070  1  0  -0.001926  0  3.612978  0  0  -0.044271  0  3.875744  0  0  -0.037057  0  3.888113  0  0  0.041006  -0.04922  0  3.868907  0
C  C46  1  0.70468622  0.04320794  0.03315403  1  0  -0.001967  0  3.613043  0  0  -0.044392  0  3.875806  0  0  -0.037185  0  3.888184  0  0  0.040989  -0.049328  0  3.868963  0
C  C47  1  0.79531947  0.54320074  0.46684787  1  0  -0.002084  0  3.612976  0  0  -0.044466  0  3.875751  0  0  -0.037258  0  3.888128  0  0  0.040987  -0.049405  0  3.868905  0
C  C48  1  0.32816351  0.08533802  0.96695767  1  0  -0.103782  0  3.764106  0  0  -0.117184  0  4.023884  0  0  -0.123585  0  4.043831  0  0  -0.07809  -0.112632  0  4.01181  0
C  C49  1  0.17183274  0.58533663  0.53304035  1  0  -0.103844  0  3.764118  0  0  -0.117213  0  4.0239  0  0  -0.123617  0  4.043847  0  0  -0.078066  -0.112669  0  4.011824  0
C  C50  1  0.67183514  0.91467018  0.03303670  1  0  -0.103809  0  3.764182  0  0  -0.117172  0  4.023966  0  0  -0.123574  0  4.043918  0  0  -0.07811  -0.112644  0  4.011871  0
C  C51  1  0.82816372  0.41466298  0.46696079  1  0  -0.103704  0  3.76409  0  0  -0.117073  0  4.023842  0  0  -0.123478  0  4.043794  0  0  -0.078053  -0.112528  0  4.011768  0
C  C52  1  0.27361688  0.16790574  0.02218715  1  0  0.00392  0  3.680353  0  0  -0.024283  0  3.944322  0  0  -0.018067  0  3.9579  0  0  -0.066132  -0.028419  0  3.934226  0
C  C53  1  0.22637260  0.66790347  0.47780922  1  0  0.003902  0  3.680413  0  0  -0.024272  0  3.944373  0  0  -0.018057  0  3.957955  0  0  -0.066137  -0.028404  0  3.934262  0
C  C54  1  0.72638069  0.83210055  0.97780644  1  0  0.004085  0  3.680296  0  0  -0.024087  0  3.944258  0  0  -0.017872  0  3.957839  0  0  -0.066067  -0.028214  0  3.934148  0
C  C55  1  0.77361413  0.33209328  0.52218738  1  0  0.003939  0  3.680405  0  0  -0.024221  0  3.944354  0  0  -0.018007  0  3.957938  0  0  -0.066095  -0.028355  0  3.934258  0
C  C56  1  0.18830221  0.11813165  0.07628323  1  0  -0.118615  0  3.666429  0  0  -0.141398  0  3.92694  0  0  -0.146483  0  3.942782  0  0  -0.066139  -0.137118  0  3.914819  0
C  C57  1  0.31168531  0.61813401  0.42371291  1  0  -0.118623  0  3.666265  0  0  -0.141346  0  3.926775  0  0  -0.146434  0  3.942622  0  0  -0.066139  -0.137066  0  3.91464  0
C  C58  1  0.81169429  0.88186510  0.92371020  1  0  -0.118624  0  3.666598  0  0  -0.141363  0  3.927102  0  0  -0.146449  0  3.942946  0  0  -0.06612  -0.137091  0  3.914982  0
C  C59  1  0.68830358  0.38186561  0.57628785  1  0  -0.118615  0  3.666412  0  0  -0.141382  0  3.926898  0  0  -0.146467  0  3.942743  0  0  -0.066168  -0.137103  0  3.914771  0
C  C60  1  0.15418788  0.98881663  0.07478372  1  0  0.211386  0  3.649248  0  0  0.204081  0  3.898681  0  0  0.21348  0  3.916001  0  0  0.124175  0.197822  0  3.887284  0
C  C61  1  0.34581335  0.48881899  0.42521658  1  0  0.211372  0  3.649081  0  0  0.204034  0  3.898534  0  0  0.213426  0  3.915857  0  0  0.124193  0.197768  0  3.887136  0
C  C62  1  0.84581185  0.01118203  0.92521079  1  0  0.211391  0  3.649169  0  0  0.204047  0  3.898645  0  0  0.213451  0  3.915971  0  0  0.124184  0.197781  0  3.887256  0
C  C63  1  0.65419500  0.51118158  0.57479004  1  0  0.211348  0  3.64928  0  0  0.204011  0  3.898723  0  0  0.213411  0  3.916047  0  0  0.12419  0.197753  0  3.887316  0
C  C64  1  0.06119441  0.92883232  0.12887873  1  0  -0.53501  0  3.72965  0  0  -0.557485  0  3.967728  0  0  -0.567924  0  3.972694  0  0  -0.161928  -0.550605  0  3.965207  0
C  C65  1  0.43880598  0.42883165  0.37112085  1  0  -0.534965  0  3.729632  0  0  -0.557418  0  3.967752  0  0  -0.56784  0  3.972708  0  0  -0.161912  -0.550532  0  3.965228  0
C  C66  1  0.93881939  0.07116253  0.87111834  1  0  -0.535034  0  3.729571  0  0  -0.557458  0  3.967573  0  0  -0.567918  0  3.97256  0  0  -0.161899  -0.550578  0  3.965061  0
C  C67  1  0.56118941  0.57116605  0.62887950  1  0  -0.535088  0  3.729785  0  0  -0.557477  0  3.967761  0  0  -0.567927  0  3.97274  0  0  -0.161946  -0.550603  0  3.965247  0
C  C68  1  0.54287966  0.03705745  0.47067880  1  0  0.563923  0  3.934155  0  0  0.523808  0  4.229513  0  0  0.553791  0  4.227118  0  0  0.21519  0.503404  0  4.235273  0
C  C69  1  0.95713577  0.53707149  0.02932828  1  0  0.563911  0  3.934077  0  0  0.523773  0  4.229462  0  0  0.553757  0  4.227063  0  0  0.215372  0.50337  0  4.235212  0
C  C70  1  0.45713084  0.96292214  0.52933067  1  0  0.563883  0  3.934164  0  0  0.523768  0  4.229508  0  0  0.553752  0  4.22711  0  0  0.215438  0.503374  0  4.235256  0
C  C71  1  0.04287584  0.46293289  0.97067492  1  0  0.563795  0  3.934003  0  0  0.523682  0  4.22937  0  0  0.553668  0  4.226967  0  0  0.215248  0.503291  0  4.235114  0
C  C72  1  0.01500996  0.05775421  0.53164947  1  0  0.584118  0  3.903195  0  0  0.538866  0  4.201496  0  0  0.569335  0  4.196882  0  0  0.223693  0.518617  0  4.207371  0
C  C73  1  0.48497014  0.55775697  0.96835602  1  0  0.584327  0  3.902793  0  0  0.539089  0  4.201058  0  0  0.569558  0  4.196431  0  0  0.22384  0.518866  0  4.206889  0
C  C74  1  0.98495619  0.94223396  0.46835398  1  0  0.584575  0  3.902564  0  0  0.539207  0  4.200974  0  0  0.569693  0  4.196332  0  0  0.223888  0.518951  0  4.206856  0
C  C75  1  0.51502739  0.44224360  0.03165105  1  0  0.584422  0  3.902748  0  0  0.539031  0  4.201212  0  0  0.569528  0  4.196548  0  0  0.22376  0.518775  0  4.207086  0
N  N76  1  0.20937184  0.91047267  0.01934388  1  0  0.233981  0  3.674636  0  0  0.288883  0  3.931281  0  0  0.286859  0  3.956636  0  0  -0.109449  0.289152  0  3.917213  0
N  N77  1  0.29063618  0.41047128  0.48065868  1  0  0.233921  0  3.674605  0  0  0.288839  0  3.931239  0  0  0.286813  0  3.956599  0  0  -0.109461  0.289121  0  3.917158  0
N  N78  1  0.79064195  0.08952790  0.98065576  1  0  0.23404  0  3.674673  0  0  0.288971  0  3.931325  0  0  0.286947  0  3.956685  0  0  -0.109416  0.289246  0  3.917252  0
N  N79  1  0.70936677  0.58952833  0.51934398  1  0  0.234139  0  3.674629  0  0  0.289057  0  3.931269  0  0  0.287032  0  3.956628  0  0  -0.109392  0.289334  0  3.917184  0
O  O80  1  0.23197779  0.97522146  0.29033866  1  0  -0.964336  0  1.980328  0  0  -0.893399  0  2.255652  0  0  -0.931118  0  2.231216  0  0  -0.48192  -0.874882  0  2.268327  0
O  O81  1  0.26802131  0.47522343  0.20966586  1  0  -0.964278  0  1.980428  0  0  -0.89335  0  2.255745  0  0  -0.931044  0  2.231288  0  0  -0.481849  -0.874829  0  2.268431  0
O  O82  1  0.76801649  0.02477053  0.70966669  1  0  -0.964231  0  1.980459  0  0  -0.893292  0  2.255762  0  0  -0.930991  0  2.231312  0  0  -0.481897  -0.87477  0  2.268442  0
O  O83  1  0.73197949  0.52477618  0.79033330  1  0  -0.964287  0  1.980348  0  0  -0.893364  0  2.255697  0  0  -0.931071  0  2.231238  0  0  -0.481896  -0.874852  0  2.268385  0
O  O84  1  0.04986098  0.79249807  0.27502068  1  0  -0.73505  0  1.933825  0  0  -0.670308  0  2.137797  0  0  -0.689883  0  2.110846  0  0  -0.388623  -0.656426  0  2.156352  0
O  O85  1  0.45013561  0.29249952  0.22497527  1  0  -0.734973  0  1.933878  0  0  -0.670313  0  2.137778  0  0  -0.689888  0  2.110828  0  0  -0.388587  -0.656421  0  2.15634  0
O  O86  1  0.95012362  0.20749963  0.72496921  1  0  -0.735028  0  1.934021  0  0  -0.670365  0  2.137905  0  0  -0.689939  0  2.110954  0  0  -0.388619  -0.65648  0  2.156466  0
O  O87  1  0.54985871  0.70749628  0.77502108  1  0  -0.735034  0  1.933886  0  0  -0.670394  0  2.137802  0  0  -0.689969  0  2.110851  0  0  -0.388631  -0.6565  0  2.156377  0
O  O88  1  0.27392388  0.76926015  0.21118505  1  0  -0.955945  0  1.971023  0  0  -0.880778  0  2.241336  0  0  -0.916703  0  2.216651  0  0  -0.457669  -0.862212  0  2.255291  0
O  O89  1  0.22607282  0.26925543  0.28880580  1  0  -0.95596  0  1.970853  0  0  -0.880825  0  2.241238  0  0  -0.916762  0  2.216546  0  0  -0.457783  -0.862253  0  2.255201  0
O  O90  1  0.72606830  0.23074614  0.78880394  1  0  -0.955878  0  1.970967  0  0  -0.880742  0  2.241327  0  0  -0.916671  0  2.216629  0  0  -0.457699  -0.862168  0  2.255281  0
O  O91  1  0.77392907  0.73074132  0.71119159  1  0  -0.955947  0  1.971071  0  0  -0.880789  0  2.241396  0  0  -0.916718  0  2.216709  0  0  -0.457714  -0.862223  0  2.255358  0
O  O92  1  0.17406201  0.78851931  0.01400099  1  0  -0.636768  0  1.853949  0  0  -0.603468  0  2.102107  0  0  -0.637034  0  2.100939  0  0  -0.320825  -0.587338  0  2.101082  0
O  O93  1  0.32596379  0.28851686  0.48600279  1  0  -0.636748  0  1.853986  0  0  -0.603423  0  2.102109  0  0  -0.636999  0  2.10094  0  0  -0.320814  -0.5873  0  2.101081  0
O  O94  1  0.82596906  0.21147840  0.98600614  1  0  -0.636881  0  1.854031  0  0  -0.603588  0  2.102188  0  0  -0.637163  0  2.101019  0  0  -0.320837  -0.58746  0  2.101162  0
O  O95  1  0.67404892  0.71147894  0.51399734  1  0  -0.636808  0  1.854072  0  0  -0.603506  0  2.102207  0  0  -0.637076  0  2.101041  0  0  -0.320841  -0.587383  0  2.101182  0
O  O96  1  0.67949751  0.02289014  0.48964301  1  0  -0.687747  0  2.046104  0  0  -0.644069  0  2.290703  0  0  -0.677218  0  2.277534  0  0  -0.393542  -0.627193  0  2.296178  0
O  O97  1  0.82050393  0.52289887  0.01035640  1  0  -0.687916  0  2.04567  0  0  -0.644234  0  2.290291  0  0  -0.677395  0  2.277126  0  0  -0.39374  -0.627356  0  2.295756  0
O  O98  1  0.32048921  0.97710565  0.51035874  1  0  -0.687933  0  2.045526  0  0  -0.644263  0  2.290129  0  0  -0.677427  0  2.27696  0  0  -0.393742  -0.627387  0  2.295597  0
O  O99  1  0.17950554  0.47710742  0.98964073  1  0  -0.687802  0  2.04575  0  0  -0.644139  0  2.290357  0  0  -0.677289  0  2.277186  0  0  -0.393624  -0.627264  0  2.295829  0
O  O100  1  0.47087202  0.10498243  0.40976459  1  0  -0.629011  0  2.042665  0  0  -0.584706  0  2.281339  0  0  -0.6146  0  2.268335  0  0  -0.368515  -0.569582  0  2.288116  0
O  O101  1  0.02913067  0.60498992  0.09023812  1  0  -0.628865  0  2.043039  0  0  -0.584559  0  2.281723  0  0  -0.61444  0  2.268719  0  0  -0.368451  -0.569431  0  2.288484  0
O  O102  1  0.52911686  0.89501432  0.59023745  1  0  -0.62887  0  2.043256  0  0  -0.584585  0  2.281949  0  0  -0.614461  0  2.268943  0  0  -0.368524  -0.569469  0  2.288718  0
O  O103  1  0.97087338  0.39502018  0.90976084  1  0  -0.628912  0  2.042835  0  0  -0.584606  0  2.28152  0  0  -0.614499  0  2.268518  0  0  -0.368502  -0.569483  0  2.288285  0
O  O104  1  0.08018503  0.15218113  0.50950626  1  0  -0.642688  0  2.037299  0  0  -0.60338  0  2.282129  0  0  -0.633651  0  2.270194  0  0  -0.355862  -0.588219  0  2.287928  0
O  O105  1  0.41981744  0.65218212  0.99049770  1  0  -0.642763  0  2.037579  0  0  -0.60347  0  2.28241  0  0  -0.633728  0  2.270474  0  0  -0.355948  -0.588325  0  2.288205  0
O  O106  1  0.91981790  0.84782135  0.49050218  1  0  -0.642743  0  2.037795  0  0  -0.603402  0  2.282679  0  0  -0.633661  0  2.270736  0  0  -0.355965  -0.58825  0  2.288494  0
O  O107  1  0.58019525  0.34782512  0.00950629  1  0  -0.642761  0  2.037412  0  0  -0.603423  0  2.282319  0  0  -0.633696  0  2.270368  0  0  -0.355899  -0.588267  0  2.288126  0
O  O108  1  0.96861473  0.04605389  0.60222639  1  0  -0.692901  0  2.138944  0  0  -0.633351  0  2.374485  0  0  -0.667611  0  2.362491  0  0  -0.352354  -0.615508  0  2.380976  0
O  O109  1  0.53137901  0.54605611  0.89777328  1  0  -0.693036  0  2.138306  0  0  -0.633472  0  2.373814  0  0  -0.667739  0  2.361816  0  0  -0.352424  -0.615632  0  2.380291  0
O  O110  1  0.03136229  0.95393619  0.39776440  1  0  -0.693205  0  2.137869  0  0  -0.633569  0  2.373441  0  0  -0.667843  0  2.361435  0  0  -0.352382  -0.615716  0  2.37993  0
O  O111  1  0.46863474  0.45394637  0.10223728  1  0  -0.693001  0  2.138425  0  0  -0.633399  0  2.37401  0  0  -0.667666  0  2.361998  0  0  -0.352323  -0.615553  0  2.380505  0
O  O112  1  0.97763112  0.21148255  0.31719505  1  0  -0.871129  0  1.814779  0  0  -0.828733  0  1.975051  0  0  -0.854083  0  1.939604  0  0  -0.595205  -0.816828  0  1.995755  0
O  O113  1  0.52236525  0.71147083  0.18281124  1  0  -0.871251  0  1.815014  0  0  -0.828858  0  1.975017  0  0  -0.854203  0  1.939567  0  0  -0.59526  -0.816952  0  1.995723  0
O  O114  1  0.02235991  0.78853519  0.68281178  1  0  -0.871226  0  1.815074  0  0  -0.828826  0  1.975058  0  0  -0.854173  0  1.939607  0  0  -0.595244  -0.816923  0  1.99577  0
O  O115  1  0.47763660  0.28852401  0.81719835  1  0  -0.871131  0  1.814813  0  0  -0.828689  0  1.975137  0  0  -0.854038  0  1.939682  0  0  -0.595252  -0.816789  0  1.995838  0
