# generated using pymatgen
data_MnH16C24N2(ClO2)2
_symmetry_space_group_name_H-M   'P 1'
_cell_length_a   6.92978203
_cell_length_b   12.18769742
_cell_length_c   14.49847898
_cell_angle_alpha   114.87338416
_cell_angle_beta   95.72015982
_cell_angle_gamma   89.94460007
_symmetry_Int_Tables_number   1
_chemical_formula_structural   MnH16C24N2(ClO2)2
_chemical_formula_sum   'Mn2 H32 C48 N4 Cl4 O8'
_cell_volume   1104.25725807
_cell_formula_units_Z   2
loop_
 _symmetry_equiv_pos_site_id
 _symmetry_equiv_pos_as_xyz
  1  'x, y, z'
loop_
 _atom_site_type_symbol
 _atom_site_label
 _atom_site_symmetry_multiplicity
 _atom_site_fract_x
 _atom_site_fract_y
 _atom_site_fract_z
 _atom_site_occupancy
 _atom_site_hle17_ddec_charge
 _atom_site_hle17_ddec_spin_density
 _atom_site_hle17_ddec_sum_bond_order
 _atom_site_hle17_magmom
 _atom_site_hse06_10hf_bader_charge
 _atom_site_hse06_10hf_bader_spin_density
 _atom_site_hse06_10hf_ddec_charge
 _atom_site_hse06_10hf_ddec_spin_density
 _atom_site_hse06_10hf_ddec_sum_bond_order
 _atom_site_hse06_10hf_magmom
 _atom_site_hse06_ddec_charge
 _atom_site_hse06_ddec_spin_density
 _atom_site_hse06_ddec_sum_bond_order
 _atom_site_hse06_magmom
 _atom_site_pbe_cm5_charge
 _atom_site_pbe_ddec_charge
 _atom_site_pbe_ddec_spin_density
 _atom_site_pbe_ddec_sum_bond_order
 _atom_site_pbe_magmom
Mn  Mn0  1  0.75016757  0.38558608  0.00002832  1  1.148723  4.765468  1.921047  4.647  1.570632  4.517692  0.998457  4.65204  2.443002  4.464  1.045491  4.726246  2.369878  4.559  0.640906  0.967853  4.554626  2.49635  4.346
Mn  Mn1  1  0.24982191  0.61441372  0.99997063  1  1.148766  -4.765425  1.921077  -4.647  1.570673  -4.517653  0.998474  -4.652011  2.443047  -4.464  1.045495  -4.726227  2.36994  -4.559  0.640933  0.96787  -4.554591  2.496385  -4.346
H  H2  1  0.36272285  0.65980051  0.30113143  1  0.119462  0.000131  0.958029  0.0  0.120204  -8.9e-05  0.125495  0.000227  1.025575  0.0  0.128794  0.000239  1.024277  0.0  0.105538  0.122923  0.00021  1.026756  0.0
H  H3  1  0.13760808  0.35892047  0.69910473  1  0.119228  0.000126  0.959431  0.0  0.106908  -8.8e-05  0.12547  0.000226  1.02675  0.0  0.128763  0.000239  1.025464  0.0  0.105494  0.122967  0.000208  1.027857  0.0
H  H4  1  0.63728864  0.34020292  0.69886848  1  0.11947  -0.000118  0.958105  0.0  0.120231  8.9e-05  0.125519  -0.000226  1.025632  0.0  0.128821  -0.00024  1.024329  0.0  0.10554  0.122953  -0.00021  1.026809  0.0
H  H5  1  0.86238246  0.64107386  0.30089714  1  0.119266  -0.000109  0.959427  0.0  0.10696  8.9e-05  0.125575  -0.000226  1.02667  0.0  0.128866  -0.000239  1.025387  0.0  0.105528  0.123075  -0.000209  1.027787  0.0
H  H6  1  0.26948468  0.51350842  0.51866596  1  0.10701  -5.8e-05  0.945711  0.0  0.103423  2.9e-05  0.117343  3.3e-05  1.006814  0.0  0.120466  1.4e-05  1.005227  0.0  0.100023  0.115147  6e-05  1.008003  0.0
H  H7  1  0.23014894  0.99481285  0.48129728  1  0.106861  -4.5e-05  0.945823  0.0  0.100191  3e-05  0.117703  3.3e-05  1.006309  0.0  0.12084  1.4e-05  1.004713  0.0  0.099994  0.115479  5.9e-05  1.007509  0.0
H  H8  1  0.73052213  0.48649050  0.48133004  1  0.10699  5.4e-05  0.945622  0.0  0.103341  -2.9e-05  0.117313  -3.3e-05  1.006763  0.0  0.120437  -1.4e-05  1.005175  0.0  0.100028  0.115125  -6e-05  1.007951  0.0
H  H9  1  0.76985793  0.00518699  0.51869630  1  0.106866  5.4e-05  0.945858  0.0  0.100274  -3e-05  0.11766  -3.3e-05  1.006399  0.0  0.120794  -1.4e-05  1.004806  0.0  0.099984  0.115443  -5.9e-05  1.0076  0.0
H  H10  1  0.05630461  0.34870606  0.38474975  1  0.080501  -2.9e-05  0.9773  0.0  0.063903  -0.000106  0.087027  -7.8e-05  1.046823  0.0  0.089966  -5.5e-05  1.045434  0.0  0.088253  0.085111  -9.5e-05  1.04764  0.0
H  H11  1  0.44316057  0.96343992  0.61508074  1  0.079495  -3.3e-05  0.978464  0.0  0.0748  -0.000104  0.086148  -7.7e-05  1.048004  0.0  0.089066  -5.5e-05  1.046683  0.0  0.087843  0.084235  -9.5e-05  1.048809  0.0
H  H12  1  0.94369759  0.65128922  0.61524818  1  0.080512  1.8e-05  0.977421  0.0  0.063957  0.000106  0.087041  7.8e-05  1.046914  0.0  0.089981  5.5e-05  1.045523  0.0  0.088287  0.085125  9.5e-05  1.04775  0.0
H  H13  1  0.55684189  0.03655900  0.38491369  1  0.0795  2.4e-05  0.978399  0.0  0.079582  0.000104  0.086152  7.8e-05  1.047955  0.0  0.089072  5.5e-05  1.04663  0.0  0.087842  0.084236  9.5e-05  1.048752  0.0
H  H14  1  0.00182279  0.33700454  0.20649552  1  0.096584  -0.000366  0.976994  0.0  0.091726  -9.8e-05  0.104114  -0.000407  1.04297  0.0  0.107113  -0.000404  1.042207  0.0  0.101279  0.102169  -0.000398  1.043201  0.0
H  H15  1  0.49790800  0.12990762  0.79344392  1  0.097088  -0.000367  0.976197  0.0  0.098683  -9e-05  0.103949  -0.000404  1.042864  0.0  0.107029  -0.000402  1.04201  0.0  0.101318  0.101975  -0.000393  1.043146  0.0
H  H16  1  0.99818034  0.66300341  0.79350561  1  0.096625  0.000385  0.977005  0.0  0.091781  9.8e-05  0.104185  0.000408  1.042926  0.0  0.107186  0.000404  1.042163  0.0  0.101336  0.102231  0.000398  1.043164  0.0
H  H17  1  0.50209269  0.87008676  0.20655086  1  0.097127  0.000375  0.97612  0.0  0.098662  9.1e-05  0.103978  0.000404  1.042799  0.0  0.107059  0.000402  1.041945  0.0  0.10131  0.102002  0.000393  1.043076  0.0
H  H18  1  0.73887928  0.00243063  0.08156301  1  0.110361  0.000314  0.9449  0.0  0.099018  0.00067  0.123529  0.000401  0.998086  0.0  0.126665  0.000334  0.997761  0.0  0.109382  0.121248  0.000437  0.9985  0.0
H  H19  1  0.76023795  0.92110646  0.91961087  1  0.110985  0.00032  0.94423  0.0  0.083937  0.000676  0.123584  0.000404  0.997985  0.0  0.12671  0.000336  0.997667  0.0  0.109556  0.121338  0.00044  0.998368  0.0
H  H20  1  0.26112642  0.99757276  0.91844144  1  0.110462  -0.000311  0.944777  0.0  0.099059  -0.00067  0.123611  -0.000402  0.997975  0.0  0.126746  -0.000334  0.997651  0.0  0.109429  0.121347  -0.000437  0.998377  0.0
H  H21  1  0.23977059  0.07889603  0.08039271  1  0.110977  -0.000337  0.944244  0.0  0.085067  -0.000676  0.123584  -0.000404  0.997989  0.0  0.126714  -0.000335  0.997662  0.0  0.10955  0.121338  -0.00044  0.99838  0.0
H  H22  1  0.61951598  0.10355591  0.25246010  1  0.090751  -9.9e-05  0.951125  0.0  0.064915  -1.1e-05  0.102147  -3e-06  1.012187  0.0  0.104425  -1.9e-05  1.010846  0.0  0.102583  0.100248  1.9e-05  1.013563  0.0
H  H23  1  0.88002234  0.85049555  0.74878501  1  0.090876  -0.000105  0.950997  0.0  0.060185  -1.3e-05  0.102482  -3e-06  1.012005  0.0  0.10465  -1.8e-05  1.010872  0.0  0.103025  0.100661  2.1e-05  1.013253  0.0
H  H24  1  0.38048794  0.89644297  0.74754127  1  0.090769  9.4e-05  0.951159  0.0  0.064983  1.1e-05  0.102164  3e-06  1.012207  0.0  0.104441  1.9e-05  1.010868  0.0  0.102585  0.100267  -2e-05  1.01359  0.0
H  H25  1  0.11997301  0.14950513  0.25121660  1  0.090874  9.9e-05  0.951003  0.0  0.060218  1.3e-05  0.102476  2e-06  1.012014  0.0  0.104646  1.8e-05  1.010875  0.0  0.102997  0.100636  -2.1e-05  1.01328  0.0
H  H26  1  0.52427812  0.32051078  0.31435957  1  0.09367  0.000235  0.992618  0.0  0.10485  0.000483  0.099064  0.000265  1.062543  0.0  0.101407  0.000205  1.063339  0.0  0.093808  0.097154  0.000352  1.062568  0.0
H  H27  1  0.97613124  0.00493686  0.68655124  1  0.093371  0.000233  0.992599  0.0  0.108836  0.000486  0.098526  0.000264  1.062738  0.0  0.100869  0.000204  1.063538  0.0  0.093787  0.096632  0.000351  1.062766  0.0
H  H28  1  0.47571835  0.67948537  0.68564254  1  0.0936  -0.000213  0.992601  0.0  0.104908  -0.000483  0.098994  -0.000265  1.062544  0.0  0.101336  -0.000206  1.063336  0.0  0.093776  0.097076  -0.000352  1.062577  0.0
H  H29  1  0.02385843  0.99506564  0.31345076  1  0.093439  -0.000212  0.992544  0.0  0.108851  -0.000486  0.098619  -0.000264  1.062666  0.0  0.10096  -0.000205  1.063466  0.0  0.093814  0.096722  -0.000351  1.062694  0.0
H  H30  1  0.56921860  0.42846767  0.20264693  1  0.090305  -0.000133  0.948577  0.0  0.146412  0.000886  0.095903  0.000145  1.013908  0.0  0.098179  3.5e-05  1.012815  0.0  0.120204  0.093826  0.000236  1.015354  0.001
H  H31  1  0.93166616  0.22488780  0.79785706  1  0.090525  -0.00012  0.947929  0.0  0.129777  0.000899  0.096141  0.000156  1.013103  0.0  0.098492  4.5e-05  1.011893  0.0  0.120037  0.093985  0.000247  1.014638  0.001
H  H32  1  0.43076707  0.57151941  0.79735212  1  0.090293  0.000133  0.948513  0.0  0.146264  -0.000887  0.095848  -0.000145  1.013888  0.0  0.098127  -3.5e-05  1.012791  0.0  0.120176  0.093765  -0.000236  1.015329  -0.001
H  H33  1  0.06832642  0.77511469  0.20214507  1  0.090491  0.000121  0.947871  0.0  0.129751  -0.0009  0.09607  -0.000156  1.013075  0.0  0.098456  -4.5e-05  1.011826  0.0  0.120006  0.093916  -0.000247  1.014612  -0.001
C  C34  1  0.17797878  0.49748913  0.24335602  1  -0.0452  -0.002326  3.736568  -0.002  0.012608  -0.001153  -0.018861  -0.000751  3.968582  -0.001  -0.025024  -0.00125  3.987858  -0.001  -0.012148  -0.016  -0.000116  3.95702  -0.001
C  C35  1  0.32197184  0.25392175  0.75674674  1  -0.045678  -0.002289  3.73755  -0.002  -0.035161  -0.001164  -0.018174  -0.000764  3.967862  -0.001  -0.02433  -0.001245  3.987152  -0.001  -0.012213  -0.015377  -0.000132  3.956405  -0.001
C  C36  1  0.82202869  0.50251881  0.75664670  1  -0.045283  0.002365  3.7365  0.002  0.011875  0.001157  -0.018955  0.000754  3.968539  0.001  -0.025116  0.001248  3.987816  0.001  -0.012262  -0.016082  0.000117  3.956942  0.001
C  C37  1  0.67801903  0.74607713  0.24325264  1  -0.045581  0.002456  3.737473  0.002  -0.035035  0.001162  -0.018167  0.000762  3.967923  0.001  -0.024292  0.001249  3.987157  0.001  -0.012129  -0.015368  0.000131  3.956468  0.001
C  C38  1  0.29740866  0.59116810  0.31934611  1  -0.137559  0.002602  3.71813  0.002  0.00484  0.00337  -0.17122  0.002823  3.966796  0.002  -0.171151  0.002134  3.984692  0.002  -0.092071  -0.171197  0.004018  3.955318  0.003
C  C39  1  0.20266937  0.27191444  0.68082754  1  -0.137941  0.002563  3.718163  0.002  0.060144  0.003365  -0.172132  0.002826  3.966665  0.002  -0.172084  0.002129  3.984632  0.002  -0.092242  -0.172151  0.004011  3.955112  0.003
C  C40  1  0.70259374  0.40882989  0.68065211  1  -0.137598  -0.002669  3.71794  -0.002  0.004972  -0.003375  -0.171292  -0.002827  3.966558  -0.002  -0.171223  -0.002134  3.984449  -0.002  -0.09207  -0.171285  -0.004021  3.955081  -0.003
C  C41  1  0.79733283  0.72808083  0.31917039  1  -0.137977  -0.002782  3.718125  -0.002  0.059943  -0.003364  -0.172189  -0.002826  3.966632  -0.002  -0.172146  -0.002135  3.984605  -0.002  -0.092289  -0.172211  -0.004012  3.955094  -0.003
C  C42  1  0.32998191  0.59476212  0.41690649  1  0.123535  -0.001337  3.82711  -0.001  -0.060781  -0.000962  0.137799  -0.000831  4.094122  -0.001  0.139447  -0.000864  4.115672  -0.001  0.005193  0.136466  -0.000957  4.079647  -0.001
C  C43  1  0.16999979  0.17795847  0.58321469  1  0.124455  -0.001278  3.825993  -0.001  -0.064384  -0.000954  0.138551  -0.00083  4.093579  -0.001  0.140163  -0.000856  4.115168  -0.001  0.004922  0.137246  -0.000952  4.079071  -0.001
C  C44  1  0.67002332  0.40523499  0.58308948  1  0.123402  0.001364  3.827505  0.001  -0.061915  0.000962  0.137746  0.000832  4.094409  0.001  0.139393  0.000863  4.11596  0.001  0.005146  0.136412  0.000957  4.079937  0.001
C  C45  1  0.83000532  0.82203680  0.41678338  1  0.124334  0.001463  3.826185  0.001  -0.064156  0.000951  0.138424  0.000828  4.093789  0.001  0.140032  0.000862  4.115384  0.001  0.004868  0.137117  0.000952  4.079291  0.001
C  C46  1  0.24398748  0.50852629  0.44166211  1  -0.136648  0.002167  3.77208  0.002  -0.042528  0.003137  -0.164849  0.002489  4.029074  0.002  -0.165765  0.00174  4.048738  0.001  -0.102833  -0.164021  0.003805  4.015474  0.003
C  C47  1  0.25573617  0.06677065  0.55835953  1  -0.137759  0.002072  3.773908  0.002  0.029909  0.003128  -0.16639  0.00248  4.030943  0.002  -0.167346  0.001731  4.050712  0.001  -0.103038  -0.165518  0.003782  4.017239  0.003
C  C48  1  0.75601577  0.49146358  0.55833049  1  -0.136564  -0.002183  3.771873  -0.002  -0.041154  -0.003139  -0.164796  -0.002491  4.02885  -0.002  -0.165713  -0.001742  4.048512  -0.001  -0.102792  -0.163975  -0.003807  4.015269  -0.003
C  C49  1  0.74427473  0.93322462  0.44163881  1  -0.137701  -0.002286  3.773827  -0.002  0.029636  -0.003127  -0.166288  -0.002479  4.030871  -0.002  -0.167239  -0.001737  4.05064  -0.001  -0.102966  -0.165419  -0.003782  4.01717  -0.003
C  C50  1  0.12438706  0.41580897  0.36548184  1  -0.071574  -0.001224  3.798812  -0.001  -0.057589  -0.000555  -0.081028  -0.000434  4.055582  -0.001  -0.084032  -0.000699  4.076522  -0.001  -0.097698  -0.078813  -0.000298  4.040834  -0.001
C  C51  1  0.37526145  0.04997752  0.63447093  1  -0.070343  -0.001169  3.799424  -0.001  -0.137559  -0.000553  -0.079822  -0.000429  4.055895  -0.001  -0.08284  -0.00069  4.076844  -0.001  -0.09733  -0.077601  -0.00029  4.041131  -0.001
C  C52  1  0.87561975  0.58418994  0.63451417  1  -0.071434  0.001302  3.798688  0.001  -0.057888  0.000556  -0.080886  0.000434  4.055449  0.001  -0.083886  0.0007  4.076387  0.001  -0.097693  -0.07868  0.000298  4.040717  0.001
C  C53  1  0.62474853  0.95002501  0.36552790  1  -0.070315  0.001375  3.799208  0.001  -0.142267  0.00055  -0.079792  0.000426  4.055652  0.001  -0.082811  0.000696  4.076604  0.001  -0.097373  -0.077563  0.00029  4.040872  0.001
C  C54  1  0.09291196  0.40940060  0.26683027  1  -0.081165  0.001229  3.732379  0.001  0.019366  0.001571  -0.108851  0.001074  3.980916  0.001  -0.1079  0.000835  3.999636  0.001  -0.090822  -0.109066  0.001658  3.968024  0.001
C  C55  1  0.40681236  0.14214133  0.73317393  1  -0.080686  0.001208  3.73275  0.001  0.016194  0.001562  -0.108245  0.00107  3.981095  0.001  -0.107369  0.000827  3.999797  0.001  -0.090522  -0.108432  0.001644  3.968196  0.001
C  C56  1  0.90708754  0.59059740  0.73316644  1  -0.081304  -0.001332  3.732623  -0.001  0.019588  -0.001574  -0.109014  -0.001076  3.981169  -0.001  -0.108071  -0.000833  3.999896  -0.001  -0.09088  -0.109225  -0.001659  3.968276  -0.001
C  C57  1  0.59319017  0.85785846  0.26682633  1  -0.080793  -0.001399  3.732879  -0.001  0.01622  -0.001559  -0.108324  -0.001068  3.981252  -0.001  -0.107455  -0.000832  3.999963  -0.001  -0.090532  -0.108504  -0.001643  3.968336  -0.001
C  C58  1  0.14004594  0.49373041  0.13787917  1  0.673994  0.006581  3.875616  0.006  1.632563  0.010376  0.618756  0.009318  4.172789  0.008  0.656088  0.006554  4.163135  0.006  0.224218  0.592798  0.012478  4.177768  0.01
C  C59  1  0.36037380  0.35551485  0.86225648  1  0.673845  0.006518  3.875484  0.006  1.64065  0.010325  0.618585  0.009256  4.172213  0.008  0.655937  0.00651  4.16249  0.006  0.22462  0.592621  0.012383  4.177219  0.01
C  C60  1  0.85995283  0.50627755  0.86212176  1  0.674237  -0.006555  3.875344  -0.006  1.632628  -0.010383  0.618987  -0.009324  4.172515  -0.008  0.656317  -0.006559  4.162863  -0.006  0.224277  0.593028  -0.012483  4.177486  -0.01
C  C61  1  0.63961983  0.64448226  0.13773826  1  0.673617  -0.006518  3.875327  -0.006  1.639754  -0.010327  0.618365  -0.00926  4.172086  -0.008  0.655711  -0.006512  4.162377  -0.006  0.224447  0.592398  -0.012389  4.177093  -0.01
C  C62  1  0.71473764  0.16230563  0.05159055  1  0.174275  0.002467  3.749188  0.003  0.532317  0.007774  0.169032  0.005801  3.995095  0.005  0.176038  0.003934  4.013304  0.004  0.123874  0.163363  0.009438  3.98435  0.007
C  C63  1  0.78512445  0.11086112  0.94925714  1  0.175374  0.002494  3.748392  0.003  0.471476  0.007873  0.168909  0.005844  3.995404  0.005  0.175908  0.003966  4.013623  0.004  0.124025  0.163232  0.009496  3.984657  0.007
C  C64  1  0.28526042  0.83769235  0.94840953  1  0.174297  -0.002446  3.749199  -0.003  0.53237  -0.007777  0.169002  -0.005805  3.995149  -0.005  0.176009  -0.003934  4.013356  -0.004  0.123847  0.163333  -0.009439  3.984404  -0.007
C  C65  1  0.21487208  0.88913596  0.05074117  1  0.175402  -0.002508  3.748399  -0.003  0.471565  -0.007874  0.168942  -0.005845  3.995426  -0.005  0.175941  -0.003968  4.013643  -0.004  0.124046  0.163262  -0.009497  3.984673  -0.007
C  C66  1  0.69787205  0.09626411  0.10975361  1  -0.155353  -0.001301  3.727372  -0.001  -0.093692  -0.000693  -0.175109  -0.000612  3.980198  -0.001  -0.182543  -0.000932  4.0018  -0.001  -0.083935  -0.169994  -0.00021  3.966351  -0.001
C  C67  1  0.80162339  0.98649824  0.89129490  1  -0.155253  -0.001324  3.725693  -0.001  -0.051955  -0.000716  -0.174165  -0.000623  3.97888  -0.001  -0.181575  -0.000946  4.000423  -0.001  -0.083501  -0.169103  -0.000221  3.96508  -0.001
C  C68  1  0.30213213  0.90373839  0.89024907  1  -0.155577  0.001269  3.727204  0.001  -0.093576  0.000694  -0.175322  0.000613  3.980067  0.001  -0.182756  0.000934  4.001663  0.001  -0.084032  -0.170223  0.00021  3.966233  0.001
C  C69  1  0.19837914  0.01350155  0.10870604  1  -0.155249  0.001391  3.725834  0.001  -0.053109  0.000715  -0.174165  0.000623  3.979013  0.001  -0.181572  0.000946  4.000558  0.001  -0.083492  -0.169106  0.000219  3.965213  0.001
C  C70  1  0.63088308  0.15310957  0.20560992  1  -0.014961  0.002494  3.752486  0.002  -0.013976  0.006249  -0.0327  0.004828  4.002613  0.004  -0.029433  0.00341  4.022072  0.003  -0.074347  -0.035356  0.007504  3.990476  0.006
C  C71  1  0.86885773  0.94700054  0.79545426  1  -0.0153  0.002545  3.752458  0.002  0.051337  0.006298  -0.033414  0.004864  4.002551  0.004  -0.030095  0.003439  4.022035  0.003  -0.074852  -0.036114  0.007555  3.990427  0.006
C  C72  1  0.36912090  0.84689021  0.79439247  1  -0.014903  -0.002454  3.752573  -0.002  -0.013799  -0.006249  -0.03262  -0.004828  4.00266  -0.004  -0.029352  -0.003413  4.022116  -0.003  -0.074308  -0.035283  -0.007506  3.990541  -0.006
C  C73  1  0.13115528  0.05300379  0.20454673  1  -0.015181  -0.002534  3.752457  -0.002  0.051231  -0.006295  -0.033274  -0.004861  4.002549  -0.004  -0.029957  -0.003438  4.022033  -0.003  -0.074765  -0.035964  -0.007552  3.990424  -0.006
C  C74  1  0.58015561  0.27364612  0.24073534  1  -0.126425  -0.000938  3.735919  -0.001  -0.007074  0.000379  -0.137629  0.000176  3.984287  0.0  -0.144934  -0.000743  4.006884  -0.001  -0.088064  -0.133896  0.002675  3.970882  0.002
C  C75  1  0.92020669  0.03210534  0.76020400  1  -0.126376  -0.000969  3.738825  -0.001  -0.072826  0.000378  -0.137242  0.000169  3.986995  0.0  -0.144533  -0.000759  4.009534  -0.001  -0.088603  -0.133536  0.002684  3.973606  0.002
C  C76  1  0.41983362  0.72635000  0.75926987  1  -0.126396  0.000864  3.736167  0.001  -0.006909  -0.00038  -0.137614  -0.000177  3.984542  0.0  -0.144915  0.000746  4.007137  0.001  -0.088014  -0.133874  -0.002676  3.971139  -0.002
C  C77  1  0.07978016  0.96789807  0.23979749  1  -0.126603  0.000905  3.738839  0.001  -0.072872  -0.00038  -0.137529  -0.000171  3.987057  0.0  -0.144823  0.000759  4.009613  0.001  -0.088684  -0.133823  -0.002686  3.97366  -0.002
C  C78  1  0.60255785  0.33364135  0.17887806  1  0.147045  0.002383  3.673591  0.002  0.4931  0.006094  0.117778  0.004756  3.92472  0.004  0.12453  0.003791  3.941062  0.003  0.060351  0.112616  0.005496  3.915837  0.004
C  C79  1  0.89800438  0.15407472  0.82181117  1  0.146701  0.002422  3.67644  0.002  0.508779  0.006135  0.117662  0.004783  3.926789  0.004  0.124382  0.003821  3.943063  0.003  0.060899  0.112553  0.005518  3.917941  0.004
C  C80  1  0.39744601  0.66635659  0.82112642  1  0.147211  -0.002371  3.673726  -0.002  0.492747  -0.006094  0.117968  -0.004756  3.924836  -0.004  0.124719  -0.003792  3.94118  -0.003  0.060386  0.112808  -0.005496  3.915936  -0.004
C  C81  1  0.10198833  0.84592960  0.17819024  1  0.146753  -0.00242  3.676466  -0.002  0.508808  -0.006133  0.117793  -0.004782  3.926772  -0.004  0.124481  -0.003819  3.943038  -0.003  0.060935  0.112679  -0.005514  3.917927  -0.004
N  N82  1  0.66833756  0.27980337  0.08721580  1  -0.322183  0.026798  3.202021  0.016  -1.276295  0.045476  -0.26105  0.032545  3.465053  0.019  -0.275626  0.028411  3.47572  0.015  -0.302644  -0.252216  0.038296  3.459928  0.024
N  N83  1  0.83198541  0.19238677  0.91344444  1  -0.322397  0.026724  3.202535  0.016  -1.271003  0.045452  -0.261218  0.032496  3.466033  0.018  -0.275756  0.028361  3.476644  0.015  -0.302688  -0.252372  0.038248  3.460879  0.024
N  N84  1  0.33165786  0.72019820  0.91278821  1  -0.322318  -0.026803  3.202242  -0.016  -1.276453  -0.045474  -0.261132  -0.032546  3.465236  -0.019  -0.275707  -0.028413  3.475904  -0.015  -0.302653  -0.252292  -0.0383  3.460091  -0.024
N  N85  1  0.16801581  0.80761480  0.08655983  1  -0.322369  -0.026719  3.202533  -0.016  -1.270988  -0.045452  -0.261194  -0.032492  3.465996  -0.018  -0.275732  -0.02836  3.476621  -0.015  -0.302718  -0.252351  -0.038246  3.460841  -0.024
Cl  Cl86  1  0.47907807  0.71137800  0.51033350  1  -0.10976  -0.000106  1.403242  0.0  -0.249237  -0.000181  -0.084643  -0.00017  1.640457  0.0  -0.089189  -0.000149  1.637149  0.0  0.008039  -0.080925  -0.000193  1.64274  0.0
Cl  Cl87  1  0.02121572  0.20139211  0.48976584  1  -0.109919  -0.000102  1.40304  0.0  -0.253335  -0.000177  -0.084712  -0.000167  1.640066  0.0  -0.089245  -0.000145  1.636769  0.0  0.008  -0.08102  -0.000187  1.642341  0.0
Cl  Cl88  1  0.52093494  0.28862632  0.48966887  1  -0.109665  0.00011  1.403575  0.0  -0.249161  0.000181  -0.084564  0.000171  1.640753  0.0  -0.08911  0.000148  1.637446  0.0  0.008082  -0.080853  0.000193  1.643035  0.0
Cl  Cl89  1  0.97878681  0.79860770  0.51023235  1  -0.109876  0.00011  1.403171  0.0  -0.25335  0.000178  -0.084651  0.000167  1.640195  0.0  -0.089184  0.000147  1.6369  0.0  0.008034  -0.080951  0.000188  1.642474  0.0
O  O90  1  0.04581194  0.40291882  0.06815480  1  -0.63754  0.021392  2.049613  0.008  -1.229223  0.037337  -0.58559  0.026451  2.322583  0.009  -0.613566  0.023831  2.307211  0.007  -0.310237  -0.563896  0.030256  2.33182  0.013
O  O91  1  0.45472735  0.33413815  0.93182294  1  -0.636923  0.021343  2.049339  0.008  -1.227863  0.037252  -0.585195  0.026354  2.322057  0.009  -0.613115  0.023756  2.306558  0.007  -0.310426  -0.563527  0.030136  2.331363  0.013
O  O92  1  0.95417404  0.59709274  0.93184957  1  -0.637697  -0.021397  2.049572  -0.008  -1.228894  -0.037339  -0.585713  -0.026453  2.322518  -0.009  -0.613682  -0.023832  2.307139  -0.007  -0.310273  -0.564018  -0.03026  2.331733  -0.013
O  O93  1  0.54526332  0.66585804  0.06817201  1  -0.636776  -0.021337  2.049133  -0.008  -1.227476  -0.03726  -0.585009  -0.026352  2.321819  -0.009  -0.612929  -0.023756  2.306327  -0.007  -0.31031  -0.563349  -0.030133  2.331138  -0.013
O  O94  1  0.79217970  0.41505252  0.87245299  1  -0.644053  0.027814  2.079287  0.011  -1.228617  0.039982  -0.57583  0.02792  2.353934  0.006  -0.606879  0.027579  2.339247  0.006  -0.308356  -0.55171  0.028194  2.362681  0.007
O  O95  1  0.70718928  0.54275723  0.12724186  1  -0.644044  0.027907  2.080543  0.011  -1.22829  0.040261  -0.576146  0.028031  2.355996  0.006  -0.607157  0.027656  2.34121  0.006  -0.308598  -0.552051  0.028353  2.364837  0.007
O  O96  1  0.20782019  0.58495093  0.12754361  1  -0.643984  -0.027832  2.079512  -0.011  -1.228535  -0.039992  -0.575759  -0.027927  2.354174  -0.006  -0.606811  -0.027586  2.339494  -0.006  -0.308341  -0.551628  -0.028199  2.362921  -0.007
O  O97  1  0.29279863  0.45724070  0.87276325  1  -0.644124  -0.027893  2.08061  -0.011  -1.228652  -0.040265  -0.576179  -0.028035  2.355972  -0.006  -0.607187  -0.027658  2.341183  -0.006  -0.308616  -0.552086  -0.028357  2.364808  -0.007
