# generated using pymatgen
data_TmH13(C4O3)4
_symmetry_space_group_name_H-M   'P 1'
_cell_length_a   7.90035477
_cell_length_b   10.56691884
_cell_length_c   11.02309498
_cell_angle_alpha   87.32618702
_cell_angle_beta   77.62409513
_cell_angle_gamma   69.39824833
_symmetry_Int_Tables_number   1
_chemical_formula_structural   TmH13(C4O3)4
_chemical_formula_sum   'Tm2 H26 C32 O24'
_cell_volume   840.95147710
_cell_formula_units_Z   2
loop_
 _symmetry_equiv_pos_site_id
 _symmetry_equiv_pos_as_xyz
  1  'x, y, z'
loop_
 _atom_site_type_symbol
 _atom_site_label
 _atom_site_symmetry_multiplicity
 _atom_site_fract_x
 _atom_site_fract_y
 _atom_site_fract_z
 _atom_site_occupancy
 _atom_site_hle17_bader_spin_density
 _atom_site_hle17_ddec_charge
 _atom_site_hle17_ddec_spin_density
 _atom_site_hle17_ddec_sum_bond_order
 _atom_site_hle17_magmom
 _atom_site_hse06_10hf_bader_spin_density
 _atom_site_hse06_10hf_ddec_charge
 _atom_site_hse06_10hf_ddec_spin_density
 _atom_site_hse06_10hf_ddec_sum_bond_order
 _atom_site_hse06_10hf_magmom
 _atom_site_hse06_bader_spin_density
 _atom_site_hse06_ddec_charge
 _atom_site_hse06_ddec_spin_density
 _atom_site_hse06_ddec_sum_bond_order
 _atom_site_hse06_magmom
 _atom_site_pbe_bader_spin_density
 _atom_site_pbe_cm5_charge
 _atom_site_pbe_ddec_charge
 _atom_site_pbe_ddec_spin_density
 _atom_site_pbe_ddec_sum_bond_order
 _atom_site_pbe_magmom
Tm  Tm0  1  0.16851298  0.73382446  0.93444102  1  0  2.135392  0  1.703925  0  0  2.055622  0  2.058469  0  0  2.126278  0  1.977151  0  0  1.52182  2.019192  0  2.08762  0
Tm  Tm1  1  0.83153330  0.26617808  0.06554753  1  0  2.135203  0  1.704197  0  0  2.055482  0  2.058637  0  0  2.126094  0  1.977408  0  0  1.521748  2.018919  0  2.087984  0
H  H2  1  0.44081202  0.74146346  0.50519175  1  0  0.112894  0  0.973294  0  0  0.119457  0  1.042208  0  0  0.122842  0  1.039512  0  0  0.11013  0.117174  0  1.04356  0
H  H3  1  0.55918929  0.25855148  0.49480118  1  0  0.112923  0  0.973281  0  0  0.119564  0  1.042112  0  0  0.122926  0  1.039477  0  0  0.11014  0.117286  0  1.043467  0
H  H4  1  0.03090311  0.12908709  0.63036259  1  0  0.130272  0  0.925113  0  0  0.139409  0  0.987367  0  0  0.14321  0  0.984636  0  0  0.114642  0.13665  0  0.989323  0
H  H5  1  0.96906763  0.87090730  0.36965279  1  0  0.129973  0  0.925263  0  0  0.139242  0  0.987391  0  0  0.143086  0  0.984609  0  0  0.114526  0.136484  0  0.989331  0
H  H6  1  0.31153098  0.06412578  0.24522152  1  0  0.144799  0  0.91681  0  0  0.151334  0  0.979442  0  0  0.156434  0  0.974486  0  0  0.121637  0.147457  0  0.983449  0
H  H7  1  0.68844562  0.93590771  0.75479000  1  0  0.144744  0  0.916956  0  0  0.151349  0  0.979491  0  0  0.156403  0  0.974593  0  0  0.121669  0.147472  0  0.983487  0
H  H8  1  0.23204206  0.30065762  0.55667104  1  0  0.105358  0  0.977611  0  0  0.112218  0  1.045506  0  0  0.115128  0  1.044503  0  0  0.103524  0.110299  0  1.045911  0
H  H9  1  0.76793478  0.69936198  0.44333850  1  0  0.105376  0  0.977667  0  0  0.112193  0  1.045608  0  0  0.115101  0  1.04461  0  0  0.103517  0.11027  0  1.046011  0
H  H10  1  0.33741192  0.49741328  0.53364300  1  0  0.107619  0  0.931863  0  0  0.118973  0  0.988403  0  0  0.122301  0  0.986396  0  0  0.110348  0.116631  0  0.989914  0
H  H11  1  0.66257747  0.50260068  0.46636518  1  0  0.107658  0  0.931737  0  0  0.118959  0  0.988378  0  0  0.122263  0  0.986392  0  0  0.110346  0.116611  0  0.989892  0
H  H12  1  0.29517385  0.64158046  0.34801818  1  0  0.103782  0  0.971656  0  0  0.109067  0  1.043375  0  0  0.112334  0  1.041304  0  0  0.101281  0.106843  0  1.044577  0
H  H13  1  0.70485895  0.35841604  0.65197704  1  0  0.103891  0  0.971568  0  0  0.109133  0  1.043317  0  0  0.112393  0  1.041251  0  0  0.101279  0.106938  0  1.044488  0
H  H14  1  0.70630899  0.59989122  0.23811350  1  0  0.435039  0  0.838913  0  0  0.401832  0  0.916331  0  0  0.415981  0  0.900828  0  0  0.314571  0.391879  0  0.927134  0
H  H15  1  0.29365553  0.40013309  0.76190013  1  0  0.435199  0  0.838868  0  0  0.401918  0  0.916396  0  0  0.416076  0  0.900884  0  0  0.314575  0.391963  0  0.927207  0
H  H16  1  0.79750971  0.83833588  0.09305197  1  0  0.451294  0  0.833705  0  0  0.421997  0  0.893237  0  0  0.432193  0  0.878384  0  0  0.314422  0.414754  0  0.903817  0
H  H17  1  0.20255486  0.16165418  0.90695211  1  0  0.451253  0  0.833742  0  0  0.421895  0  0.893398  0  0  0.432095  0  0.878538  0  0  0.314312  0.414646  0  0.903994  0
H  H18  1  0.90805941  0.92927876  0.13362113  1  0  0.445353  0  0.854733  0  0  0.414732  0  0.917407  0  0  0.425773  0  0.901577  0  0  0.307699  0.406945  0  0.928596  0
H  H19  1  0.09196725  0.07073911  0.86638643  1  0  0.445231  0  0.854795  0  0  0.414618  0  0.917473  0  0  0.425656  0  0.901644  0  0  0.307746  0.40683  0  0.928663  0
H  H20  1  0.25475054  0.97259578  0.98000240  1  0  0.440603  0  0.852338  0  0  0.415028  0  0.906239  0  0  0.42596  0  0.890225  0  0  0.308306  0.407234  0  0.917723  0
H  H21  1  0.74527329  0.02741240  0.02000698  1  0  0.440426  0  0.852583  0  0  0.414988  0  0.906312  0  0  0.42592  0  0.890296  0  0  0.308189  0.407185  0  0.917815  0
H  H22  1  0.40044061  0.85391954  0.03880901  1  0  0.458158  0  0.81533  0  0  0.432851  0  0.867183  0  0  0.442357  0  0.85328  0  0  0.314872  0.426175  0  0.877024  0
H  H23  1  0.59960981  0.14606975  0.96117157  1  0  0.457856  0  0.815631  0  0  0.432552  0  0.867503  0  0  0.442059  0  0.853598  0  0  0.314686  0.425871  0  0.877354  0
H  H24  1  0.52244817  0.59689510  0.81011766  1  0  0.44451  0  0.819235  0  0  0.421156  0  0.884393  0  0  0.42901  0  0.876305  0  0  0.323997  0.415556  0  0.890443  0
H  H25  1  0.47742797  0.40283314  0.18969998  1  0  0.44456  0  0.819094  0  0  0.421266  0  0.884134  0  0  0.429119  0  0.876044  0  0  0.324064  0.41566  0  0.890196  0
H  H26  1  0.50795867  0.47951220  0.89797171  1  0  0.458966  0  0.799275  0  0  0.435014  0  0.861624  0  0  0.44432  0  0.851061  0  0  0.33025  0.428373  0  0.869309  0
H  H27  1  0.49196195  0.52045764  0.10219060  1  0  0.458791  0  0.799261  0  0  0.434638  0  0.862011  0  0  0.443919  0  0.851511  0  0  0.329948  0.428015  0  0.869655  0
C  C28  1  0.53097459  0.79872130  0.26055094  1  0  0.674605  0  3.800153  0  0  0.617201  0  4.103088  0  0  0.651757  0  4.092965  0  0  0.2441  0.593846  0  4.109424  0
C  C29  1  0.46901874  0.20130622  0.73945506  1  0  0.674505  0  3.800335  0  0  0.617163  0  4.10313  0  0  0.651743  0  4.092981  0  0  0.24411  0.593818  0  4.109459  0
C  C30  1  0.39462328  0.89149366  0.36320001  1  0  -0.077354  0  3.767987  0  0  -0.05137  0  4.009936  0  0  -0.062395  0  4.035272  0  0  -0.017653  -0.044625  0  3.992959  0
C  C31  1  0.60536894  0.10852777  0.63679648  1  0  -0.077372  0  3.767998  0  0  -0.051432  0  4.009979  0  0  -0.062456  0  4.03529  0  0  -0.017754  -0.044694  0  3.993011  0
C  C32  1  0.36618300  0.84496855  0.48445268  1  0  -0.058333  0  3.669199  0  0  -0.10081  0  3.919786  0  0  -0.097303  0  3.938977  0  0  -0.072619  -0.101835  0  3.905339  0
C  C33  1  0.63380968  0.15505102  0.51554931  1  0  -0.058382  0  3.669069  0  0  -0.100922  0  3.919646  0  0  -0.097431  0  3.93885  0  0  -0.072604  -0.101959  0  3.905223  0
C  C34  1  0.23977908  0.92993957  0.58157422  1  0  -0.046529  0  3.743899  0  0  -0.0197  0  3.978658  0  0  -0.028828  0  4.001483  0  0  -0.01477  -0.013885  0  3.963033  0
C  C35  1  0.76021302  0.07006814  0.41842669  1  0  -0.046306  0  3.743731  0  0  -0.019516  0  3.978515  0  0  -0.028637  0  4.00134  0  0  -0.014795  -0.013707  0  3.962893  0
C  C36  1  0.13633539  0.06297217  0.55705004  1  0  -0.143603  0  3.661514  0  0  -0.182642  0  3.916455  0  0  -0.181745  0  3.933944  0  0  -0.07689  -0.183124  0  3.904635  0
C  C37  1  0.86363855  0.93703475  0.44295968  1  0  -0.143547  0  3.661644  0  0  -0.182649  0  3.916513  0  0  -0.181796  0  3.934001  0  0  -0.076759  -0.183119  0  3.904677  0
C  C38  1  0.16506439  0.10854983  0.43594895  1  0  0.258748  0  3.767973  0  0  0.254194  0  4.03665  0  0  0.259044  0  4.054532  0  0  0.087372  0.250455  0  4.024689  0
C  C39  1  0.83491344  0.89146380  0.56406079  1  0  0.258949  0  3.767533  0  0  0.254412  0  4.036279  0  0  0.259262  0  4.054173  0  0  0.087226  0.250669  0  4.024314  0
C  C40  1  0.29430679  0.02535263  0.33876651  1  0  -0.120158  0  3.628369  0  0  -0.16119  0  3.883469  0  0  -0.159263  0  3.899155  0  0  -0.068175  -0.162709  0  3.873859  0
C  C41  1  0.70566915  0.97467208  0.66124831  1  0  -0.120015  0  3.628184  0  0  -0.161084  0  3.883231  0  0  -0.159117  0  3.898935  0  0  -0.068004  -0.162603  0  3.873609  0
C  C42  1  0.21423220  0.87292692  0.70845727  1  0  0.662738  0  3.88862  0  0  0.613285  0  4.185784  0  0  0.647678  0  4.178849  0  0  0.206272  0.589826  0  4.191121  0
C  C43  1  0.78577220  0.12707307  0.29153699  1  0  0.662403  0  3.88918  0  0  0.613039  0  4.186246  0  0  0.647432  0  4.179302  0  0  0.206131  0.589589  0  4.191555  0
C  C44  1  0.12237574  0.33921339  0.39116342  1  0  0.256349  0  3.767175  0  0  0.24319  0  4.024319  0  0  0.251453  0  4.041217  0  0  0.092264  0.237431  0  4.012805  0
C  C45  1  0.87760641  0.66080591  0.60884543  1  0  0.256126  0  3.767329  0  0  0.242978  0  4.024544  0  0  0.251256  0  4.041426  0  0  0.09216  0.237212  0  4.013023  0
C  C46  1  0.21218701  0.36528433  0.47753441  1  0  -0.160737  0  3.75829  0  0  -0.188474  0  4.021744  0  0  -0.191743  0  4.041766  0  0  -0.09384  -0.186076  0  4.008143  0
C  C47  1  0.78780490  0.63473037  0.52246886  1  0  -0.160698  0  3.758467  0  0  -0.18832  0  4.021729  0  0  -0.191592  0  4.041743  0  0  -0.093822  -0.18592  0  4.008115  0
C  C48  1  0.27172123  0.47544705  0.46387283  1  0  -0.029431  0  3.740327  0  0  -0.047497  0  4.005092  0  0  -0.047177  0  4.021149  0  0  -0.084228  -0.048146  0  3.994629  0
C  C49  1  0.72827662  0.52456540  0.53613250  1  0  -0.029338  0  3.740472  0  0  -0.047371  0  4.005223  0  0  -0.047033  0  4.021271  0  0  -0.084145  -0.048014  0  3.994761  0
C  C50  1  0.24493733  0.55743392  0.36227006  1  0  -0.089652  0  3.735864  0  0  -0.121097  0  3.999908  0  0  -0.12003  0  4.01598  0  0  -0.093443  -0.121794  0  3.989222  0
C  C51  1  0.75507832  0.44257040  0.63772428  1  0  -0.089939  0  3.735959  0  0  -0.121302  0  4.000025  0  0  -0.120216  0  4.016087  0  0  -0.093522  -0.122027  0  3.989332  0
C  C52  1  0.15612773  0.53069764  0.27443960  1  0  -0.077449  0  3.767222  0  0  -0.060985  0  3.997851  0  0  -0.066571  0  4.018164  0  0  -0.020521  -0.057506  0  3.984351  0
C  C53  1  0.84387916  0.46930834  0.72556307  1  0  -0.077131  0  3.766755  0  0  -0.060749  0  3.997488  0  0  -0.066356  0  4.01782  0  0  -0.020393  -0.05728  0  3.984011  0
C  C54  1  0.09046769  0.42203107  0.28924872  1  0  -0.131941  0  3.664438  0  0  -0.122925  0  3.897239  0  0  -0.127595  0  3.913777  0  0  -0.005745  -0.119752  0  3.88602  0
C  C55  1  0.90951280  0.57798929  0.71075938  1  0  -0.132108  0  3.664244  0  0  -0.123059  0  3.897059  0  0  -0.127728  0  3.913592  0  0  -0.005818  -0.119867  0  3.88582  0
C  C56  1  0.99621325  0.38438882  0.19976130  1  0  0.710149  0  3.852864  0  0  0.653808  0  4.165026  0  0  0.690196  0  4.153543  0  0  0.209816  0.628807  0  4.173627  0
C  C57  1  0.00376685  0.61563255  0.80024680  1  0  0.710552  0  3.852951  0  0  0.654331  0  4.164862  0  0  0.690719  0  4.153378  0  0  0.210105  0.629325  0  4.173476  0
C  C58  1  0.15599309  0.60701700  0.15721523  1  0  0.61309  0  3.974639  0  0  0.570101  0  4.268957  0  0  0.602751  0  4.264146  0  0  0.179746  0.547745  0  4.273001  0
C  C59  1  0.84404879  0.39298074  0.84276873  1  0  0.612687  0  3.974494  0  0  0.569653  0  4.269007  0  0  0.602313  0  4.264188  0  0  0.179504  0.547288  0  4.273049  0
O  O60  1  0.56846497  0.83565346  0.15228450  1  0  -0.585541  0  1.953432  0  0  -0.531557  0  2.161129  0  0  -0.551182  0  2.147451  0  0  -0.285248  -0.518113  0  2.170336  0
O  O61  1  0.43156207  0.16436946  0.84772908  1  0  -0.585675  0  1.953785  0  0  -0.531608  0  2.161369  0  0  -0.551241  0  2.147677  0  0  -0.285264  -0.518157  0  2.170577  0
O  O62  1  0.60834781  0.67556656  0.29877453  1  0  -0.556826  0  2.159239  0  0  -0.49364  0  2.388597  0  0  -0.518104  0  2.373451  0  0  -0.309692  -0.476843  0  2.398569  0
O  O63  1  0.39163320  0.32444584  0.70123213  1  0  -0.556836  0  2.159375  0  0  -0.493652  0  2.388797  0  0  -0.518119  0  2.373615  0  0  -0.309673  -0.476859  0  2.398782  0
O  O64  1  0.31733822  0.75320728  0.72567302  1  0  -0.688393  0  2.001507  0  0  -0.647323  0  2.242314  0  0  -0.674756  0  2.234513  0  0  -0.37718  -0.629677  0  2.246815  0
O  O65  1  0.68264034  0.24678396  0.27430973  1  0  -0.688327  0  2.001744  0  0  -0.647319  0  2.242507  0  0  -0.674738  0  2.234708  0  0  -0.377092  -0.629661  0  2.247011  0
O  O66  1  0.08726316  0.94237181  0.79847342  1  0  -0.692679  0  1.992031  0  0  -0.641769  0  2.224137  0  0  -0.669086  0  2.213623  0  0  -0.347908  -0.623895  0  2.230605  0
O  O67  1  0.91277408  0.05764161  0.20153752  1  0  -0.692543  0  1.992184  0  0  -0.641709  0  2.224278  0  0  -0.669022  0  2.213777  0  0  -0.347848  -0.62382  0  2.230726  0
O  O68  1  0.05039483  0.23589194  0.40862539  1  0  -0.308348  0  2.351774  0  0  -0.241277  0  2.578862  0  0  -0.258518  0  2.58476  0  0  -0.156653  -0.22916  0  2.574456  0
O  O69  1  0.94958181  0.76412775  0.59138780  1  0  -0.308308  0  2.351906  0  0  -0.241381  0  2.579141  0  0  -0.258621  0  2.585016  0  0  -0.156609  -0.229271  0  2.574746  0
O  O70  1  0.82957561  0.45446435  0.19218135  1  0  -0.684372  0  2.053173  0  0  -0.63699  0  2.29467  0  0  -0.665809  0  2.283245  0  0  -0.347441  -0.618117  0  2.302073  0
O  O71  1  0.17040254  0.54554141  0.80783060  1  0  -0.684771  0  2.053204  0  0  -0.63737  0  2.29469  0  0  -0.666199  0  2.283254  0  0  -0.347645  -0.618521  0  2.302108  0
O  O72  1  0.08053866  0.27232424  0.13993978  1  0  -0.65703  0  1.956772  0  0  -0.622042  0  2.197819  0  0  -0.648661  0  2.186685  0  0  -0.383286  -0.604698  0  2.204411  0
O  O73  1  0.91947596  0.72769985  0.86005269  1  0  -0.657051  0  1.957067  0  0  -0.622137  0  2.198075  0  0  -0.648759  0  2.186936  0  0  -0.383286  -0.604801  0  2.204629  0
O  O74  1  0.07801713  0.58500077  0.07497670  1  0  -0.641384  0  2.012995  0  0  -0.601328  0  2.246609  0  0  -0.627298  0  2.23916  0  0  -0.370677  -0.584683  0  2.250804  0
O  O75  1  0.92191880  0.41506211  0.92505765  1  0  -0.641332  0  2.012815  0  0  -0.601307  0  2.246547  0  0  -0.62728  0  2.239107  0  0  -0.370722  -0.58463  0  2.250732  0
O  O76  1  0.24555513  0.68934920  0.13717668  1  0  -0.714812  0  1.983729  0  0  -0.673214  0  2.22095  0  0  -0.699953  0  2.211558  0  0  -0.390483  -0.655691  0  2.226492  0
O  O77  1  0.75465440  0.31052976  0.86275987  1  0  -0.714555  0  1.983391  0  0  -0.672907  0  2.220504  0  0  -0.699667  0  2.211168  0  0  -0.390295  -0.655365  0  2.226048  0
O  O78  1  0.89911032  0.87438245  0.06428475  1  0  -0.915095  0  1.945284  0  0  -0.866148  0  2.130727  0  0  -0.891083  0  2.098737  0  0  -0.627656  -0.850261  0  2.151652  0
O  O79  1  0.10094540  0.12560931  0.93572948  1  0  -0.914852  0  1.945306  0  0  -0.865892  0  2.130725  0  0  -0.890818  0  2.098753  0  0  -0.627571  -0.849976  0  2.151655  0
O  O80  1  0.32451927  0.87402598  0.97564768  1  0  -0.895218  0  1.844195  0  0  -0.853548  0  2.013151  0  0  -0.874316  0  1.979573  0  0  -0.643252  -0.84062  0  2.03503  0
O  O81  1  0.67549060  0.12597804  0.02436288  1  0  -0.894716  0  1.844611  0  0  -0.853183  0  2.013226  0  0  -0.873942  0  1.979671  0  0  -0.642926  -0.840222  0  2.035112  0
O  O82  1  0.46983135  0.57842080  0.89494613  1  0  -0.874763  0  1.898464  0  0  -0.8349  0  2.096039  0  0  -0.855518  0  2.072224  0  0  -0.629746  -0.822005  0  2.11145  0
O  O83  1  0.53014891  0.42152638  0.10497167  1  0  -0.874577  0  1.898149  0  0  -0.834543  0  2.095943  0  0  -0.855134  0  2.072211  0  0  -0.629395  -0.821637  0  2.111311  0
