# generated using pymatgen
data_AlH6C10N2O7
_symmetry_space_group_name_H-M   'P 1'
_cell_length_a   6.82434693
_cell_length_b   11.15183589
_cell_length_c   11.23242239
_cell_angle_alpha   77.95261103
_cell_angle_beta   71.23443764
_cell_angle_gamma   71.07452003
_symmetry_Int_Tables_number   1
_chemical_formula_structural   AlH6C10N2O7
_chemical_formula_sum   'Al2 H12 C20 N4 O14'
_cell_volume   760.41973426
_cell_formula_units_Z   2
loop_
 _symmetry_equiv_pos_site_id
 _symmetry_equiv_pos_as_xyz
  1  'x, y, z'
loop_
 _atom_site_type_symbol
 _atom_site_label
 _atom_site_symmetry_multiplicity
 _atom_site_fract_x
 _atom_site_fract_y
 _atom_site_fract_z
 _atom_site_occupancy
 _atom_site_pbe_bader_charge
 _atom_site_pbe_bader_spin_density
 _atom_site_pbe_cm5_charge
 _atom_site_pbe_ddec_charge
 _atom_site_pbe_ddec_spin_density
 _atom_site_pbe_ddec_sum_bond_order
 _atom_site_pbe_magmom
Al  Al0  1  0.49728273  0.49320330  0.50870084  1  2.507063  0  0.405571  1.639833  0  2.551127  0
Al  Al1  1  0.99522059  0.49809755  0.50801418  1  2.508067  0  0.40041  1.647314  0  2.550142  0
H  H2  1  0.23766449  0.37633903  0.64145519  1  0.622539  0  0.342331  0.42433  0  0.8704  0
H  H3  1  0.69913460  0.65027729  0.43370015  1  0.631512  0  0.339982  0.416979  0  0.881626  0
H  H4  1  0.77157486  0.45287571  0.12460303  1  0.209622  0  0.121236  0.124408  0  1.090856  0
H  H5  1  0.22362120  0.53316351  0.89343979  1  0.18234  0  0.121365  0.126484  0  1.090668  0
H  H6  1  0.26156538  0.24440084  0.32665993  1  0.120591  0  0.100698  0.118242  0  1.060003  0
H  H7  1  0.46712392  0.77732632  0.30960723  1  0.079014  0  0.10149  0.120747  0  1.036588  0
H  H8  1  0.75520338  0.87444979  0.59957443  1  0.088229  0  0.106347  0.113548  0  0.993806  0
H  H9  1  0.64620572  0.11089025  0.59934937  1  0.095735  0  0.106385  0.113363  0  0.99699  0
H  H10  1  0.58663715  0.24719623  0.16218251  1  0.412951  0  0.287658  0.27628  0  0.999231  0
H  H11  1  0.71779290  0.12159284  0.07870834  1  0.434335  0  0.301864  0.286237  0  0.958778  0
H  H12  1  0.80278690  0.79931994  0.15944135  1  0.444109  0  0.292086  0.295791  0  1.002968  0
H  H13  1  0.87551341  0.93362909  0.14632003  1  0.438679  0  0.303534  0.291638  0  0.951688  0
C  C14  1  0.87720009  0.27131375  0.49779080  1  1.553029  0  0.272552  0.660559  0  4.044159  0
C  C15  1  0.62040739  0.49802820  0.73386150  1  1.61076  0  0.273197  0.643996  0  4.09041  0
C  C16  1  0.12897232  0.72454261  0.49260792  1  1.506279  0  0.270468  0.662157  0  4.050512  0
C  C17  1  0.37460555  0.49015724  0.28367263  1  1.617448  0  0.271317  0.635082  0  4.109176  0
C  C18  1  0.55711970  0.49918715  0.87491735  1  -0.013446  0  0.010858  -0.044433  0  3.905651  0
C  C19  1  0.43806526  0.48741269  0.14295227  1  0.021317  0  0.003366  -0.065655  0  3.938514  0
C  C20  1  0.70784596  0.47858633  0.94204942  1  0.230953  0  0.093605  0.064995  0  3.936455  0
C  C21  1  0.28740823  0.50748702  0.07577731  1  0.115549  0  0.093337  0.060798  0  3.943224  0
C  C22  1  0.65274677  0.47136983  0.07290086  1  0.017031  0  -0.069996  -0.135694  0  3.940303  0
C  C23  1  0.34268510  0.51508009  0.94494624  1  0.157156  0  -0.069132  -0.127297  0  3.923531  0
C  C24  1  0.95188082  0.13305064  0.48117548  1  -0.072315  0  -0.010834  -0.088432  0  3.922173  0
C  C25  1  0.16098559  0.07284767  0.40447536  1  0.02529  0  -0.006028  0.071083  0  3.968052  0
C  C26  1  0.80641910  0.06204957  0.54534243  1  -0.020223  0  -0.091438  -0.102841  0  4.019823  0
C  C27  1  0.30670124  0.14181369  0.32601066  1  0.016756  0  -0.113223  -0.257717  0  3.979105  0
C  C28  1  0.49958570  0.08409413  0.24445921  1  0.359688  0  0.089203  0.21071  0  4.089322  0
C  C29  1  0.07165775  0.86635001  0.47648985  1  0.037279  0  -0.018617  -0.09884  0  3.940358  0
C  C30  1  0.86641688  0.93001984  0.54431080  1  -0.042853  0  -0.089571  -0.100873  0  4.019913  0
C  C31  1  0.22044435  0.93645218  0.39945533  1  0.003978  0  -0.00621  0.067263  0  3.982288  0
C  C32  1  0.42056490  0.87933603  0.31577399  1  0.03077  0  -0.123991  -0.283368  0  3.993908  0
C  C33  1  0.56042673  0.94898852  0.24037639  1  0.349304  0  0.089831  0.217898  0  4.10096  0
N  N34  1  0.93298620  0.47423962  0.87392169  1  0.388781  0  0.05849  0.515208  0  4.225362  0
N  N35  1  0.06281065  0.50912961  0.14258305  1  0.421595  0  0.061892  0.518773  0  4.21416  0
N  N36  1  0.64335922  0.15082000  0.16622567  1  -1.20494  0  -0.599968  -0.593299  0  3.309616  0
N  N37  1  0.75358584  0.89602296  0.15508241  1  -1.223132  0  -0.601839  -0.611233  0  3.311319  0
O  O38  1  0.67354171  0.32424163  0.52425400  1  -1.275475  0  -0.240467  -0.609088  0  2.341071  0
O  O39  1  0.82066864  0.48044581  0.67979872  1  -1.245246  0  -0.226332  -0.594752  0  2.413201  0
O  O40  1  0.97743614  0.67185980  0.51489403  1  -1.264578  0  -0.242405  -0.608019  0  2.322616  0
O  O41  1  0.52322977  0.47289421  0.33479437  1  -1.228644  0  -0.2164  -0.544057  0  2.337586  0
O  O42  1  0.32622701  0.66387984  0.48518022  1  -1.281773  0  -0.237545  -0.610481  0  2.389134  0
O  O43  1  0.17344516  0.51386094  0.33684271  1  -1.248287  0  -0.225799  -0.584376  0  2.410462  0
O  O44  1  0.01653614  0.32852759  0.48938711  1  -1.266177  0  -0.231812  -0.589206  0  2.367515  0
O  O45  1  0.47220081  0.51105017  0.68353783  1  -1.229778  0  -0.219086  -0.556797  0  2.3357  0
O  O46  1  0.24523370  0.43810602  0.56633350  1  -1.426045  0  -0.449797  -0.986956  0  2.157493  0
O  O47  1  0.74177861  0.55787622  0.45244790  1  -1.434118  0  -0.450104  -0.981657  0  2.149194  0
O  O48  1  0.96776078  0.57960010  0.83441169  1  -0.417285  0  -0.086379  -0.268935  0  1.952575  0
O  O49  1  0.06986268  0.36920441  0.86799952  1  -0.445077  0  -0.112614  -0.30907  0  1.885173  0
O  O50  1  0.92111712  0.61174137  0.14098067  1  -0.462993  0  -0.100469  -0.304786  0  1.984185  0
O  O51  1  0.03184827  0.40341462  0.18610430  1  -0.435366  0  -0.079016  -0.265852  0  1.976665  0
