# generated using pymatgen
data_BH12PbC12IN8
_symmetry_space_group_name_H-M   'P 1'
_cell_length_a   8.63422719
_cell_length_b   10.02436207
_cell_length_c   10.92451069
_cell_angle_alpha   101.97425566
_cell_angle_beta   104.56574322
_cell_angle_gamma   103.59850274
_symmetry_Int_Tables_number   1
_chemical_formula_structural   BH12PbC12IN8
_chemical_formula_sum   'B2 H24 Pb2 C24 I2 N16'
_cell_volume   853.03271290
_cell_formula_units_Z   2
loop_
 _symmetry_equiv_pos_site_id
 _symmetry_equiv_pos_as_xyz
  1  'x, y, z'
loop_
 _atom_site_type_symbol
 _atom_site_label
 _atom_site_symmetry_multiplicity
 _atom_site_fract_x
 _atom_site_fract_y
 _atom_site_fract_z
 _atom_site_occupancy
 _atom_site_hle17_bader_spin_density
 _atom_site_hle17_ddec_charge
 _atom_site_hle17_ddec_spin_density
 _atom_site_hle17_ddec_sum_bond_order
 _atom_site_hle17_magmom
 _atom_site_hse06_10hf_bader_spin_density
 _atom_site_hse06_10hf_ddec_charge
 _atom_site_hse06_10hf_ddec_spin_density
 _atom_site_hse06_10hf_ddec_sum_bond_order
 _atom_site_hse06_10hf_magmom
 _atom_site_hse06_bader_spin_density
 _atom_site_hse06_ddec_charge
 _atom_site_hse06_ddec_spin_density
 _atom_site_hse06_ddec_sum_bond_order
 _atom_site_hse06_magmom
 _atom_site_pbe_bader_spin_density
 _atom_site_pbe_cm5_charge
 _atom_site_pbe_ddec_charge
 _atom_site_pbe_ddec_spin_density
 _atom_site_pbe_ddec_sum_bond_order
 _atom_site_pbe_magmom
B  B0  1  0.77086241  0.35282489  0.22901243  1  0  0.716129  0  3.002664  0  0  0.550667  0  3.309896  0  0  0.57441  0  3.306829  0  0  0.112026  0.534193  0  3.313347  0
B  B1  1  0.22913021  0.64716139  0.77102274  1  0  0.716693  0  3.00176  0  0  0.551259  0  3.308938  0  0  0.574871  0  3.306228  0  0  0.112005  0.534787  0  3.312382  0
H  H2  1  0.63380435  0.57621126  0.16699880  1  0  0.080608  0  0.955909  0  0  0.08752  0  1.025328  0  0  0.089676  0  1.023221  0  0  0.129333  0.085688  0  1.027259  0
H  H3  1  0.36618920  0.42384787  0.83300286  1  0  0.080555  0  0.955829  0  0  0.087524  0  1.02518  0  0  0.089681  0  1.023069  0  0  0.129294  0.085693  0  1.027107  0
H  H4  1  0.76191969  0.42243093  0.49917739  1  0  0.098109  0  0.988855  0  0  0.104982  0  1.058671  0  0  0.106781  0  1.059248  0  0  0.115955  0.103831  0  1.058063  0
H  H5  1  0.23810698  0.57757447  0.50078024  1  0  0.098269  0  0.988688  0  0  0.105146  0  1.058478  0  0  0.106947  0  1.059057  0  0  0.115918  0.103998  0  1.057863  0
H  H6  1  0.65144285  0.65832035  0.56516258  1  0  0.091792  0  0.979199  0  0  0.096158  0  1.050303  0  0  0.098569  0  1.049694  0  0  0.10563  0.094613  0  1.050518  0
H  H7  1  0.34858159  0.34166796  0.43487556  1  0  0.091538  0  0.979286  0  0  0.095923  0  1.050407  0  0  0.098325  0  1.049804  0  0  0.105572  0.094379  0  1.050626  0
H  H8  1  0.98549399  0.64824952  0.29407393  1  0  0.080867  0  0.960665  0  0  0.087219  0  1.032223  0  0  0.089592  0  1.029404  0  0  0.126829  0.08522  0  1.034713  0
H  H9  1  0.01453341  0.35173022  0.70597964  1  0  0.080775  0  0.960711  0  0  0.087118  0  1.03228  0  0  0.089486  0  1.029455  0  0  0.126782  0.08512  0  1.034769  0
H  H10  1  0.01890340  0.23089401  0.15780027  1  0  0.116508  0  0.955504  0  0  0.12287  0  1.020839  0  0  0.12649  0  1.0183  0  0  0.11401  0.120523  0  1.022316  0
H  H11  1  0.98107769  0.76910086  0.84217295  1  0  0.116496  0  0.955389  0  0  0.12292  0  1.020655  0  0  0.126544  0  1.018108  0  0  0.114004  0.120572  0  1.022136  0
H  H12  1  0.31023361  0.43329819  0.17571226  1  0  0.089492  0  0.983435  0  0  0.095892  0  1.052324  0  0  0.097997  0  1.052024  0  0  0.106977  0.094236  0  1.052889  0
H  H13  1  0.68974067  0.56665811  0.82423120  1  0  0.089505  0  0.983146  0  0  0.095872  0  1.052095  0  0  0.097992  0  1.051776  0  0  0.106898  0.094218  0  1.052654  0
H  H14  1  0.51959391  0.08592348  0.19523668  1  0  0.076298  0  0.989818  0  0  0.081958  0  1.063765  0  0  0.084687  0  1.060073  0  0  0.117858  0.079721  0  1.066613  0
H  H15  1  0.48039105  0.91405853  0.80476414  1  0  0.076262  0  0.989836  0  0  0.081959  0  1.063735  0  0  0.08469  0  1.060038  0  0  0.117891  0.079709  0  1.066597  0
H  H16  1  0.02110216  0.30690970  0.43592070  1  0  0.095267  0  1.007456  0  0  0.102571  0  1.075561  0  0  0.104754  0  1.075713  0  0  0.10988  0.101052  0  1.075371  0
H  H17  1  0.97887490  0.69313665  0.56409633  1  0  0.095397  0  1.007303  0  0  0.102618  0  1.075527  0  0  0.104803  0  1.075672  0  0  0.109803  0.101076  0  1.07536  0
H  H18  1  0.89763735  0.06845584  0.51536159  1  0  0.101002  0  0.985597  0  0  0.109339  0  1.048921  0  0  0.112246  0  1.047256  0  0  0.101114  0.106989  0  1.050565  0
H  H19  1  0.10242839  0.93156123  0.48464713  1  0  0.101135  0  0.985558  0  0  0.109423  0  1.048963  0  0  0.112333  0  1.047294  0  0  0.101037  0.107055  0  1.050618  0
H  H20  1  0.81504658  0.31475962  0.96968296  1  0  0.089882  0  0.962548  0  0  0.09467  0  1.034479  0  0  0.097295  0  1.031217  0  0  0.130712  0.093038  0  1.036234  0
H  H21  1  0.18491151  0.68525461  0.03027204  1  0  0.089994  0  0.962449  0  0  0.094813  0  1.034302  0  0  0.097435  0  1.031062  0  0  0.130758  0.093169  0  1.036078  0
H  H22  1  0.40542563  0.24299524  0.12040683  1  0  0.107763  0  0.963114  0  0  0.118292  0  1.02475  0  0  0.121389  0  1.022785  0  0  0.118355  0.115893  0  1.026548  0
H  H23  1  0.59457467  0.75696957  0.87959646  1  0  0.107893  0  0.962792  0  0  0.118423  0  1.024435  0  0  0.121519  0  1.02247  0  0  0.118436  0.116027  0  1.026229  0
H  H24  1  0.28605845  0.15905223  0.84779625  1  0  0.112144  0  0.947651  0  0  0.119785  0  1.010224  0  0  0.122849  0  1.00851  0  0  0.118038  0.117712  0  1.011232  0
H  H25  1  0.71394791  0.84093934  0.15221151  1  0  0.112114  0  0.947622  0  0  0.119769  0  1.010165  0  0  0.12283  0  1.008452  0  0  0.118081  0.117697  0  1.011171  0
Pb  Pb26  1  0.43898269  0.82712115  0.35622206  1  0  0.988253  0  1.70762  0  0  0.784195  0  2.118617  0  0  0.832489  0  2.09408  0  0  0.520644  0.749434  0  2.135647  0
Pb  Pb27  1  0.56101960  0.17284683  0.64369893  1  0  0.988421  0  1.70707  0  0  0.784384  0  2.117973  0  0  0.832642  0  2.09353  0  0  0.520669  0.749595  0  2.135018  0
C  C28  1  0.65326010  0.56833077  0.26697949  1  0  0.193432  0  3.689685  0  0  0.133231  0  3.960943  0  0  0.147079  0  3.973293  0  0  0.139298  0.124251  0  3.952307  0
C  C29  1  0.34673650  0.43163726  0.73300538  1  0  0.193357  0  3.689576  0  0  0.133172  0  3.960877  0  0  0.147023  0  3.973202  0  0  0.139182  0.124199  0  3.952237  0
C  C30  1  0.71855284  0.48931104  0.44074180  1  0  -0.02159  0  3.677958  0  0  -0.057609  0  3.93039  0  0  -0.055491  0  3.948462  0  0  0.002742  -0.058641  0  3.917983  0
C  C31  1  0.28142750  0.51073422  0.55929307  1  0  -0.022153  0  3.678773  0  0  -0.058153  0  3.931326  0  0  -0.056045  0  3.949411  0  0  0.002697  -0.059186  0  3.91893  0
C  C32  1  0.66304591  0.60593088  0.47197062  1  0  -0.013092  0  3.778427  0  0  -0.03926  0  4.033834  0  0  -0.0377  0  4.054189  0  0  -0.007121  -0.040781  0  4.020299  0
C  C33  1  0.33695170  0.39412288  0.52803539  1  0  -0.012608  0  3.778782  0  0  -0.038782  0  4.034202  0  0  -0.0372  0  4.054548  0  0  -0.007055  -0.040314  0  4.020679  0
C  C34  1  0.03514372  0.56304116  0.25935596  1  0  0.187636  0  3.70325  0  0  0.129385  0  3.9705  0  0  0.143536  0  3.983182  0  0  0.13655  0.119752  0  3.9618  0
C  C35  1  0.96485106  0.43694509  0.74062928  1  0  0.187842  0  3.703331  0  0  0.12963  0  3.970558  0  0  0.143798  0  3.983214  0  0  0.136702  0.119995  0  3.961859  0
C  C36  1  0.05414394  0.34693752  0.18716354  1  0  -0.023824  0  3.685513  0  0  -0.058482  0  3.940383  0  0  -0.056491  0  3.958263  0  0  0.004291  -0.059477  0  3.927455  0
C  C37  1  0.94582759  0.65305417  0.81279712  1  0  -0.023666  0  3.685418  0  0  -0.058343  0  3.940215  0  0  -0.056351  0  3.958101  0  0  0.004476  -0.059338  0  3.927286  0
C  C38  1  0.19877154  0.44827554  0.19752220  1  0  -0.011378  0  3.765546  0  0  -0.040203  0  4.025824  0  0  -0.039147  0  4.047052  0  0  -0.011984  -0.040544  0  4.011129  0
C  C39  1  0.80122218  0.55169786  0.80245672  1  0  -0.011544  0  3.764725  0  0  -0.040333  0  4.025071  0  0  -0.039293  0  4.046294  0  0  -0.011949  -0.040676  0  4.010382  0
C  C40  1  0.63950150  0.11278629  0.27090735  1  0  0.201763  0  3.697879  0  0  0.139861  0  3.960877  0  0  0.154753  0  3.973363  0  0  0.137857  0.130627  0  3.952043  0
C  C41  1  0.36050047  0.88720315  0.72909273  1  0  0.201791  0  3.697856  0  0  0.139795  0  3.960845  0  0  0.154687  0  3.973309  0  0  0.13779  0.13057  0  3.95203  0
C  C42  1  0.89896512  0.22697312  0.39910108  1  0  -0.022769  0  3.697475  0  0  -0.061973  0  3.95703  0  0  -0.059509  0  3.97526  0  0  -0.004856  -0.063569  0  3.94462  0
C  C43  1  0.10106005  0.77301411  0.60091869  1  0  -0.02291  0  3.697772  0  0  -0.062128  0  3.957276  0  0  -0.059668  0  3.975501  0  0  -0.004812  -0.063713  0  3.944893  0
C  C44  1  0.83781889  0.10774823  0.43644485  1  0  -0.025268  0  3.781664  0  0  -0.052086  0  4.035862  0  0  -0.051276  0  4.056981  0  0  -0.012756  -0.052649  0  4.021631  0
C  C45  1  0.16218599  0.89223907  0.56357553  1  0  -0.025588  0  3.782125  0  0  -0.052381  0  4.03628  0  0  -0.051573  0  4.057407  0  0  -0.012734  -0.052922  0  4.02203  0
C  C46  1  0.68763575  0.28533123  0.97325275  1  0  0.216332  0  3.663216  0  0  0.154002  0  3.923713  0  0  0.170443  0  3.934526  0  0  0.151803  0.143111  0  3.916112  0
C  C47  1  0.31237055  0.71471288  0.02679798  1  0  0.216233  0  3.662817  0  0  0.153899  0  3.923289  0  0  0.17034  0  3.934086  0  0  0.151581  0.142994  0  3.915707  0
C  C48  1  0.47258053  0.24764422  0.04903642  1  0  -0.034614  0  3.701483  0  0  -0.071112  0  3.95785  0  0  -0.069922  0  3.976838  0  0  0.000699  -0.071858  0  3.945203  0
C  C49  1  0.52740558  0.75234100  0.95096524  1  0  -0.034193  0  3.701407  0  0  -0.07071  0  3.957727  0  0  -0.069511  0  3.976705  0  0  0.000724  -0.071469  0  3.945086  0
C  C50  1  0.41426386  0.20602499  0.91367390  1  0  -0.008803  0  3.743302  0  0  -0.041462  0  4.00324  0  0  -0.039151  0  4.023402  0  0  -0.002294  -0.04285  0  3.98914  0
C  C51  1  0.58574990  0.79397083  0.08631049  1  0  -0.009056  0  3.743533  0  0  -0.041706  0  4.003478  0  0  -0.03939  0  4.023627  0  0  -0.002381  -0.043086  0  3.989377  0
I  I52  1  0.18527797  0.99461932  0.24638844  1  0  -0.624857  0  0.72858  0  0  -0.574601  0  0.976045  0  0  -0.593351  0  0.960031  0  0  -0.309638  -0.56038  0  0.986562  0
I  I53  1  0.81470178  0.00543129  0.75361804  1  0  -0.624735  0  0.728785  0  0  -0.574483  0  0.976233  0  0  -0.593222  0  0.960225  0  0  -0.309553  -0.560272  0  0.986755  0
N  N54  1  0.71214364  0.46589207  0.30972969  1  0  -0.329519  0  3.500188  0  0  -0.226803  0  3.730339  0  0  -0.245078  0  3.751662  0  0  -0.233105  -0.214254  0  3.715426  0
N  N55  1  0.28785529  0.53409526  0.69029777  1  0  -0.329352  0  3.500289  0  0  -0.226831  0  3.730574  0  0  -0.245083  0  3.751935  0  0  -0.233029  -0.214279  0  3.715661  0
N  N56  1  0.62308205  0.65487833  0.36250889  1  0  -0.379694  0  3.170654  0  0  -0.30116  0  3.429058  0  0  -0.320986  0  3.449014  0  0  -0.331251  -0.287746  0  3.414935  0
N  N57  1  0.37691023  0.34511114  0.63745817  1  0  -0.379755  0  3.170773  0  0  -0.301239  0  3.429213  0  0  -0.321056  0  3.449154  0  0  -0.331221  -0.287821  0  3.415091  0
N  N58  1  0.94984231  0.42090974  0.22712503  1  0  -0.328699  0  3.499046  0  0  -0.22658  0  3.729098  0  0  -0.24506  0  3.750438  0  0  -0.230997  -0.214511  0  3.714894  0
N  N59  1  0.05013758  0.57908513  0.77284796  1  0  -0.328779  0  3.499244  0  0  -0.226714  0  3.72927  0  0  -0.245186  0  3.750659  0  0  -0.230986  -0.214637  0  3.715064  0
N  N60  1  0.18597595  0.58333735  0.24312737  1  0  -0.399613  0  3.19807  0  0  -0.323862  0  3.459301  0  0  -0.34386  0  3.480584  0  0  -0.335312  -0.310132  0  3.44427  0
N  N61  1  0.81403612  0.41663706  0.75686451  1  0  -0.399598  0  3.197651  0  0  -0.323904  0  3.45891  0  0  -0.343883  0  3.480159  0  0  -0.335436  -0.31018  0  3.443902  0
N  N62  1  0.77200108  0.22935107  0.29295799  1  0  -0.321238  0  3.481564  0  0  -0.218906  0  3.712382  0  0  -0.236993  0  3.732023  0  0  -0.232794  -0.207584  0  3.699306  0
N  N63  1  0.22802536  0.77062650  0.70705195  1  0  -0.321311  0  3.481187  0  0  -0.218801  0  3.711777  0  0  -0.236832  0  3.731375  0  0  -0.232772  -0.207484  0  3.698703  0
N  N64  1  0.67468670  0.03721187  0.35526689  1  0  -0.415254  0  3.265394  0  0  -0.326801  0  3.51464  0  0  -0.349043  0  3.537999  0  0  -0.334206  -0.311148  0  3.497209  0
N  N65  1  0.32530806  0.96278725  0.64474827  1  0  -0.415127  0  3.265513  0  0  -0.326663  0  3.514722  0  0  -0.348916  0  3.53811  0  0  -0.334183  -0.310987  0  3.497229  0
N  N66  1  0.64694769  0.29756177  0.08635712  1  0  -0.323255  0  3.490125  0  0  -0.221718  0  3.721395  0  0  -0.240229  0  3.742337  0  0  -0.228584  -0.209084  0  3.706919  0
N  N67  1  0.35303713  0.70244598  0.91368520  1  0  -0.324055  0  3.490576  0  0  -0.222457  0  3.721646  0  0  -0.240963  0  3.742637  0  0  -0.228462  -0.209818  0  3.707229  0
N  N68  1  0.55086182  0.23106681  0.86771727  1  0  -0.360086  0  3.242889  0  0  -0.270233  0  3.496861  0  0  -0.292009  0  3.518284  0  0  -0.325834  -0.254911  0  3.481796  0
N  N69  1  0.44918994  0.76899426  0.13231267  1  0  -0.359559  0  3.242988  0  0  -0.269762  0  3.497103  0  0  -0.291514  0  3.518465  0  0  -0.325596  -0.254439  0  3.482032  0
