# generated using pymatgen
data_Zn4H2C24S4Br6O13
_symmetry_space_group_name_H-M   'P 1'
_cell_length_a   19.68483095
_cell_length_b   19.76646990
_cell_length_c   33.38290640
_cell_angle_alpha   78.93537391
_cell_angle_beta   79.17664290
_cell_angle_gamma   63.93959184
_symmetry_Int_Tables_number   1
_chemical_formula_structural   Zn4H2C24S4Br6O13
_chemical_formula_sum   'Zn16 H8 C96 S16 Br24 O52'
_cell_volume   11372.62933719
_cell_formula_units_Z   4
loop_
 _symmetry_equiv_pos_site_id
 _symmetry_equiv_pos_as_xyz
  1  'x, y, z'
loop_
 _atom_site_type_symbol
 _atom_site_label
 _atom_site_symmetry_multiplicity
 _atom_site_fract_x
 _atom_site_fract_y
 _atom_site_fract_z
 _atom_site_occupancy
 _atom_site_pbe_bader_charge
 _atom_site_pbe_bader_spin_density
 _atom_site_pbe_cm5_charge
 _atom_site_pbe_ddec_charge
 _atom_site_pbe_ddec_spin_density
 _atom_site_pbe_ddec_sum_bond_order
 _atom_site_pbe_magmom
Zn  Zn0  1  0.05567713  0.40028496  0.47794406  1  1.320186  0  0.674365  0.976607  0  2.317625  0
Zn  Zn1  1  0.98577002  0.48377928  0.56021726  1  1.315476  0  0.674598  0.96935  0  2.368392  0
Zn  Zn2  1  0.05805465  0.56153869  0.48177257  1  1.321722  0  0.674672  0.971445  0  2.373447  0
Zn  Zn3  1  0.90013671  0.55503944  0.48015612  1  1.320055  0  0.674715  0.971168  0  2.376942  0
Zn  Zn4  1  0.69351740  0.34961505  0.27217767  1  1.318551  0  0.674773  0.977152  0  2.316215  0
Zn  Zn5  1  0.69070720  0.18817612  0.26615502  1  1.317517  0  0.674569  0.973496  0  2.343224  0
Zn  Zn6  1  0.76943305  0.26650321  0.19006079  1  1.32101  0  0.674892  0.971971  0  2.373061  0
Zn  Zn7  1  0.84722177  0.19512332  0.27158668  1  1.313641  0  0.674528  0.965666  0  2.401479  0
Zn  Zn8  1  0.26494088  0.76545336  0.68984749  1  1.317427  0  0.674909  0.969603  0  2.369208  0
Zn  Zn9  1  0.34991491  0.69743936  0.77119979  1  1.324018  0  0.674662  0.973468  0  2.343692  0
Zn  Zn10  1  0.19173465  0.84947827  0.77086669  1  1.32291  0  0.67446  0.97586  0  2.348005  0
Zn  Zn11  1  0.19228841  0.68798376  0.76825815  1  1.321561  0  0.674514  0.971565  0  2.372088  0
Zn  Zn12  1  0.55856091  0.06254406  0.98386838  1  1.315746  0  0.674506  0.973661  0  2.343784  0
Zn  Zn13  1  0.40265358  0.05259764  0.97693954  1  1.317431  0  0.674868  0.969154  0  2.367595  0
Zn  Zn14  1  0.55864633  0.90055884  0.97929415  1  1.323149  0  0.674144  0.974735  0  2.349852  0
Zn  Zn15  1  0.48004351  0.98400220  0.05991961  1  1.321312  0  0.674818  0.972273  0  2.372263  0
H  H16  1  0.74970061  0.44843390  0.34896149  1  0.145864  0  0.112424  0.133078  0  0.997818  0
H  H17  1  0.99928311  0.30295621  0.40095002  1  0.14634  0  0.112194  0.132941  0  0.997774  0
H  H18  1  0.20101837  0.69965901  0.60236461  1  0.132443  0  0.111573  0.131479  0  1.001786  0
H  H19  1  0.04898911  0.55048307  0.64759218  1  0.135012  0  0.111709  0.131369  0  1.001894  0
H  H20  1  0.64711973  0.14857580  0.04955370  1  0.117708  0  0.112184  0.132824  0  0.999427  0
H  H21  1  0.60322713  0.10105225  0.20048635  1  0.1164  0  0.112166  0.13248  0  0.999978  0
H  H22  1  0.30463559  0.99815525  0.90119556  1  0.139252  0  0.111474  0.131423  0  1.001951  0
H  H23  1  0.44662989  0.75044859  0.84879018  1  0.132791  0  0.11204  0.132383  0  1.000294  0
C  C24  1  0.06183541  0.31672724  0.56181126  1  1.606962  0  0.216921  0.62396  0  4.20425  0
C  C25  1  0.06992894  0.57126684  0.56767671  1  1.583191  0  0.230704  0.617037  0  4.151933  0
C  C26  1  0.18335169  0.43982903  0.43840136  1  1.616539  0  0.216378  0.622759  0  4.203726  0
C  C27  1  0.93544306  0.68421469  0.43874204  1  1.548312  0  0.216023  0.620808  0  4.209918  0
C  C28  1  0.92939547  0.43181479  0.43132216  1  1.580113  0  0.230614  0.61741  0  4.15214  0
C  C29  1  0.81766557  0.56088229  0.56318531  1  1.575295  0  0.216089  0.620081  0  4.209394  0
C  C30  1  0.56619322  0.30931013  0.31120998  1  1.592518  0  0.216622  0.622252  0  4.20591  0
C  C31  1  0.68356092  0.18031351  0.17990577  1  1.564567  0  0.231111  0.619462  0  4.146735  0
C  C32  1  0.68976096  0.43328989  0.18841947  1  1.599276  0  0.217064  0.624309  0  4.203355  0
C  C33  1  0.93543536  0.18796452  0.18961720  1  1.571886  0  0.215716  0.619538  0  4.212434  0
C  C34  1  0.81921516  0.31896917  0.31912536  1  1.588109  0  0.230977  0.617423  0  4.150631  0
C  C35  1  0.81227744  0.06559187  0.31100078  1  1.571445  0  0.216762  0.622614  0  4.207886  0
C  C36  1  0.43271492  0.68960121  0.68762201  1  1.5915  0  0.216573  0.623246  0  4.203496  0
C  C37  1  0.31678684  0.82195266  0.81871078  1  1.582155  0  0.230966  0.61799  0  4.148477  0
C  C38  1  0.18791698  0.93277293  0.68757058  1  1.580357  0  0.216785  0.622802  0  4.20484  0
C  C39  1  0.06559188  0.80917113  0.81118900  1  1.588619  0  0.216757  0.622311  0  4.205379  0
C  C40  1  0.18018118  0.67874726  0.68225306  1  1.586206  0  0.230419  0.617159  0  4.151773  0
C  C41  1  0.31556071  0.56640210  0.81156249  1  1.581295  0  0.215932  0.620418  0  4.207858  0
C  C42  1  0.43684643  0.18382990  0.93850867  1  1.61902  0  0.216214  0.620842  0  4.209954  0
C  C43  1  0.43470522  0.92709488  0.93088803  1  1.581483  0  0.231057  0.617296  0  4.14924  0
C  C44  1  0.68420574  0.94188300  0.93926066  1  1.584458  0  0.216894  0.623644  0  4.204888  0
C  C45  1  0.56062185  0.81696339  0.06240824  1  1.59003  0  0.216719  0.622433  0  4.204411  0
C  C46  1  0.56657345  0.06951171  0.07014375  1  1.566102  0  0.231345  0.620112  0  4.144186  0
C  C47  1  0.31421380  0.06198959  0.05945674  1  1.587053  0  0.21552  0.620485  0  4.207532  0
C  C48  1  0.89814856  0.40612726  0.40230914  1  -0.038172  0  -0.011932  -0.05846  0  3.913203  0
C  C49  1  0.85067888  0.34517955  0.34775998  1  0.051595  0  -0.011546  -0.057952  0  3.913406  0
C  C50  1  0.82679111  0.44755413  0.38724472  1  -0.053897  0  -0.006275  0.100609  0  3.92042  0
C  C51  1  0.92218115  0.30381098  0.36270524  1  -0.118602  0  -0.006377  0.101535  0  3.917878  0
C  C52  1  0.80465576  0.41673165  0.36061944  1  0.024359  0  -0.083506  -0.135354  0  3.952425  0
C  C53  1  0.94426807  0.33465555  0.38934592  1  0.046161  0  -0.083938  -0.136158  0  3.953054  0
C  C54  1  0.09983084  0.60054287  0.59552857  1  0.035125  0  -0.011099  -0.057798  0  3.915714  0
C  C55  1  0.15013054  0.64962991  0.65441487  1  -0.012462  0  -0.011156  -0.057344  0  3.915351  0
C  C56  1  0.14339474  0.64324625  0.58273991  1  -0.08287  0  -0.007084  0.099708  0  3.925307  0
C  C57  1  0.10655243  0.60694284  0.66719669  1  -0.079615  0  -0.006838  0.100679  0  3.923779  0
C  C58  1  0.16742254  0.66671290  0.61203626  1  0.06016  0  -0.083566  -0.134318  0  3.950948  0
C  C59  1  0.08252631  0.58347386  0.63790760  1  0.013117  0  -0.083816  -0.13428  0  3.951629  0
C  C60  1  0.30522251  0.45383709  0.40061004  1  5e-06  0  -0.021909  0.06366  0  3.989835  0
C  C61  1  0.44465264  0.29493644  0.34948915  1  -0.0428  0  -0.022741  0.061476  0  3.994748  0
C  C62  1  0.25850025  0.41570361  0.41385346  1  -0.149917  0  -0.028508  -0.170923  0  3.933135  0
C  C63  1  0.49134335  0.33305910  0.33613381  1  -0.114317  0  -0.028121  -0.169534  0  3.932296  0
C  C64  1  0.37689904  0.33885734  0.37300769  1  -0.074818  0  -0.02847  -0.059307  0  4.095591  0
C  C65  1  0.37310117  0.40986781  0.37716624  1  -0.139284  0  -0.028841  -0.059685  0  4.094472  0
C  C66  1  0.72552700  0.57562042  0.63092622  1  0.02425  0  -0.021954  0.063226  0  3.995892  0
C  C67  1  0.52493931  0.67372227  0.61989497  1  0.038452  0  -0.021961  0.063652  0  3.991368  0
C  C68  1  0.74339897  0.58482384  0.58849207  1  -0.169037  0  -0.028992  -0.169418  0  3.936706  0
C  C69  1  0.50706526  0.66484171  0.66235498  1  -0.126549  0  -0.028265  -0.169685  0  3.934842  0
C  C70  1  0.60454719  0.64121208  0.60840018  1  -0.159516  0  -0.028002  -0.059534  0  4.095989  0
C  C71  1  0.64592325  0.60800495  0.64240801  1  -0.116861  0  -0.028408  -0.059245  0  4.09579  0
C  C72  1  0.07678813  0.22463063  0.62973397  1  0.062336  0  -0.021977  0.063878  0  3.990662  0
C  C73  1  0.17402207  0.02462251  0.61960298  1  -0.023024  0  -0.021687  0.063997  0  3.991362  0
C  C74  1  0.08606659  0.24244711  0.58724000  1  -0.132375  0  -0.028224  -0.170869  0  3.932916  0
C  C75  1  0.16446123  0.00692597  0.66209013  1  -0.115955  0  -0.028642  -0.170644  0  3.9355  0
C  C76  1  0.14208116  0.10396407  0.60774792  1  -0.112713  0  -0.028918  -0.060062  0  4.094315  0
C  C77  1  0.10883788  0.14528541  0.64153899  1  -0.172956  0  -0.028475  -0.060523  0  4.097909  0
C  C78  1  0.84143147  0.80189181  0.39693915  1  -0.003776  0  -0.022174  0.063401  0  3.993525  0
C  C79  1  0.90604540  0.94809897  0.35295353  1  -0.122867  0  -0.021334  0.065369  0  3.989509  0
C  C80  1  0.90955724  0.75871695  0.41373907  1  -0.107931  0  -0.02826  -0.170029  0  3.937994  0
C  C81  1  0.83793187  0.99115463  0.33608928  1  -0.053137  0  -0.028541  -0.170759  0  3.939505  0
C  C82  1  0.90747276  0.87899457  0.37508921  1  -0.072864  0  -0.028268  -0.06035  0  4.096464  0
C  C83  1  0.84018654  0.87084773  0.37473769  1  -0.109961  0  -0.028694  -0.059411  0  4.096391  0
C  C84  1  0.65525801  0.15325464  0.15011764  1  0.010632  0  -0.011437  -0.057277  0  3.911234  0
C  C85  1  0.59509908  0.09636131  0.09993192  1  0.006817  0  -0.011356  -0.05679  0  3.911498  0
C  C86  1  0.66761525  0.16669851  0.10686019  1  -0.065214  0  -0.005654  0.101473  0  3.922241  0
C  C87  1  0.58278683  0.08292818  0.14317522  1  -0.070335  0  -0.005723  0.10171  0  3.92294  0
C  C88  1  0.63771672  0.13836963  0.08290037  1  0.047852  0  -0.084954  -0.137797  0  3.952478  0
C  C89  1  0.61268196  0.11121306  0.16714594  1  0.048022  0  -0.084923  -0.137011  0  3.951717  0
C  C90  1  0.67352766  0.52509950  0.12040739  1  -0.00298  0  -0.021812  0.064026  0  3.99023  0
C  C91  1  0.57585870  0.72514913  0.13039345  1  -0.018417  0  -0.022318  0.062934  0  3.992387  0
C  C92  1  0.66472414  0.50748972  0.16293322  1  -0.065477  0  -0.028818  -0.171397  0  3.934205  0
C  C93  1  0.58494037  0.74283302  0.08789913  1  -0.119564  0  -0.028362  -0.169871  0  3.934092  0
C  C94  1  0.60818369  0.64583350  0.14226903  1  -0.109547  0  -0.028275  -0.058824  0  4.095146  0
C  C95  1  0.64121011  0.60442353  0.10851750  1  -0.176651  0  -0.028658  -0.060996  0  4.097133  0
C  C96  1  0.08289063  0.12333996  0.17751193  1  -0.060123  0  -0.021524  0.06456  0  3.989216  0
C  C97  1  0.16666185  0.12741469  0.07167944  1  -0.000136  0  -0.021845  0.063831  0  3.993577  0
C  C98  1  0.01039347  0.16277900  0.16513917  1  -0.071481  0  -0.028315  -0.168547  0  3.93812  0
C  C99  1  0.23919568  0.08795822  0.08396686  1  -0.132776  0  -0.028028  -0.169685  0  3.93678  0
C  C100  1  0.10967765  0.14043939  0.10575684  1  -0.132755  0  -0.028746  -0.059129  0  4.095488  0
C  C101  1  0.13994173  0.11052186  0.14345850  1  -0.169094  0  -0.028365  -0.060666  0  4.096491  0
C  C102  1  0.34378303  0.85201841  0.84769165  1  -0.012274  0  -0.01207  -0.057804  0  3.910659  0
C  C103  1  0.40749958  0.89657955  0.90227311  1  -0.025345  0  -0.012054  -0.057041  0  3.912255  0
C  C104  1  0.30339540  0.92284630  0.86286770  1  -0.059533  0  -0.0066  0.100626  0  3.923152  0
C  C105  1  0.44776913  0.82565008  0.88723426  1  -0.09563  0  -0.006831  0.099124  0  3.92843  0
C  C106  1  0.33555771  0.94355069  0.88949624  1  0.067257  0  -0.084483  -0.136356  0  3.951733  0
C  C107  1  0.41565758  0.80499204  0.86055199  1  0.064032  0  -0.083985  -0.136094  0  3.95357  0
C  C108  1  0.40952805  0.44762606  0.85305863  1  -0.093509  0  -0.022593  0.061614  0  3.99551  0
C  C109  1  0.34322388  0.30248008  0.89687845  1  -0.052603  0  -0.022222  0.063013  0  3.991391  0
C  C110  1  0.34147092  0.49151412  0.83630952  1  -0.053712  0  -0.028678  -0.169721  0  3.934176  0
C  C111  1  0.41128087  0.25863076  0.91366765  1  -0.099991  0  -0.028305  -0.168546  0  3.934304  0
C  C112  1  0.34255029  0.37133035  0.87473540  1  -0.106867  0  -0.02864  -0.060019  0  4.095785  0
C  C113  1  0.41025719  0.37868625  0.87510514  1  -0.11743  0  -0.028029  -0.058141  0  4.09339  0
C  C114  1  0.94372630  0.79580559  0.84956294  1  -0.025564  0  -0.021961  0.063603  0  3.992971  0
C  C115  1  0.80562902  0.95570208  0.90035056  1  0.01336  0  -0.022261  0.062819  0  3.995843  0
C  C116  1  0.99073912  0.83348849  0.83593940  1  -0.115466  0  -0.028575  -0.170313  0  3.936356  0
C  C117  1  0.75867347  0.91798968  0.91406220  1  -0.123236  0  -0.028764  -0.170896  0  3.935085  0
C  C118  1  0.87307013  0.91122214  0.87683445  1  -0.121935  0  -0.028409  -0.059463  0  4.09633  0
C  C119  1  0.87622442  0.84028977  0.87303365  1  -0.131128  0  -0.028822  -0.060168  0  4.095401  0
S  S120  1  0.29783821  0.32586921  0.39768788  1  0.311481  0  0.093265  0.155579  0  2.776254  0
S  S121  1  0.45214913  0.42281835  0.35241489  1  0.299816  0  0.093651  0.156033  0  2.776651  0
S  S122  1  0.66272550  0.63292118  0.56258386  1  0.302788  0  0.094473  0.15713  0  2.782164  0
S  S123  1  0.58776396  0.61661314  0.68823863  1  0.303756  0  0.093536  0.155681  0  2.779869  0
S  S124  1  0.13408830  0.16194263  0.56173267  1  0.305341  0  0.09376  0.156498  0  2.775808  0
S  S125  1  0.11650160  0.08744497  0.68757386  1  0.305094  0  0.094682  0.158029  0  2.780553  0
S  S126  1  0.97216758  0.80250460  0.40233409  1  0.304769  0  0.094666  0.157654  0  2.781985  0
S  S127  1  0.77554740  0.94717319  0.34737364  1  0.312153  0  0.093743  0.156458  0  2.780264  0
S  S128  1  0.61658762  0.58807189  0.18835489  1  0.302902  0  0.093874  0.156543  0  2.776838  0
S  S129  1  0.63312308  0.66225101  0.06244427  1  0.303968  0  0.094445  0.157289  0  2.77796  0
S  S130  1  0.01194813  0.18418430  0.11186758  1  0.356399  0  0.094617  0.15653  0  2.783152  0
S  S131  1  0.23769185  0.06685511  0.13727793  1  0.341991  0  0.094211  0.157286  0  2.782379  0
S  S132  1  0.27827085  0.44836831  0.84753807  1  0.306741  0  0.09414  0.156671  0  2.783257  0
S  S133  1  0.47439603  0.30180962  0.90246684  1  0.304941  0  0.093274  0.154803  0  2.780923  0
S  S134  1  0.95221062  0.92355293  0.85175021  1  0.299298  0  0.093917  0.156393  0  2.780323  0
S  S135  1  0.79706843  0.82801199  0.89814459  1  0.309778  0  0.094502  0.157218  0  2.78114  0
Br  Br136  1  0.75501697  0.54540248  0.40021517  1  -0.024214  0  0.02304  -0.055289  0  1.398739  0
Br  Br137  1  0.99432781  0.20621209  0.34953339  1  -0.024064  0  0.021613  -0.057495  0  1.412552  0
Br  Br138  1  0.17416915  0.67240171  0.52719229  1  -0.020253  0  0.022917  -0.05523  0  1.396536  0
Br  Br139  1  0.07617397  0.57732509  0.72274828  1  -0.01967  0  0.022709  -0.055798  0  1.395526  0
Br  Br140  1  0.72309968  0.22216074  0.07696345  1  -0.020966  0  0.022612  -0.055655  0  1.396134  0
Br  Br141  1  0.52703441  0.02779007  0.17314600  1  -0.022334  0  0.022502  -0.05605  0  1.396276  0
Br  Br142  1  0.20564150  0.99584299  0.84970584  1  -0.025846  0  0.023846  -0.054003  0  1.380166  0
Br  Br143  1  0.54552621  0.75280303  0.90043146  1  -0.02236  0  0.024681  -0.052666  0  1.379872  0
Br  Br144  1  0.28621910  0.55107875  0.41088810  1  0.013794  0  0.04823  -0.006501  0  1.409056  0
Br  Br145  1  0.46359603  0.19764385  0.33932864  1  0.011958  0  0.0489  -0.005044  0  1.390911  0
Br  Br146  1  0.79402351  0.52719253  0.67044101  1  0.009869  0  0.047656  -0.00719  0  1.399651  0
Br  Br147  1  0.45663271  0.72207643  0.58025685  1  0.009578  0  0.047452  -0.007323  0  1.398781  0
Br  Br148  1  0.02862881  0.29265665  0.66912739  1  0.007225  0  0.047579  -0.007149  0  1.401254  0
Br  Br149  1  0.22210608  0.95632644  0.58035723  1  0.010514  0  0.047491  -0.007356  0  1.400899  0
Br  Br150  1  0.75863762  0.77673575  0.40105206  1  0.010928  0  0.048929  -0.005833  0  1.407268  0
Br  Br151  1  0.98900521  0.97307015  0.34877703  1  0.01686  0  0.04721  -0.008362  0  1.416989  0
Br  Br152  1  0.72071211  0.45692366  0.08105672  1  0.01017  0  0.048294  -0.006289  0  1.407647  0
Br  Br153  1  0.52843647  0.79343275  0.16966819  1  0.011033  0  0.048033  -0.00685  0  1.40707  0
Br  Br154  1  0.10784147  0.08923269  0.23154869  1  0.016587  0  0.047542  -0.007746  0  1.415619  0
Br  Br155  1  0.14142981  0.16147359  0.01767937  1  0.013935  0  0.047569  -0.007373  0  1.399261  0
Br  Br156  1  0.49292229  0.47187373  0.84885011  1  0.013738  0  0.048912  -0.005102  0  1.388415  0
Br  Br157  1  0.25935924  0.27877895  0.90143679  1  0.012365  0  0.047062  -0.007727  0  1.39986  0
Br  Br158  1  0.96205698  0.69865501  0.83947781  1  0.010648  0  0.0479  -0.006753  0  1.405465  0
Br  Br159  1  0.78721765  0.05304180  0.91013049  1  0.014241  0  0.048708  -0.005213  0  1.389079  0
O  O160  1  0.00075263  0.49871059  0.49983332  1  -1.230032  0  -0.570086  -1.030834  0  2.516872  0
O  O161  1  0.07768474  0.31516501  0.52284478  1  -1.171915  0  -0.319365  -0.546151  0  2.31551  0
O  O162  1  0.03446797  0.53067072  0.58526824  1  -1.16306  0  -0.311664  -0.537156  0  2.334437  0
O  O163  1  0.15417205  0.50608235  0.44933432  1  -1.169453  0  -0.313958  -0.537831  0  2.387655  0
O  O164  1  0.02762780  0.37537107  0.58052801  1  -1.178768  0  -0.314032  -0.538269  0  2.384965  0
O  O165  1  0.15409542  0.39146807  0.44639468  1  -1.168988  0  -0.318888  -0.545392  0  2.315116  0
O  O166  1  0.08175766  0.58889375  0.52922221  1  -1.176057  0  -0.310083  -0.540268  0  2.431215  0
O  O167  1  0.00320544  0.65758291  0.44852251  1  -1.165636  0  -0.318014  -0.540084  0  2.331916  0
O  O168  1  0.88729387  0.49560954  0.44399009  1  -1.165417  0  -0.310667  -0.540749  0  2.443374  0
O  O169  1  0.88924974  0.65292087  0.44851367  1  -1.156483  0  -0.313854  -0.538587  0  2.382853  0
O  O170  1  0.99596327  0.38707450  0.44098979  1  -1.172293  0  -0.311304  -0.538732  0  2.317348  0
O  O171  1  0.87720050  0.52662641  0.58156515  1  -1.16514  0  -0.313928  -0.539422  0  2.378443  0
O  O172  1  0.81510484  0.57729084  0.52426557  1  -1.137299  0  -0.317537  -0.539553  0  2.333155  0
O  O173  1  0.74826097  0.25117445  0.25027372  1  -1.229157  0  -0.569928  -1.030524  0  2.516098  0
O  O174  1  0.59546569  0.35765885  0.30375306  1  -1.168352  0  -0.318634  -0.54395  0  2.317338  0
O  O175  1  0.66561337  0.16317219  0.21807424  1  -1.168192  0  -0.31201  -0.539765  0  2.324106  0
O  O176  1  0.72657538  0.37473351  0.16978947  1  -1.17402  0  -0.314605  -0.538598  0  2.386971  0
O  O177  1  0.59496764  0.24375345  0.29941463  1  -1.172128  0  -0.314991  -0.540922  0  2.380064  0
O  O178  1  0.67209523  0.43476974  0.22732979  1  -1.172618  0  -0.319229  -0.546265  0  2.315995  0
O  O179  1  0.72284468  0.21778610  0.16504806  1  -1.157568  0  -0.310333  -0.541192  0  2.435408  0
O  O180  1  0.87811926  0.22468008  0.16919557  1  -1.173038  0  -0.317877  -0.54168  0  2.330329  0
O  O181  1  0.86066658  0.25415115  0.30753241  1  -1.175063  0  -0.310481  -0.538051  0  2.446585  0
O  O182  1  0.93360167  0.17143666  0.22846563  1  -1.14427  0  -0.312801  -0.534372  0  2.3875  0
O  O183  1  0.75321065  0.36397261  0.30878781  1  -1.165841  0  -0.311687  -0.539927  0  2.314218  0
O  O184  1  0.74594074  0.09134969  0.29940081  1  -1.170433  0  -0.3195  -0.545808  0  2.320423  0
O  O185  1  0.85773092  0.09773373  0.30303722  1  -1.146765  0  -0.31316  -0.534669  0  2.389518  0
O  O186  1  0.25009102  0.75032921  0.75023690  1  -1.232294  0  -0.570461  -1.031082  0  2.517204  0
O  O187  1  0.37351057  0.72294037  0.66895266  1  -1.16434  0  -0.313999  -0.538916  0  2.379336  0
O  O188  1  0.36311062  0.75744995  0.80737522  1  -1.17386  0  -0.311492  -0.538463  0  2.328122  0
O  O189  1  0.17033228  0.93472439  0.72644967  1  -1.156213  0  -0.31862  -0.543393  0  2.323763  0
O  O190  1  0.43482827  0.67490921  0.72660568  1  -1.163306  0  -0.318697  -0.544368  0  2.323197  0
O  O191  1  0.22304209  0.87384209  0.66913070  1  -1.165939  0  -0.314229  -0.539258  0  2.38305  0
O  O192  1  0.25078350  0.86231245  0.80784794  1  -1.168938  0  -0.310881  -0.542878  0  2.430466  0
O  O193  1  0.09375597  0.85841498  0.80228095  1  -1.163994  0  -0.318499  -0.543191  0  2.326066  0
O  O194  1  0.16720864  0.66218686  0.72072069  1  -1.175951  0  -0.309792  -0.540393  0  2.431907  0
O  O195  1  0.09574277  0.74234207  0.80096110  1  -1.163295  0  -0.313774  -0.538117  0  2.381728  0
O  O196  1  0.21684921  0.71818151  0.66464633  1  -1.165822  0  -0.311554  -0.53728  0  2.333488  0
O  O197  1  0.36066006  0.59900316  0.80286494  1  -1.159121  0  -0.3136  -0.540222  0  2.373342  0
O  O198  1  0.24843650  0.59199787  0.80101441  1  -1.168537  0  -0.318006  -0.53997  0  2.334564  0
O  O199  1  0.50061074  0.99992812  0.99970860  1  -1.228413  0  -0.570227  -1.030888  0  2.516044  0
O  O200  1  0.50278588  0.15873573  0.95051556  1  -1.169287  0  -0.318629  -0.543696  0  2.325959  0
O  O201  1  0.38944893  0.99300926  0.94075635  1  -1.161722  0  -0.311872  -0.536995  0  2.335496  0
O  O202  1  0.65579410  0.89282490  0.94747027  1  -1.153062  0  -0.318826  -0.542949  0  2.329396  0
O  O203  1  0.39216329  0.15082584  0.94580433  1  -1.167472  0  -0.313549  -0.537239  0  2.381375  0
O  O204  1  0.65483183  0.00785067  0.95058796  1  -1.171916  0  -0.314216  -0.541634  0  2.376643  0
O  O205  1  0.49960083  0.88589344  0.94296304  1  -1.174416  0  -0.309938  -0.542125  0  2.42786  0
O  O206  1  0.58065950  0.81520331  0.02365292  1  -1.160141  0  -0.318552  -0.542832  0  2.32306  0
O  O207  1  0.52771755  0.03160236  0.08498598  1  -1.156701  0  -0.310256  -0.541698  0  2.434421  0
O  O208  1  0.52210822  0.87574754  0.08068936  1  -1.166908  0  -0.313622  -0.538375  0  2.383558  0
O  O209  1  0.58392970  0.08726218  0.03197336  1  -1.16856  0  -0.31194  -0.540017  0  2.322652  0
O  O210  1  0.31631599  0.07588438  0.02050538  1  -1.18057  0  -0.313415  -0.538261  0  2.378846  0
O  O211  1  0.37129643  0.02702392  0.08016918  1  -1.158678  0  -0.317909  -0.540675  0  2.33172  0
