# generated using pymatgen
data_CdH12C19(SN4)2
_symmetry_space_group_name_H-M   'P 1'
_cell_length_a   8.52434358
_cell_length_b   8.94825552
_cell_length_c   13.20691532
_cell_angle_alpha   88.06273988
_cell_angle_beta   81.88178866
_cell_angle_gamma   80.76078501
_symmetry_Int_Tables_number   1
_chemical_formula_structural   CdH12C19(SN4)2
_chemical_formula_sum   'Cd2 H24 C38 S4 N16'
_cell_volume   984.29956950
_cell_formula_units_Z   2
loop_
 _symmetry_equiv_pos_site_id
 _symmetry_equiv_pos_as_xyz
  1  'x, y, z'
loop_
 _atom_site_type_symbol
 _atom_site_label
 _atom_site_symmetry_multiplicity
 _atom_site_fract_x
 _atom_site_fract_y
 _atom_site_fract_z
 _atom_site_occupancy
 _atom_site_hle17_bader_spin_density
 _atom_site_hle17_ddec_charge
 _atom_site_hle17_ddec_spin_density
 _atom_site_hle17_ddec_sum_bond_order
 _atom_site_hle17_magmom
 _atom_site_hse06_10hf_bader_spin_density
 _atom_site_hse06_10hf_ddec_charge
 _atom_site_hse06_10hf_ddec_spin_density
 _atom_site_hse06_10hf_ddec_sum_bond_order
 _atom_site_hse06_10hf_magmom
 _atom_site_hse06_bader_spin_density
 _atom_site_hse06_ddec_charge
 _atom_site_hse06_ddec_spin_density
 _atom_site_hse06_ddec_sum_bond_order
 _atom_site_hse06_magmom
 _atom_site_pbe_bader_spin_density
 _atom_site_pbe_cm5_charge
 _atom_site_pbe_ddec_charge
 _atom_site_pbe_ddec_spin_density
 _atom_site_pbe_ddec_sum_bond_order
 _atom_site_pbe_magmom
Cd  Cd0  1  0.75650916  0.26644906  0.52623256  1  0  0.949066  0  2.007638  0  0  0.768264  0  2.472939  0  0  0.813223  0  2.435768  0  0  0.724556  0.737003  0  2.497876  0
Cd  Cd1  1  0.24349178  0.73355143  0.47376700  1  0  0.949046  0  2.007586  0  0  0.768241  0  2.472889  0  0  0.813209  0  2.435703  0  0  0.724508  0.736979  0  2.497826  0
H  H2  1  0.37405960  0.53181500  0.27028052  1  0  0.076367  0  0.965904  0  0  0.079344  0  1.04241  0  0  0.081552  0  1.041115  0  0  0.109438  0.077765  0  1.043326  0
H  H3  1  0.62594352  0.46817983  0.72972046  1  0  0.076396  0  0.9659  0  0  0.079373  0  1.042394  0  0  0.081583  0  1.041094  0  0  0.10945  0.077791  0  1.043309  0
H  H4  1  0.91973037  0.76231732  0.36645389  1  0  0.076293  0  0.954034  0  0  0.08255  0  1.021796  0  0  0.084536  0  1.020345  0  0  0.109138  0.081061  0  1.022871  0
H  H5  1  0.08027154  0.23768430  0.63354707  1  0  0.076281  0  0.95405  0  0  0.082541  0  1.021802  0  0  0.084528  0  1.02035  0  0  0.109144  0.081052  0  1.022878  0
H  H6  1  0.80966356  0.67587712  0.21622114  1  0  0.113861  0  0.961884  0  0  0.117869  0  1.03086  0  0  0.121533  0  1.029288  0  0  0.104893  0.115245  0  1.032115  0
H  H7  1  0.19033636  0.32412901  0.78377991  1  0  0.113889  0  0.961874  0  0  0.117909  0  1.030815  0  0  0.121574  0  1.029243  0  0  0.104904  0.115285  0  1.032066  0
H  H8  1  0.99400809  0.50843150  0.08783750  1  0  0.098703  0  0.962388  0  0  0.102951  0  1.036256  0  0  0.106884  0  1.032121  0  0  0.106582  0.100116  0  1.039157  0
H  H9  1  0.00599342  0.49157240  0.91216194  1  0  0.09868  0  0.962373  0  0  0.102924  0  1.036245  0  0  0.106858  0  1.03211  0  0  0.106564  0.100087  0  1.039146  0
H  H10  1  0.64208274  0.18357086  0.80978280  1  0  0.110625  0  0.967104  0  0  0.117812  0  1.035247  0  0  0.120969  0  1.033967  0  0  0.103265  0.115518  0  1.036322  0
H  H11  1  0.35791624  0.81642736  0.19021470  1  0  0.11065  0  0.967096  0  0  0.117846  0  1.035223  0  0  0.121007  0  1.033933  0  0  0.103265  0.115553  0  1.036303  0
H  H12  1  0.87641851  0.97803558  0.76425338  1  0  0.095795  0  0.962172  0  0  0.107826  0  1.020211  0  0  0.109687  0  1.019497  0  0  0.104157  0.106469  0  1.020754  0
H  H13  1  0.12357947  0.02196147  0.23574801  1  0  0.095817  0  0.962104  0  0  0.107838  0  1.020155  0  0  0.1097  0  1.01944  0  0  0.104163  0.106482  0  1.0207  0
H  H14  1  0.98412104  0.81457636  0.90649055  1  0  0.101536  0  0.942139  0  0  0.114981  0  0.996784  0  0  0.11744  0  0.996964  0  0  0.1049  0.113224  0  0.99679  0
H  H15  1  0.01587675  0.18542181  0.09351084  1  0  0.101611  0  0.942099  0  0  0.115031  0  0.996769  0  0  0.11749  0  0.996948  0  0  0.104935  0.113276  0  0.996774  0
H  H16  1  0.85549553  0.86861215  0.08641376  1  0  0.068743  0  0.944272  0  0  0.078079  0  1.006781  0  0  0.080066  0  1.005757  0  0  0.108563  0.076663  0  1.007551  0
H  H17  1  0.14450283  0.13138943  0.91358828  1  0  0.068812  0  0.944257  0  0  0.078137  0  1.00678  0  0  0.080125  0  1.005752  0  0  0.108559  0.076718  0  1.007548  0
H  H18  1  0.34557472  0.14473049  0.26588533  1  0  0.116922  0  0.97384  0  0  0.124739  0  1.039728  0  0  0.127273  0  1.039811  0  0  0.106768  0.122891  0  1.039872  0
H  H19  1  0.65442307  0.85526770  0.73411454  1  0  0.116902  0  0.973817  0  0  0.124707  0  1.039701  0  0  0.127242  0  1.039781  0  0  0.106763  0.122859  0  1.039843  0
H  H20  1  0.48182550  0.10942348  0.42249756  1  0  0.07398  0  0.955496  0  0  0.07828  0  1.027732  0  0  0.080037  0  1.026666  0  0  0.108294  0.076919  0  1.028636  0
H  H21  1  0.51817978  0.89057250  0.57750320  1  0  0.073917  0  0.955515  0  0  0.07824  0  1.027727  0  0  0.079996  0  1.026664  0  0  0.108269  0.076883  0  1.028629  0
H  H22  1  0.83745887  0.35120464  0.29429013  1  0  0.060841  0  0.997179  0  0  0.064989  0  1.070408  0  0  0.066656  0  1.07043  0  0  0.099422  0.063739  0  1.070474  0
H  H23  1  0.16254148  0.64879244  0.70570954  1  0  0.060863  0  0.997116  0  0  0.064958  0  1.070402  0  0  0.066625  0  1.070424  0  0  0.099406  0.063708  0  1.070467  0
H  H24  1  0.71258517  0.40143812  0.13229035  1  0  0.127079  0  0.978099  0  0  0.129387  0  1.050241  0  0  0.134014  0  1.047173  0  0  0.109803  0.126013  0  1.052651  0
H  H25  1  0.28740965  0.59856343  0.86771048  1  0  0.12703  0  0.97811  0  0  0.12933  0  1.05028  0  0  0.133961  0  1.047202  0  0  0.109781  0.125955  0  1.052689  0
C  C26  1  0.25002675  0.55783732  0.25526362  1  0  0.10205  0  3.685709  0  0  0.060889  0  3.943927  0  0  0.068649  0  3.96061  0  0  0.050648  0.056026  0  3.932497  0
C  C27  1  0.74997321  0.44216203  0.74473604  1  0  0.102008  0  3.685703  0  0  0.060876  0  3.943923  0  0  0.068636  0  3.960606  0  0  0.050629  0.056014  0  3.932488  0
C  C28  1  0.99637613  0.68981871  0.30849460  1  0  0.141116  0  3.687052  0  0  0.108776  0  3.936534  0  0  0.116594  0  3.954718  0  0  0.052528  0.103847  0  3.924039  0
C  C29  1  0.00362579  0.31018293  0.69150409  1  0  0.14124  0  3.686949  0  0  0.108898  0  3.936435  0  0  0.116718  0  3.954616  0  0  0.052583  0.103967  0  3.923938  0
C  C30  1  0.93581738  0.64145355  0.22469209  1  0  -0.117269  0  3.725441  0  0  -0.124476  0  3.972515  0  0  -0.131983  0  3.993446  0  0  -0.082737  -0.11975  0  3.958468  0
C  C31  1  0.06418295  0.35855034  0.77530745  1  0  -0.117368  0  3.725468  0  0  -0.124575  0  3.972552  0  0  -0.132084  0  3.993484  0  0  -0.082767  -0.11985  0  3.9585  0
C  C32  1  0.03847816  0.54757869  0.15406827  1  0  -0.027867  0  3.674386  0  0  -0.055171  0  3.920489  0  0  -0.050984  0  3.936551  0  0  -0.060475  -0.057432  0  3.9094  0
C  C33  1  0.96152238  0.45242408  0.84592977  1  0  -0.027793  0  3.674365  0  0  -0.05507  0  3.920489  0  0  -0.05088  0  3.93655  0  0  -0.060456  -0.057336  0  3.909408  0
C  C34  1  0.19993095  0.50363103  0.16857392  1  0  -0.048034  0  3.784955  0  0  -0.027467  0  4.025415  0  0  -0.034522  0  4.049  0  0  -0.003357  -0.023498  0  4.010127  0
C  C35  1  0.80006762  0.49636944  0.83142585  1  0  -0.048031  0  3.785008  0  0  -0.027524  0  4.025547  0  0  -0.034583  0  4.04913  0  0  -0.003349  -0.023553  0  4.010241  0
C  C36  1  0.30660772  0.41270892  0.08922119  1  0  0.263169  0  3.735113  0  0  0.227809  0  4.009279  0  0  0.240912  0  4.025044  0  0  0.223321  0.219371  0  3.998335  0
C  C37  1  0.69339065  0.58729268  0.91077857  1  0  0.263172  0  3.735218  0  0  0.227819  0  4.009407  0  0  0.240929  0  4.02516  0  0  0.223331  0.219384  0  3.998458  0
C  C38  1  0.49809011  0.25611332  0.00061423  1  0  0.239161  0  3.705858  0  0  0.204716  0  3.980514  0  0  0.216644  0  3.993975  0  0  0.226362  0.196815  0  3.97129  0
C  C39  1  0.50190629  0.74388598  0.99938726  1  0  0.239111  0  3.705856  0  0  0.204716  0  3.980455  0  0  0.21662  0  3.993944  0  0  0.226369  0.196814  0  3.971232  0
C  C40  1  0.63416782  0.13626909  0.97202922  1  0  0.152496  0  3.807191  0  0  0.156994  0  4.05473  0  0  0.161383  0  4.073581  0  0  0.116949  0.153969  0  4.042005  0
C  C41  1  0.36582839  0.86373135  0.02797075  1  0  0.152511  0  3.807091  0  0  0.156986  0  4.054629  0  0  0.161383  0  4.073481  0  0  0.116899  0.153956  0  4.041918  0
C  C42  1  0.69558688  0.11279834  0.86849751  1  0  -0.1231  0  3.677963  0  0  -0.145331  0  3.923771  0  0  -0.150843  0  3.945211  0  0  -0.081091  -0.141694  0  3.909365  0
C  C43  1  0.30441565  0.88719991  0.13150043  1  0  -0.123175  0  3.677976  0  0  -0.145404  0  3.923766  0  0  -0.150914  0  3.945205  0  0  -0.081094  -0.141765  0  3.909369  0
C  C44  1  0.82419097  0.99687484  0.84392246  1  0  -0.025751  0  3.736875  0  0  -0.040467  0  3.985308  0  0  -0.039046  0  4.005418  0  0  -0.076552  -0.041107  0  3.971432  0
C  C45  1  0.17580918  0.00312338  0.15607720  1  0  -0.025752  0  3.736782  0  0  -0.040464  0  3.985209  0  0  -0.039043  0  4.005319  0  0  -0.076559  -0.041105  0  3.971341  0
C  C46  1  0.88368630  0.90642687  0.92246186  1  0  -0.117688  0  3.732876  0  0  -0.134051  0  3.986071  0  0  -0.139289  0  4.00734  0  0  -0.086711  -0.130613  0  3.971632  0
C  C47  1  0.11631344  0.09357359  0.07754007  1  0  -0.11765  0  3.732904  0  0  -0.133991  0  3.986084  0  0  -0.13923  0  4.007354  0  0  -0.086666  -0.130555  0  3.97165  0
C  C48  1  0.81282666  0.93743254  0.02308678  1  0  0.129097  0  3.750863  0  0  0.104606  0  4.014164  0  0  0.110262  0  4.030792  0  0  0.041781  0.100879  0  4.002793  0
C  C49  1  0.18717248  0.06257132  0.97691439  1  0  0.128865  0  3.750981  0  0  0.104381  0  4.01427  0  0  0.110038  0  4.0309  0  0  0.041703  0.100659  0  4.002893  0
C  C50  1  0.52011504  0.27585256  0.18827324  1  0  0.241712  0  3.762457  0  0  0.22868  0  4.016496  0  0  0.239281  0  4.033004  0  0  0.112031  0.221645  0  4.005393  0
C  C51  1  0.47988234  0.72414788  0.81172890  1  0  0.241617  0  3.762432  0  0  0.228588  0  4.016452  0  0  0.239187  0  4.032961  0  0  0.111979  0.221552  0  4.005342  0
C  C52  1  0.45388096  0.19270649  0.26946454  1  0  -0.172916  0  3.674335  0  0  -0.196841  0  3.929072  0  0  -0.203723  0  3.947408  0  0  -0.07816  -0.192569  0  3.917071  0
C  C53  1  0.54611544  0.80729281  0.73053695  1  0  -0.172811  0  3.674313  0  0  -0.196717  0  3.92907  0  0  -0.203597  0  3.947407  0  0  -0.078073  -0.192447  0  3.917065  0
C  C54  1  0.53076503  0.17204451  0.35644763  1  0  0.155151  0  3.694083  0  0  0.126693  0  3.944042  0  0  0.133837  0  3.962309  0  0  0.051919  0.122014  0  3.931737  0
C  C55  1  0.46923671  0.82795145  0.64355194  1  0  0.155236  0  3.694067  0  0  0.126752  0  3.944056  0  0  0.133894  0  3.962327  0  0  0.051911  0.122067  0  3.931752  0
C  C56  1  0.72858094  0.30717953  0.28440857  1  0  0.140158  0  3.722264  0  0  0.116838  0  3.963116  0  0  0.123002  0  3.982386  0  0  0.044746  0.11282  0  3.950147  0
C  C57  1  0.27141565  0.69281863  0.71559368  1  0  0.140098  0  3.722183  0  0  0.116826  0  3.963047  0  0  0.122989  0  3.982319  0  0  0.044704  0.112807  0  3.950071  0
C  C58  1  0.66054853  0.33415792  0.19481832  1  0  -0.181908  0  3.677003  0  0  -0.204547  0  3.931896  0  0  -0.211391  0  3.948491  0  0  -0.084123  -0.200295  0  3.921162  0
C  C59  1  0.33944885  0.66584252  0.80518306  1  0  -0.181767  0  3.676932  0  0  -0.204397  0  3.931793  0  0  -0.211242  0  3.94839  0  0  -0.084038  -0.200145  0  3.92105  0
C  C60  1  0.12356494  0.10821466  0.42397181  1  0  0.288463  0  4.030246  0  0  0.269657  0  4.332242  0  0  0.291827  0  4.34578  0  0  0.146353  0.254607  0  4.322711  0
C  C61  1  0.87644049  0.89180063  0.57602632  1  0  0.288429  0  4.030403  0  0  0.269622  0  4.332378  0  0  0.291784  0  4.345911  0  0  0.146308  0.254575  0  4.322848  0
C  C62  1  0.37118073  0.38451795  0.56456567  1  0  0.298168  0  4.007673  0  0  0.27678  0  4.311868  0  0  0.297403  0  4.32762  0  0  0.144865  0.262748  0  4.300829  0
C  C63  1  0.62881746  0.61548482  0.43542954  1  0  0.298037  0  4.007673  0  0  0.276652  0  4.311879  0  0  0.297279  0  4.327633  0  0  0.144775  0.262617  0  4.30084  0
S  S64  1  0.05393241  0.28812809  0.42103589  1  0  -0.290112  0  2.210091  0  0  -0.260628  0  2.545159  0  0  -0.277272  0  2.541163  0  0  -0.119763  -0.248909  0  2.547562  0
S  S65  1  0.94606633  0.71187804  0.57896375  1  0  -0.290271  0  2.209866  0  0  -0.260778  0  2.544912  0  0  -0.277424  0  2.540914  0  0  -0.119804  -0.249058  0  2.547319  0
S  S66  1  0.45954092  0.24528350  0.62952948  1  0  -0.333591  0  2.13155  0  0  -0.297722  0  2.455486  0  0  -0.313942  0  2.447464  0  0  -0.136788  -0.286207  0  2.460625  0
S  S67  1  0.54046458  0.75471139  0.37046750  1  0  -0.33355  0  2.131989  0  0  -0.297665  0  2.45591  0  0  -0.313888  0  2.447894  0  0  -0.136754  -0.286149  0  2.461049  0
N  N68  1  0.15026756  0.64886404  0.32302801  1  0  -0.316634  0  3.258306  0  0  -0.242061  0  3.522625  0  0  -0.26106  0  3.541791  0  0  -0.323308  -0.229146  0  3.509155  0
N  N69  1  0.84973496  0.35113420  0.67697144  1  0  -0.316735  0  3.258261  0  0  -0.242158  0  3.52256  0  0  -0.261157  0  3.541725  0  0  -0.323372  -0.229244  0  3.509087  0
N  N70  1  0.28333284  0.42207429  0.99138493  1  0  -0.284212  0  2.984827  0  0  -0.259134  0  3.279848  0  0  -0.26985  0  3.294423  0  0  -0.221594  -0.251671  0  3.269631  0
N  N71  1  0.71666652  0.57792846  0.00861472  1  0  -0.284128  0  2.984707  0  0  -0.259039  0  3.279705  0  0  -0.269755  0  3.294275  0  0  -0.221532  -0.251579  0  3.269489  0
N  N72  1  0.40229719  0.32491405  0.93633986  1  0  -0.25815  0  2.943491  0  0  -0.243062  0  3.241664  0  0  -0.251637  0  3.255987  0  0  -0.218058  -0.236954  0  3.231663  0
N  N73  1  0.59769921  0.67508524  0.06366239  1  0  -0.258175  0  2.943414  0  0  -0.243108  0  3.241582  0  0  -0.251678  0  3.255911  0  0  -0.218082  -0.237001  0  3.231585  0
N  N74  1  0.44271229  0.30874474  0.09865675  1  0  -0.195682  0  3.456407  0  0  -0.110345  0  3.669273  0  0  -0.127735  0  3.689828  0  0  -0.201463  -0.09879  0  3.655227  0
N  N75  1  0.55728529  0.69125456  0.90134539  1  0  -0.195699  0  3.456526  0  0  -0.110379  0  3.669386  0  0  -0.127763  0  3.689946  0  0  -0.201505  -0.098821  0  3.655334  0
N  N76  1  0.69161750  0.05021015  0.04832832  1  0  -0.332023  0  3.069681  0  0  -0.300742  0  3.328907  0  0  -0.311402  0  3.345165  0  0  -0.314947  -0.293209  0  3.317669  0
N  N77  1  0.30838166  0.94979374  0.95166906  1  0  -0.331938  0  3.069582  0  0  -0.300661  0  3.328806  0  0  -0.311322  0  3.345062  0  0  -0.314905  -0.293125  0  3.317567  0
N  N78  1  0.66502834  0.22875298  0.36437737  1  0  -0.329164  0  3.237016  0  0  -0.253317  0  3.486276  0  0  -0.272433  0  3.506725  0  0  -0.324224  -0.240364  0  3.472147  0
N  N79  1  0.33497221  0.77124295  0.63562382  1  0  -0.329188  0  3.236888  0  0  -0.253348  0  3.486156  0  0  -0.272464  0  3.506607  0  0  -0.324209  -0.240396  0  3.472026  0
N  N80  1  0.17843220  0.97793840  0.42321466  1  0  -0.539093  0  2.909889  0  0  -0.481116  0  3.18766  0  0  -0.502433  0  3.193749  0  0  -0.402249  -0.466546  0  3.183286  0
N  N81  1  0.82157920  0.02205652  0.57678483  1  0  -0.538885  0  2.91023  0  0  -0.480908  0  3.187989  0  0  -0.502214  0  3.19407  0  0  -0.402177  -0.466343  0  3.183619  0
N  N82  1  0.30666217  0.48270901  0.51584443  1  0  -0.527371  0  2.914813  0  0  -0.473068  0  3.193841  0  0  -0.494166  0  3.203878  0  0  -0.395651  -0.458645  0  3.186859  0
N  N83  1  0.69334274  0.51728243  0.48415645  1  0  -0.527289  0  2.914461  0  0  -0.472968  0  3.193448  0  0  -0.494069  0  3.20349  0  0  -0.39559  -0.458541  0  3.186465  0
