# generated using pymatgen
data_CdH12C18SIN7
_symmetry_space_group_name_H-M   'P 1'
_cell_length_a   8.17200117
_cell_length_b   8.83941016
_cell_length_c   13.86543645
_cell_angle_alpha   91.02891022
_cell_angle_beta   90.11482668
_cell_angle_gamma   109.56563805
_symmetry_Int_Tables_number   1
_chemical_formula_structural   CdH12C18SIN7
_chemical_formula_sum   'Cd2 H24 C36 S2 I2 N14'
_cell_volume   943.56003949
_cell_formula_units_Z   2
loop_
 _symmetry_equiv_pos_site_id
 _symmetry_equiv_pos_as_xyz
  1  'x, y, z'
loop_
 _atom_site_type_symbol
 _atom_site_label
 _atom_site_symmetry_multiplicity
 _atom_site_fract_x
 _atom_site_fract_y
 _atom_site_fract_z
 _atom_site_occupancy
 _atom_site_hle17_bader_spin_density
 _atom_site_hle17_ddec_charge
 _atom_site_hle17_ddec_spin_density
 _atom_site_hle17_ddec_sum_bond_order
 _atom_site_hle17_magmom
 _atom_site_hse06_10hf_bader_spin_density
 _atom_site_hse06_10hf_ddec_charge
 _atom_site_hse06_10hf_ddec_spin_density
 _atom_site_hse06_10hf_ddec_sum_bond_order
 _atom_site_hse06_10hf_magmom
 _atom_site_hse06_bader_spin_density
 _atom_site_hse06_ddec_charge
 _atom_site_hse06_ddec_spin_density
 _atom_site_hse06_ddec_sum_bond_order
 _atom_site_hse06_magmom
 _atom_site_pbe_bader_spin_density
 _atom_site_pbe_cm5_charge
 _atom_site_pbe_ddec_charge
 _atom_site_pbe_ddec_spin_density
 _atom_site_pbe_ddec_sum_bond_order
 _atom_site_pbe_magmom
Cd  Cd0  1  0.71484887  0.69930539  0.52280394  1  0  0.821256  0  2.047312  0  0  0.654681  0  2.492908  0  0  0.702575  0  2.458711  0  0  0.5898  0.621624  0  2.515469  0
Cd  Cd1  1  0.28514390  0.30069121  0.47719660  1  0  0.821265  0  2.047382  0  0  0.654674  0  2.492997  0  0  0.70257  0  2.458798  0  0  0.589806  0.621618  0  2.515562  0
H  H2  1  0.92814387  0.82956034  0.71607274  1  0  0.06774  0  0.98956  0  0  0.070674  0  1.067429  0  0  0.072769  0  1.066415  0  0  0.101921  0.069195  0  1.068059  0
H  H3  1  0.07185632  0.17043990  0.28392858  1  0  0.067733  0  0.98958  0  0  0.070699  0  1.067408  0  0  0.072802  0  1.066378  0  0  0.10193  0.06922  0  1.068039  0
H  H4  1  0.69183420  0.35903548  0.62416174  1  0  0.07228  0  0.979322  0  0  0.076698  0  1.052991  0  0  0.079094  0  1.050836  0  0  0.09759  0.074911  0  1.054548  0
H  H5  1  0.30816930  0.64096718  0.37583818  1  0  0.072254  0  0.979327  0  0  0.076672  0  1.053005  0  0  0.079068  0  1.050849  0  0  0.097572  0.074884  0  1.054561  0
H  H6  1  0.80070314  0.25219801  0.76872755  1  0  0.109932  0  0.955476  0  0  0.112673  0  1.02641  0  0  0.116398  0  1.0252  0  0  0.103972  0.110029  0  1.027405  0
H  H7  1  0.19929993  0.74780345  0.23127236  1  0  0.109918  0  0.955469  0  0  0.112677  0  1.026387  0  0  0.116403  0  1.025179  0  0  0.103973  0.11003  0  1.027382  0
H  H8  1  0.97876930  0.44877558  0.89332069  1  0  0.107513  0  0.981878  0  0  0.107523  0  1.061701  0  0  0.111811  0  1.057132  0  0  0.109304  0.104377  0  1.06504  0
H  H9  1  0.02123457  0.55122469  0.10667921  1  0  0.107491  0  0.98191  0  0  0.107501  0  1.061739  0  0  0.111788  0  1.057171  0  0  0.109298  0.104354  0  1.06508  0
H  H10  1  0.67166128  0.40912701  0.93517274  1  0  0.066559  0  0.962343  0  0  0.076304  0  1.025475  0  0  0.078041  0  1.024968  0  0  0.106544  0.075063  0  1.025875  0
H  H11  1  0.32834089  0.59086847  0.06482637  1  0  0.066569  0  0.962329  0  0  0.076314  0  1.025465  0  0  0.078048  0  1.024966  0  0  0.106535  0.075073  0  1.025866  0
H  H12  1  0.69766830  0.50092849  0.10692710  1  0  0.104281  0  0.946982  0  0  0.115313  0  1.006572  0  0  0.118151  0  1.005944  0  0  0.10504  0.113271  0  1.007146  0
H  H13  1  0.30233477  0.49907298  0.89307209  1  0  0.104295  0  0.946977  0  0  0.115343  0  1.006524  0  0  0.118185  0  1.005898  0  0  0.105054  0.113302  0  1.007099  0
H  H14  1  0.48342531  0.33430305  0.22662767  1  0  0.085892  0  0.979491  0  0  0.093573  0  1.047429  0  0  0.096526  0  1.045336  0  0  0.088751  0.091412  0  1.048981  0
H  H15  1  0.51657412  0.66570198  0.77337155  1  0  0.085956  0  0.979493  0  0  0.093589  0  1.047465  0  0  0.096539  0  1.045373  0  0  0.088778  0.091429  0  1.049015  0
H  H16  1  0.25429909  0.08038066  0.16637903  1  0  0.103125  0  0.970836  0  0  0.107662  0  1.044261  0  0  0.111394  0  1.042122  0  0  0.099771  0.104948  0  1.045955  0
H  H17  1  0.74570157  0.91962438  0.83362235  1  0  0.103179  0  0.970792  0  0  0.107715  0  1.044201  0  0  0.111451  0  1.042058  0  0  0.099796  0.104998  0  1.045896  0
H  H18  1  0.35391687  0.86165259  0.73755004  1  0  0.118556  0  0.966497  0  0  0.125841  0  1.033281  0  0  0.12918  0  1.032186  0  0  0.100123  0.123369  0  1.034311  0
H  H19  1  0.64608496  0.13834887  0.26245130  1  0  0.11853  0  0.966503  0  0  0.125831  0  1.033269  0  0  0.129167  0  1.032177  0  0  0.10011  0.123364  0  1.034294  0
H  H20  1  0.41006074  0.01837252  0.58598982  1  0  0.06877  0  0.974649  0  0  0.069134  0  1.05503  0  0  0.071589  0  1.052859  0  0  0.099717  0.067275  0  1.056734  0
H  H21  1  0.58993695  0.98162412  0.41401001  1  0  0.06875  0  0.974678  0  0  0.069094  0  1.055074  0  0  0.071546  0  1.052906  0  0  0.099705  0.067234  0  1.056777  0
H  H22  1  0.16860015  0.33032519  0.69204433  1  0  0.069403  0  0.973322  0  0  0.076518  0  1.041368  0  0  0.078584  0  1.040195  0  0  0.099728  0.074954  0  1.042315  0
H  H23  1  0.83139306  0.66967260  0.30795334  1  0  0.069374  0  0.973357  0  0  0.076485  0  1.041411  0  0  0.078551  0  1.040237  0  0  0.099724  0.074919  0  1.042357  0
H  H24  1  0.09288176  0.18030942  0.84697304  1  0  0.128406  0  0.971975  0  0  0.131816  0  1.04229  0  0  0.136123  0  1.039708  0  0  0.110962  0.128689  0  1.044349  0
H  H25  1  0.90711640  0.81969201  0.15302685  1  0  0.1284  0  0.972013  0  0  0.131806  0  1.042328  0  0  0.136113  0  1.039746  0  0  0.110964  0.128677  0  1.044387  0
C  C26  1  0.90515148  0.70337883  0.73110764  1  0  0.101907  0  3.683328  0  0  0.063323  0  3.932595  0  0  0.070773  0  3.950713  0  0  0.047226  0.058671  0  3.920216  0
C  C27  1  0.09485036  0.29662262  0.26889370  1  0  0.101859  0  3.683224  0  0  0.063245  0  3.932475  0  0  0.070692  0  3.950597  0  0  0.047179  0.058592  0  3.920096  0
C  C28  1  0.77118020  0.43952514  0.67976254  1  0  0.14078  0  3.675966  0  0  0.108588  0  3.922171  0  0  0.116697  0  3.94029  0  0  0.047954  0.103478  0  3.90978  0
C  C29  1  0.22882287  0.56047632  0.32023809  1  0  0.140818  0  3.675922  0  0  0.108604  0  3.922135  0  0  0.116713  0  3.940253  0  0  0.047998  0.103494  0  3.909739  0
C  C30  1  0.83249019  0.38105263  0.75976685  1  0  -0.102281  0  3.706913  0  0  -0.109735  0  3.9531  0  0  -0.117384  0  3.973331  0  0  -0.078242  -0.104928  0  3.93951  0
C  C31  1  0.16751123  0.61894763  0.24023232  1  0  -0.102241  0  3.706859  0  0  -0.109692  0  3.953025  0  0  -0.117344  0  3.973261  0  0  -0.078237  -0.104883  0  3.939427  0
C  C32  1  0.93187291  0.48990470  0.82846873  1  0  -0.037256  0  3.674302  0  0  -0.063803  0  3.920957  0  0  -0.059188  0  3.9363  0  0  -0.061977  -0.066423  0  3.910512  0
C  C33  1  0.06812851  0.51009556  0.17153188  1  0  -0.037294  0  3.67444  0  0  -0.063851  0  3.921106  0  0  -0.059237  0  3.936448  0  0  -0.062026  -0.066472  0  3.910658  0
C  C34  1  0.96829076  0.65521975  0.81501179  1  0  -0.05076  0  3.792456  0  0  -0.027965  0  4.028318  0  0  -0.035395  0  4.052139  0  0  -0.00347  -0.023549  0  4.012539  0
C  C35  1  0.03171108  0.34478170  0.18498811  1  0  -0.050737  0  3.792372  0  0  -0.027922  0  4.028258  0  0  -0.035351  0  4.052077  0  0  -0.003446  -0.023513  0  4.012481  0
C  C36  1  0.05477145  0.76489700  0.89393357  1  0  0.261776  0  3.739973  0  0  0.228522  0  4.0123  0  0  0.241195  0  4.028705  0  0  0.224579  0.220335  0  4.00097  0
C  C37  1  0.94523162  0.23510447  0.10606561  1  0  0.261894  0  3.739876  0  0  0.228621  0  4.012291  0  0  0.241296  0  4.028694  0  0  0.224605  0.22044  0  4.000952  0
C  C38  1  0.21388093  0.96812328  0.98431234  1  0  0.243037  0  3.701872  0  0  0.207392  0  3.975368  0  0  0.219755  0  3.988533  0  0  0.227751  0.199186  0  3.966346  0
C  C39  1  0.78612006  0.03187577  0.01568825  1  0  0.242989  0  3.70193  0  0  0.207381  0  3.975447  0  0  0.219746  0  3.988611  0  0  0.227717  0.199217  0  3.966372  0
C  C40  1  0.34407329  0.11735252  0.01917613  1  0  0.156948  0  3.80886  0  0  0.16146  0  4.056817  0  0  0.166101  0  4.075177  0  0  0.117635  0.158295  0  4.044379  0
C  C41  1  0.65592935  0.88264775  0.98082376  1  0  0.156933  0  3.808953  0  0  0.161455  0  4.056893  0  0  0.166096  0  4.075254  0  0  0.117606  0.158277  0  4.044448  0
C  C42  1  0.58070428  0.33929336  0.98834689  1  0  0.131496  0  3.737452  0  0  0.106812  0  3.998741  0  0  0.112265  0  4.015906  0  0  0.042751  0.103232  0  3.987001  0
C  C43  1  0.41929709  0.66070330  0.01165295  1  0  0.131449  0  3.737423  0  0  0.106754  0  3.998731  0  0  0.112207  0  4.015893  0  0  0.042713  0.103175  0  3.986992  0
C  C44  1  0.59559077  0.39037442  0.08485524  1  0  -0.115619  0  3.720488  0  0  -0.130674  0  3.969383  0  0  -0.13597  0  3.99056  0  0  -0.085646  -0.127186  0  3.954995  0
C  C45  1  0.40441230  0.60962705  0.91514394  1  0  -0.115612  0  3.720502  0  0  -0.130658  0  3.969391  0  0  -0.13596  0  3.990574  0  0  -0.085652  -0.127172  0  3.955008  0
C  C46  1  0.47618430  0.29793006  0.15060770  1  0  -0.022261  0  3.745706  0  0  -0.034256  0  3.988632  0  0  -0.033084  0  4.008718  0  0  -0.079253  -0.034703  0  3.974788  0
C  C47  1  0.52381674  0.70207258  0.84939221  1  0  -0.022324  0  3.745757  0  0  -0.034283  0  3.988691  0  0  -0.033106  0  4.008773  0  0  -0.079275  -0.03473  0  3.974848  0
C  C48  1  0.34846030  0.15830089  0.11768013  1  0  -0.133536  0  3.698117  0  0  -0.155401  0  3.94412  0  0  -0.161127  0  3.965256  0  0  -0.085056  -0.151596  0  3.929874  0
C  C49  1  0.65154074  0.84170175  0.88232122  1  0  -0.133582  0  3.698117  0  0  -0.155443  0  3.944114  0  0  -0.161173  0  3.965247  0  0  -0.085072  -0.151634  0  3.929871  0
C  C50  1  0.22207545  0.01227115  0.80387880  1  0  0.246532  0  3.758704  0  0  0.232528  0  4.013593  0  0  0.24337  0  4.030142  0  0  0.114248  0.225327  0  4.002441  0
C  C51  1  0.77792682  0.98773151  0.19612184  1  0  0.246554  0  3.758715  0  0  0.232585  0  4.013622  0  0  0.243429  0  4.030169  0  0  0.114248  0.225384  0  4.002472  0
C  C52  1  0.31173893  0.96536140  0.73059049  1  0  -0.180392  0  3.676511  0  0  -0.2009  0  3.9276  0  0  -0.208031  0  3.94533  0  0  -0.082636  -0.196421  0  3.916062  0
C  C53  1  0.68826004  0.03463883  0.26940939  1  0  -0.180271  0  3.676397  0  0  -0.200789  0  3.927448  0  0  -0.207917  0  3.945177  0  0  -0.08257  -0.196315  0  3.915906  0
C  C54  1  0.34324750  0.05311760  0.64591123  1  0  0.154238  0  3.701268  0  0  0.126508  0  3.950561  0  0  0.133955  0  3.968645  0  0  0.050228  0.121624  0  3.938433  0
C  C55  1  0.65674858  0.94688141  0.35409007  1  0  0.154156  0  3.701212  0  0  0.126462  0  3.950486  0  0  0.13391  0  3.968569  0  0  0.050191  0.121577  0  3.938358  0
C  C56  1  0.20821308  0.22626860  0.70552664  1  0  0.142089  0  3.715191  0  0  0.116424  0  3.957605  0  0  0.123066  0  3.976629  0  0  0.042061  0.112081  0  3.944822  0
C  C57  1  0.79178589  0.77373164  0.29447252  1  0  0.142151  0  3.715293  0  0  0.116492  0  3.957689  0  0  0.123132  0  3.976716  0  0  0.042083  0.11215  0  3.944902  0
C  C58  1  0.16838744  0.14501641  0.79167745  1  0  -0.187817  0  3.688028  0  0  -0.210483  0  3.946859  0  0  -0.217481  0  3.963639  0  0  -0.083179  -0.206133  0  3.935973  0
C  C59  1  0.83161524  0.85498744  0.20832464  1  0  -0.187898  0  3.688213  0  0  -0.210553  0  3.947024  0  0  -0.217552  0  3.963806  0  0  -0.083231  -0.206203  0  3.936136  0
C  C60  1  0.88525694  0.10651217  0.55497609  1  0  0.303616  0  3.98376  0  0  0.281837  0  4.287343  0  0  0.303061  0  4.30244  0  0  0.143584  0.267409  0  4.276769  0
C  C61  1  0.11473127  0.89347840  0.44502221  1  0  0.303685  0  3.983998  0  0  0.281905  0  4.287552  0  0  0.303125  0  4.302649  0  0  0.143693  0.26748  0  4.276977  0
S  S62  1  0.73735636  0.98170968  0.62101547  1  0  -0.342903  0  2.193275  0  0  -0.299586  0  2.52669  0  0  -0.317161  0  2.520366  0  0  -0.139199  -0.287139  0  2.53068  0
S  S63  1  0.26263805  0.01828455  0.37897856  1  0  -0.342984  0  2.192987  0  0  -0.299689  0  2.526439  0  0  -0.317266  0  2.520115  0  0  -0.139281  -0.28724  0  2.530428  0
I  I64  1  0.65413060  0.38781521  0.42120242  1  0  -0.432094  0  1.183373  0  0  -0.381013  0  1.522374  0  0  -0.401433  0  1.500866  0  0  -0.173878  -0.36651  0  1.536738  0
I  I65  1  0.34586259  0.61218258  0.57880031  1  0  -0.432112  0  1.183355  0  0  -0.381033  0  1.522353  0  0  -0.401452  0  1.500843  0  0  -0.173889  -0.36653  0  1.536711  0
N  N66  1  0.80755057  0.59748149  0.66590314  1  0  -0.306439  0  3.270824  0  0  -0.227517  0  3.527082  0  0  -0.247821  0  3.547967  0  0  -0.324044  -0.213791  0  3.512451  0
N  N67  1  0.19245127  0.40251996  0.33409748  1  0  -0.306419  0  3.270752  0  0  -0.227453  0  3.526974  0  0  -0.247759  0  3.547865  0  0  -0.324009  -0.213727  0  3.51234  0
N  N68  1  0.02501266  0.72534367  0.98589689  1  0  -0.271442  0  2.963596  0  0  -0.251103  0  3.258009  0  0  -0.260964  0  3.272483  0  0  -0.21822  -0.244273  0  3.24794  0
N  N69  1  0.97498875  0.27465659  0.01410444  1  0  -0.271537  0  2.963711  0  0  -0.251182  0  3.258142  0  0  -0.261044  0  3.272614  0  0  -0.218266  -0.244355  0  3.248071  0
N  N70  1  0.12464441  0.85120663  0.04187722  1  0  -0.265158  0  2.976379  0  0  -0.241873  0  3.269664  0  0  -0.251313  0  3.283922  0  0  -0.216672  -0.235171  0  3.259715  0
N  N71  1  0.87535700  0.14879363  0.95812339  1  0  -0.265129  0  2.976417  0  0  -0.241836  0  3.26968  0  0  -0.251277  0  3.283941  0  0  -0.216657  -0.23515  0  3.259721  0
N  N72  1  0.17293804  0.91928265  0.88918515  1  0  -0.19514  0  3.449472  0  0  -0.110952  0  3.664184  0  0  -0.128297  0  3.684464  0  0  -0.202803  -0.099443  0  3.650393  0
N  N73  1  0.82706545  0.08072002  0.11081549  1  0  -0.195139  0  3.44941  0  0  -0.111079  0  3.664306  0  0  -0.128435  0  3.684606  0  0  -0.202779  -0.099584  0  3.650501  0
N  N74  1  0.45823162  0.20595921  0.95507765  1  0  -0.333029  0  3.050987  0  0  -0.303961  0  3.312512  0  0  -0.31432  0  3.328137  0  0  -0.317786  -0.296628  0  3.301683  0
N  N75  1  0.54177059  0.79403985  0.04492367  1  0  -0.332972  0  3.050932  0  0  -0.303901  0  3.312445  0  0  -0.314257  0  3.328069  0  0  -0.317715  -0.296568  0  3.301619  0
N  N76  1  0.29336604  0.18142921  0.63347288  1  0  -0.324886  0  3.251712  0  0  -0.24767  0  3.500655  0  0  -0.268107  0  3.523146  0  0  -0.325454  -0.233877  0  3.485162  0
N  N77  1  0.70662963  0.81856861  0.36652624  1  0  -0.324848  0  3.251676  0  0  -0.247656  0  3.50062  0  0  -0.268091  0  3.523112  0  0  -0.325436  -0.233862  0  3.485125  0
N  N78  1  0.98943545  0.19733402  0.50586686  1  0  -0.505123  0  2.869381  0  0  -0.454911  0  3.143599  0  0  -0.475394  0  3.152934  0  0  -0.393719  -0.440981  0  3.137076  0
N  N79  1  0.01056476  0.80266624  0.49412725  1  0  -0.505102  0  2.869869  0  0  -0.454882  0  3.144054  0  0  -0.475361  0  3.153391  0  0  -0.393746  -0.440954  0  3.13753  0
