# generated using pymatgen
data_ZnH16C26SNO8
_symmetry_space_group_name_H-M   'P 1'
_cell_length_a   14.98447947
_cell_length_b   15.48359491
_cell_length_c   15.95027218
_cell_angle_alpha   89.96837509
_cell_angle_beta   104.88893957
_cell_angle_gamma   98.78583706
_symmetry_Int_Tables_number   1
_chemical_formula_structural   ZnH16C26SNO8
_chemical_formula_sum   'Zn2 H32 C52 S2 N2 O16'
_cell_volume   3531.56530742
_cell_formula_units_Z   2
loop_
 _symmetry_equiv_pos_site_id
 _symmetry_equiv_pos_as_xyz
  1  'x, y, z'
loop_
 _atom_site_type_symbol
 _atom_site_label
 _atom_site_symmetry_multiplicity
 _atom_site_fract_x
 _atom_site_fract_y
 _atom_site_fract_z
 _atom_site_occupancy
 _atom_site_pbe_bader_charge
 _atom_site_pbe_bader_spin_density
 _atom_site_pbe_cm5_charge
 _atom_site_pbe_ddec_charge
 _atom_site_pbe_ddec_spin_density
 _atom_site_pbe_ddec_sum_bond_order
 _atom_site_pbe_magmom
Zn  Zn0  1  0.60291458  0.48827934  0.51601973  1  1.306708  0  0.675595  0.83866  0  2.400595  0
Zn  Zn1  1  0.41570020  0.52567209  0.49096725  1  1.315616  0  0.680422  0.863814  0  2.372612  0
H  H2  1  0.57430615  0.62915734  0.93470284  1  0.041902  0  0.100268  0.105151  0  0.967758  0
H  H3  1  0.46342163  0.78806607  0.46952191  1  0.133862  0  0.105426  0.111752  0  1.029298  0
H  H4  1  0.53632878  0.64126343  0.06691657  1  0.054338  0  0.101654  0.108685  0  0.963133  0
H  H5  1  0.62553005  0.16209109  0.45935172  1  0.0634  0  0.106737  0.112303  0  1.03176  0
H  H6  1  0.36818349  0.85633384  0.41283583  1  0.053921  0  0.103678  0.104799  0  1.013042  0
H  H7  1  0.19899713  0.09529475  0.38151864  1  0.05373  0  0.104098  0.105213  0  0.992974  0
H  H8  1  0.96907622  0.57275634  0.27683573  1  0.093156  0  0.11441  0.1171  0  0.97942  0
H  H9  1  0.76469512  0.50966092  0.43846928  1  0.123884  0  0.130353  0.104874  0  0.988473  0
H  H10  1  0.68792105  0.35228988  0.62503388  1  0.131925  0  0.130523  0.113276  0  0.972604  0
H  H11  1  0.01237299  0.32218934  0.65868430  1  0.080843  0  0.118512  0.124713  0  0.966876  0
H  H12  1  0.13461467  0.59736360  0.27089345  1  0.096711  0  0.121897  0.128739  0  0.972017  0
H  H13  1  0.62905655  0.58409745  0.11292954  1  0.03563  0  0.092762  0.08954  0  0.994595  0
H  H14  1  0.30266431  0.58628089  0.34381598  1  0.160804  0  0.129266  0.11577  0  0.996935  0
H  H15  1  0.34386553  0.45450583  0.01863937  1  0.031485  0  0.097664  0.102256  0  0.973604  0
H  H16  1  0.84991368  0.52307117  0.35477757  1  0.116982  0  0.118039  0.120744  0  0.984445  0
H  H17  1  0.13469734  0.39975566  0.59786441  1  0.122924  0  0.114412  0.124833  0  1.020343  0
H  H18  1  0.84548201  0.30394349  0.67158134  1  0.122297  0  0.121114  0.136623  0  0.972004  0
H  H19  1  0.37194141  0.57007495  0.02189252  1  0.077475  0  0.098147  0.107231  0  0.99788  0
H  H20  1  0.36112707  0.45274907  0.87710841  1  0.092746  0  0.11578  0.108501  0  0.935401  0
H  H21  1  0.46343312  0.36211345  0.07118461  1  0.057235  0  0.110096  0.098224  0  0.949474  0
H  H22  1  0.59950667  0.39607303  0.96655506  1  0.033651  0  0.097718  0.09632  0  0.983207  0
H  H23  1  0.79158892  0.23009541  0.52151086  1  0.627033  0  0.315844  0.353679  0  0.948644  0
H  H24  1  0.65204687  0.55529567  0.97605871  1  0.034527  0  0.093583  0.091401  0  0.98261  0
H  H25  1  0.19109596  0.64448782  0.66303873  1  0.628083  0  0.361931  0.415835  0  0.820272  0
H  H26  1  0.40455120  0.59258845  0.80435206  1  0.074226  0  0.102537  0.043155  0  0.995716  0
H  H27  1  0.67226204  0.44569400  0.12007691  1  0.026782  0  0.092415  0.014011  0  0.965159  0
H  H28  1  0.47992767  0.35095445  0.93086876  1  0.047588  0  0.104253  0.112865  0  0.96157  0
H  H29  1  0.53215864  0.23502909  0.46800671  1  0.08487  0  0.103009  0.108528  0  1.031213  0
H  H30  1  0.24236625  0.25697684  0.41032346  1  0.080017  0  0.105775  0.111567  0  0.994658  0
H  H31  1  0.24647414  0.94912425  0.38005649  1  0.040989  0  0.103574  0.102683  0  0.9924  0
H  H32  1  0.79746520  0.92194914  0.53546701  1  0.075719  0  0.104523  0.112395  0  1.01272  0
H  H33  1  0.75238265  0.76317526  0.54979202  1  0.089641  0  0.106276  0.110975  0  0.992619  0
C  C34  1  0.57334832  0.67158305  0.51824573  1  1.549234  0  0.218734  0.597044  0  4.157793  0
C  C35  1  0.39086910  0.25358090  0.44140387  1  0.045912  0  -0.016516  -0.024283  0  3.973969  0
C  C36  1  0.72379195  0.89356414  0.52025189  1  0.027319  0  -0.089667  -0.132805  0  3.978555  0
C  C37  1  0.50352196  0.51769307  0.33686948  1  1.693973  0  0.218628  0.679253  0  4.22763  0
C  C38  1  0.69913614  0.80485691  0.52831344  1  -0.112314  0  -0.081668  -0.085898  0  3.985915  0
C  C39  1  0.53578047  0.81957662  0.48180449  1  -0.082014  0  -0.079873  -0.133146  0  3.940649  0
C  C40  1  0.55805336  0.91002901  0.47193668  1  0.044998  0  0.001116  0.03774  0  3.945982  0
C  C41  1  0.65489289  0.94830409  0.49268663  1  -0.004878  0  0.001206  0.075297  0  3.974189  0
C  C42  1  0.48527189  0.96371962  0.44583502  1  -0.060624  0  0.002859  0.043336  0  3.958044  0
C  C43  1  0.51023079  0.05557845  0.44776135  1  0.060825  0  -0.001621  0.037765  0  3.968137  0
C  C44  1  0.60644977  0.09215183  0.46475443  1  0.028472  0  -0.080117  -0.126792  0  3.991713  0
C  C45  1  0.58110681  0.56915900  0.97100658  1  -0.021072  0  -0.153177  -0.188209  0  3.855911  0
C  C46  1  0.67572663  0.04129367  0.48526282  1  -0.210192  0  -0.016605  -0.137377  0  3.964764  0
C  C47  1  0.38840842  0.92709378  0.41917121  1  -0.014632  0  -0.090925  -0.131983  0  4.013705  0
C  C48  1  0.31994463  0.97887666  0.40071983  1  -0.057658  0  -0.085098  -0.123765  0  4.012695  0
C  C49  1  0.42027534  0.34929429  0.46365143  1  1.549499  0  0.214893  0.598412  0  4.15237  0
C  C50  1  0.34229315  0.07173163  0.41049091  1  0.046777  0  -0.005609  0.078276  0  4.020575  0
C  C51  1  0.43852833  0.11074480  0.43401036  1  -0.007351  0  -0.000145  0.035865  0  3.959297  0
C  C52  1  0.27227168  0.12582413  0.40025147  1  -0.026895  0  -0.089295  -0.137933  0  3.997688  0
C  C53  1  0.29570460  0.21515351  0.41603406  1  -0.09492  0  -0.084198  -0.092218  0  3.994538  0
C  C54  1  0.46013300  0.20199115  0.44833295  1  -0.039414  0  -0.080032  -0.129681  0  3.936507  0
C  C55  1  0.15468641  0.57504431  0.33690831  1  -0.02371  0  -0.070237  -0.159359  0  3.945828  0
C  C56  1  0.51047153  0.49207642  0.91891406  1  0.135349  0  0.005498  0.158052  0  3.89467  0
C  C57  1  0.24730193  0.57293450  0.37716667  1  0.431725  0  0.051313  0.096127  0  3.912539  0
C  C58  1  0.21160466  0.53321816  0.50673703  1  0.419445  0  0.13435  0.031529  0  3.855346  0
C  C59  1  0.11384783  0.51539252  0.46682566  1  0.03794  0  0.009678  -0.013457  0  3.916704  0
C  C60  1  0.08580618  0.54653612  0.38085295  1  -0.007196  0  0.012181  0.111706  0  4.010339  0
C  C61  1  0.53284146  0.48393138  0.66812419  1  1.693666  0  0.223856  0.684283  0  4.222404  0
C  C62  1  0.04247143  0.47088105  0.50477257  1  0.006085  0  0.005617  0.043765  0  3.951575  0
C  C63  1  0.94787012  0.47934658  0.46675921  1  0.034278  0  0.009786  0.049445  0  3.950529  0
C  C64  1  0.92315316  0.51970907  0.38529327  1  -0.104742  0  -0.06919  -0.103045  0  3.978315  0
C  C65  1  0.98910439  0.54797707  0.34187033  1  0.029744  0  -0.079131  -0.127043  0  3.985229  0
C  C66  1  0.06329831  0.41237879  0.57380794  1  -0.036447  0  -0.072923  -0.0921  0  3.946206  0
C  C67  1  0.52862679  0.40698643  0.96677267  1  -0.025975  0  -0.144685  -0.209311  0  3.826182  0
C  C68  1  0.99512692  0.36896996  0.60823718  1  -0.018585  0  -0.073138  -0.113585  0  3.944615  0
C  C69  1  0.90165405  0.38586268  0.58003463  1  -0.036012  0  0.010982  0.108128  0  4.019981  0
C  C70  1  0.87795340  0.44248897  0.50985821  1  0.06269  0  0.005559  -0.012197  0  3.938446  0
C  C71  1  0.83047150  0.34939231  0.61932280  1  -0.05588  0  -0.081689  -0.201951  0  3.984215  0
C  C72  1  0.74375005  0.37527203  0.59427320  1  0.464766  0  0.050108  0.090006  0  3.930994  0
C  C73  1  0.56390745  0.58035354  0.06135514  1  -0.048252  0  -0.154583  -0.192814  0  3.852916  0
C  C74  1  0.78692372  0.46419144  0.48902413  1  0.499556  0  0.076681  0.07793  0  3.864377  0
C  C75  1  0.39662578  0.50896598  0.01016982  1  -0.029949  0  -0.155288  -0.22128  0  3.84782  0
C  C76  1  0.40922854  0.50731884  0.91728264  1  -0.056228  0  -0.080113  -0.108504  0  3.803131  0
C  C77  1  0.53198686  0.48091675  0.75867861  1  0.184658  0  -0.052564  -0.193892  0  3.971751  0
C  C78  1  0.51869529  0.41319678  0.06098058  1  -0.017763  0  -0.081476  -0.109286  0  3.805112  0
C  C79  1  0.49061752  0.50393446  0.07709517  1  0.115052  0  0.007885  0.162591  0  3.877363  0
C  C80  1  0.38527382  0.58791951  0.86735331  1  0.945238  0  0.103103  0.304796  0  3.888919  0
C  C81  1  0.60871863  0.39873394  0.12445408  1  0.977445  0  0.103983  0.312932  0  3.939183  0
C  C82  1  0.52245733  0.48509773  0.83188513  1  -0.515306  0  -0.034453  -0.068785  0  4.066069  0
C  C83  1  0.48553083  0.51101989  0.16646870  1  -0.444474  0  -0.033392  -0.05596  0  4.041963  0
C  C84  1  0.49220422  0.51593936  0.24394805  1  0.130656  0  -0.057584  -0.204321  0  3.984173  0
C  C85  1  0.60398907  0.76723013  0.50974771  1  0.018632  0  -0.01566  -0.023037  0  3.981345  0
S  S86  1  0.79464281  0.09295804  0.50811052  1  3.029942  0  0.53472  1.168283  0  5.974327  0
S  S87  1  0.26138442  0.54784123  0.62463522  1  3.061875  0  0.556519  1.111604  0  5.945105  0
N  N88  1  0.27537565  0.55625528  0.46272996  1  -1.219965  0  -0.303124  -0.212424  0  3.513127  0
N  N89  1  0.72356007  0.43417219  0.53144697  1  -1.263398  0  -0.317652  -0.197712  0  3.520478  0
O  O90  1  0.63521581  0.62147840  0.53080146  1  -1.147189  0  -0.3179  -0.543225  0  2.299711  0
O  O91  1  0.84155009  0.05266084  0.45443557  1  -1.282271  0  -0.313811  -0.517718  0  2.087967  0
O  O92  1  0.78575412  0.18978882  0.47201868  1  -1.201779  0  -0.363864  -0.524071  0  2.176133  0
O  O93  1  0.27227147  0.46579556  0.66440031  1  -1.272225  0  -0.281477  -0.47657  0  2.163399  0
O  O94  1  0.33592610  0.62074064  0.63790362  1  -1.254105  0  -0.285085  -0.491067  0  2.16333  0
O  O95  1  0.17599893  0.58074746  0.65410694  1  -1.174311  0  -0.355876  -0.5398  0  2.164302  0
O  O96  1  0.34651934  0.64357837  0.89128620  1  -1.089504  0  -0.27548  -0.370191  0  2.103149  0
O  O97  1  0.61596568  0.34005646  0.17539870  1  -1.076982  0  -0.266867  -0.355122  0  2.085574  0
O  O98  1  0.48624442  0.64808768  0.51096710  1  -1.155711  0  -0.319265  -0.54624  0  2.358522  0
O  O99  1  0.58271387  0.50416724  0.38304519  1  -1.152103  0  -0.315169  -0.545756  0  2.247258  0
O  O100  1  0.43369841  0.53184866  0.36357757  1  -1.158228  0  -0.311148  -0.562148  0  2.284111  0
O  O101  1  0.50817270  0.37584187  0.48755193  1  -1.190973  0  -0.321077  -0.570561  0  2.38849  0
O  O102  1  0.35706271  0.39719873  0.45804880  1  -1.151498  0  -0.320678  -0.540751  0  2.269305  0
O  O103  1  0.60799788  0.47618978  0.64770257  1  -1.146597  0  -0.316717  -0.553399  0  2.245954  0
O  O104  1  0.45560492  0.49540618  0.61698441  1  -1.153721  0  -0.308716  -0.54523  0  2.367877  0
O  O105  1  0.83337009  0.10265164  0.60112847  1  -1.293409  0  -0.336992  -0.564372  0  2.074154  0
