# generated using pymatgen
data_Zn3H20C36(NO4)4
_symmetry_space_group_name_H-M   'P 1'
_cell_length_a   21.80108848
_cell_length_b   21.80109277
_cell_length_c   23.66047190
_cell_angle_alpha   117.44650942
_cell_angle_beta   117.44730901
_cell_angle_gamma   89.98839015
_symmetry_Int_Tables_number   1
_chemical_formula_structural   Zn3H20C36(NO4)4
_chemical_formula_sum   'Zn6 H40 C72 N8 O32'
_cell_volume   8528.67511185
_cell_formula_units_Z   2
loop_
 _symmetry_equiv_pos_site_id
 _symmetry_equiv_pos_as_xyz
  1  'x, y, z'
loop_
 _atom_site_type_symbol
 _atom_site_label
 _atom_site_symmetry_multiplicity
 _atom_site_fract_x
 _atom_site_fract_y
 _atom_site_fract_z
 _atom_site_occupancy
 _atom_site_pbe_bader_charge
 _atom_site_pbe_bader_spin_density
 _atom_site_pbe_cm5_charge
 _atom_site_pbe_ddec_charge
 _atom_site_pbe_ddec_spin_density
 _atom_site_pbe_ddec_sum_bond_order
 _atom_site_pbe_magmom
Zn  Zn0  1  0.00001973  0.44101978  0.99999608  1  1.291535  0  0.732295  0.965526  0  2.069089  0
Zn  Zn1  1  0.46465741  0.46465367  0.92933776  1  1.299423  0  0.728559  0.964051  0  2.095705  0
Zn  Zn2  1  0.53534690  0.53533786  0.07066087  1  1.284339  0  0.728615  0.964119  0  2.095418  0
Zn  Zn3  1  0.55898134  0.99997736  0.00000564  1  1.291517  0  0.732219  0.965422  0  2.069221  0
Zn  Zn4  1  0.00000723  0.55900973  0.00000116  1  1.292395  0  0.732451  0.965629  0  2.068689  0
Zn  Zn5  1  0.44099193  0.99999227  0.00000160  1  1.292476  0  0.732477  0.965723  0  2.06849  0
H  H6  1  0.36229155  0.51459131  0.10945602  1  0.097977  0  0.102098  0.123746  0  1.008277  0
H  H7  1  0.59484307  0.36224868  0.10945252  1  0.076512  0  0.102057  0.123591  0  1.008307  0
H  H8  1  0.74709757  0.59482394  0.10935334  1  0.097281  0  0.102043  0.123891  0  1.007192  0
H  H9  1  0.51450890  0.74707984  0.10932215  1  0.082319  0  0.102066  0.123606  0  1.007723  0
H  H10  1  0.63775091  0.40515507  0.89054778  1  0.076533  0  0.102045  0.123567  0  1.008311  0
H  H11  1  0.40517515  0.25290294  0.89064428  1  0.097438  0  0.102018  0.123872  0  1.007105  0
H  H12  1  0.25291912  0.48549149  0.89067808  1  0.082335  0  0.102043  0.123569  0  1.007745  0
H  H13  1  0.48541028  0.63771040  0.89054513  1  0.098038  0  0.102109  0.123759  0  1.008266  0
H  H14  1  0.71635927  0.13518156  0.23850009  1  0.113141  0  0.113367  0.114872  0  0.9985  0
H  H15  1  0.10336344  0.71632848  0.23847740  1  0.118233  0  0.113517  0.115474  0  0.996626  0
H  H16  1  0.52211832  0.10329600  0.23842551  1  0.111814  0  0.11359  0.115076  0  0.998163  0
H  H17  1  0.13512364  0.52208519  0.23843611  1  0.112333  0  0.113537  0.11487  0  0.997081  0
H  H18  1  0.28367205  0.89664280  0.76152422  1  0.118198  0  0.113486  0.115429  0  0.996507  0
H  H19  1  0.89670283  0.47788421  0.76157471  1  0.111742  0  0.113626  0.115079  0  0.998111  0
H  H20  1  0.47791174  0.86487199  0.76156262  1  0.112374  0  0.113514  0.114833  0  0.997128  0
H  H21  1  0.86482001  0.28364301  0.76149850  1  0.11279  0  0.113411  0.114918  0  0.998484  0
H  H22  1  0.82540244  0.19860163  0.34345472  1  0.035937  0  0.099566  0.029944  0  0.958026  0
H  H23  1  0.14482845  0.82535903  0.34339824  1  0.037128  0  0.099738  0.03049  0  0.957772  0
H  H24  1  0.51802472  0.14481631  0.34337041  1  0.049582  0  0.099765  0.030485  0  0.957925  0
H  H25  1  0.19857243  0.51799197  0.34341711  1  0.05528  0  0.099957  0.030415  0  0.957815  0
H  H26  1  0.17463700  0.85517682  0.65660202  1  0.037382  0  0.099718  0.030426  0  0.957726  0
H  H27  1  0.85518513  0.48198044  0.65663117  1  0.049618  0  0.099749  0.030444  0  0.957848  0
H  H28  1  0.48200370  0.80141849  0.65658419  1  0.055411  0  0.100003  0.030412  0  0.95778  0
H  H29  1  0.80140294  0.17460148  0.65654458  1  0.036005  0  0.099629  0.03004  0  0.957944  0
H  H30  1  0.29396657  0.53312614  0.17055934  1  0.4416  0  0.310463  0.305834  0  0.93915  0
H  H31  1  0.20334564  0.52006723  0.12619245  1  0.434577  0  0.294633  0.292917  0  0.977497  0
H  H32  1  0.63742303  0.29396871  0.17056933  1  0.456961  0  0.310267  0.30521  0  0.939661  0
H  H33  1  0.60613626  0.20334861  0.12623145  1  0.433578  0  0.294764  0.292652  0  0.978859  0
H  H34  1  0.87655996  0.63743673  0.17055658  1  0.457224  0  0.31022  0.305041  0  0.938651  0
H  H35  1  0.92284371  0.60615169  0.12623180  1  0.447459  0  0.294465  0.292039  0  0.97865  0
H  H36  1  0.53309270  0.87654922  0.17053063  1  0.423903  0  0.310322  0.305695  0  0.938245  0
H  H37  1  0.52005188  0.92283241  0.12621178  1  0.423491  0  0.294372  0.292089  0  0.979127  0
H  H38  1  0.70602991  0.36257525  0.82943217  1  0.45698  0  0.310266  0.30527  0  0.939598  0
H  H39  1  0.79665103  0.39386052  0.87377203  1  0.433691  0  0.294744  0.292631  0  0.978832  0
H  H40  1  0.36256319  0.12344022  0.82944097  1  0.457243  0  0.310198  0.304963  0  0.938725  0
H  H41  1  0.39384857  0.07715693  0.87376678  1  0.447493  0  0.294513  0.292084  0  0.978589  0
H  H42  1  0.12344904  0.46690648  0.82946831  1  0.423905  0  0.310305  0.305716  0  0.938251  0
H  H43  1  0.07716635  0.47994655  0.87378702  1  0.423509  0  0.294426  0.292196  0  0.97908  0
H  H44  1  0.46687462  0.70603403  0.82944128  1  0.441489  0  0.310453  0.305804  0  0.939106  0
H  H45  1  0.47993243  0.79665473  0.87380758  1  0.434566  0  0.294642  0.292916  0  0.977516  0
C  C46  1  0.11746056  0.50008824  0.00002605  1  1.517671  0  0.222392  0.63433  0  4.139402  0
C  C47  1  0.23290244  0.73288261  0.46582634  1  0.166928  0  0.015187  -0.00155  0  3.978914  0
C  C48  1  0.14344523  0.58011438  0.26905496  1  -0.035835  0  -0.057104  -0.088523  0  3.927505  0
C  C49  1  0.31107958  0.87433945  0.73092026  1  -0.124987  0  -0.057545  -0.090078  0  3.928975  0
C  C50  1  0.87439364  0.41986253  0.73095267  1  0.045765  0  -0.057431  -0.090219  0  3.928731  0
C  C51  1  0.41988277  0.85655160  0.73094511  1  -0.035324  0  -0.05712  -0.088612  0  3.92752  0
C  C52  1  0.85652016  0.31105689  0.73090161  1  -0.026033  0  -0.056682  -0.090332  0  3.928686  0
C  C53  1  0.68894560  0.14348372  0.26909770  1  -0.026232  0  -0.056624  -0.090284  0  3.928741  0
C  C54  1  0.12566416  0.68892112  0.26908132  1  -0.124982  0  -0.05752  -0.090143  0  3.9291  0
C  C55  1  0.58013891  0.12560794  0.26904724  1  0.045627  0  -0.057552  -0.090487  0  3.928495  0
C  C56  1  0.26710880  0.76709116  0.53417318  1  -0.351848  0  0.015441  -0.001183  0  3.978944  0
C  C57  1  0.61460792  0.11460954  0.22919100  1  0.022868  0  -0.022954  -0.043085  0  3.99639  0
C  C58  1  0.11462277  0.61457490  0.22918522  1  0.052058  0  -0.022729  -0.046784  0  4.001134  0
C  C59  1  0.38542475  0.88537783  0.77081473  1  0.051583  0  -0.022693  -0.046658  0  4.001123  0
C  C60  1  0.88539105  0.38539619  0.77080906  1  0.022602  0  -0.023  -0.043296  0  3.996585  0
C  C61  1  0.76712193  0.26710462  0.53417336  1  0.164995  0  0.015153  -0.001686  0  3.979177  0
C  C62  1  0.69401140  0.19399787  0.38800952  1  0.188646  0  0.04402  0.123635  0  3.967855  0
C  C63  1  0.19401099  0.69398290  0.38800515  1  0.160257  0  0.043944  0.123723  0  3.967105  0
C  C64  1  0.30601114  0.80598365  0.61199305  1  0.160216  0  0.043949  0.123597  0  3.967204  0
C  C65  1  0.80601104  0.30599376  0.61199255  1  0.188862  0  0.044109  0.123898  0  3.96776  0
C  C66  1  0.80730019  0.20872609  0.38348053  1  0.943802  0  0.100529  0.268367  0  3.991639  0
C  C67  1  0.73290421  0.23288823  0.46582833  1  -0.34839  0  0.015365  -0.0013  0  3.979188  0
C  C68  1  0.17474270  0.80726669  0.38344086  1  0.963065  0  0.100473  0.267295  0  3.99283  0
C  C69  1  0.57616818  0.17471583  0.38340225  1  0.948929  0  0.099938  0.267154  0  3.991232  0
C  C70  1  0.20868103  0.57613732  0.38342951  1  0.923326  0  0.100379  0.267982  0  3.991846  0
C  C71  1  0.19272794  0.82525763  0.61655669  1  0.963011  0  0.100398  0.267364  0  3.993115  0
C  C72  1  0.82528570  0.42383634  0.61659771  1  0.948734  0  0.099945  0.267217  0  3.991151  0
C  C73  1  0.42385795  0.79130862  0.61657000  1  0.923  0  0.100357  0.267996  0  3.991495  0
C  C74  1  0.79128271  0.19270679  0.61652221  1  0.943649  0  0.100538  0.268314  0  3.991413  0
C  C75  1  0.31267964  0.50835806  0.06209594  1  -0.010643  0  -0.118428  -0.26043  0  3.970481  0
C  C76  1  0.55372024  0.31263724  0.06208291  1  -0.035975  0  -0.118322  -0.260103  0  3.969544  0
C  C77  1  0.74937022  0.55373503  0.06199466  1  -0.022546  0  -0.11871  -0.261058  0  3.968456  0
C  C78  1  0.49997087  0.11742312  0.00001841  1  1.518809  0  0.222349  0.634269  0  4.14088  0
C  C79  1  0.50823872  0.74935338  0.06197067  1  0.009845  0  -0.118424  -0.259925  0  3.969513  0
C  C80  1  0.68736362  0.44627938  0.93791806  1  -0.036091  0  -0.118306  -0.260084  0  3.96973  0
C  C81  1  0.44626664  0.25063101  0.93800533  1  -0.022773  0  -0.118719  -0.261029  0  3.968513  0
C  C82  1  0.25064524  0.49176167  0.93803019  1  0.0099  0  -0.118406  -0.25992  0  3.969555  0
C  C83  1  0.49164314  0.68732246  0.93790577  1  -0.010794  0  -0.118419  -0.260404  0  3.970517  0
C  C84  1  0.88257828  0.50002531  0.99998298  1  1.518861  0  0.222361  0.634362  0  4.141018  0
C  C85  1  0.50004839  0.38146018  0.00007619  1  1.570481  0  0.222464  0.606292  0  4.124709  0
C  C86  1  0.61854128  0.49995375  0.99992776  1  1.570987  0  0.222536  0.60632  0  4.124629  0
C  C87  1  0.49994535  0.61853090  0.99992306  1  1.559328  0  0.222393  0.606886  0  4.124603  0
C  C88  1  0.38147245  0.50005417  0.00008188  1  1.559698  0  0.222502  0.607022  0  4.124703  0
C  C89  1  0.49991082  0.88253933  0.99997365  1  1.517824  0  0.222327  0.634241  0  4.139366  0
C  C90  1  0.24837638  0.50695830  0.06209075  1  0.391338  0  0.094768  0.303754  0  4.124706  0
C  C91  1  0.55511255  0.24834071  0.06208452  1  0.398215  0  0.094773  0.303365  0  4.1252  0
C  C92  1  0.81368768  0.55517990  0.06204389  1  0.428051  0  0.095062  0.303769  0  4.125711  0
C  C93  1  0.50686002  0.81367241  0.06202860  1  0.431272  0  0.094975  0.303628  0  4.125559  0
C  C94  1  0.75165787  0.44488470  0.93791651  1  0.398451  0  0.094809  0.303408  0  4.125152  0
C  C95  1  0.44481812  0.18631303  0.93795500  1  0.428076  0  0.095067  0.303722  0  4.125544  0
C  C96  1  0.18632738  0.49313964  0.93797156  1  0.430901  0  0.094932  0.303659  0  4.125603  0
C  C97  1  0.49304221  0.75162279  0.93790839  1  0.391487  0  0.094737  0.303693  0  4.124669  0
C  C98  1  0.92693448  0.42691993  0.85385602  1  1.560184  0  0.212562  0.586354  0  4.191675  0
C  C99  1  0.42695634  0.92691788  0.85385707  1  1.58218  0  0.212217  0.587244  0  4.192371  0
C  C100  1  0.07308171  0.57304388  0.14614171  1  1.582043  0  0.212254  0.587303  0  4.19242  0
C  C101  1  0.57308134  0.07306130  0.14614369  1  1.560511  0  0.212612  0.586325  0  4.191579  0
C  C102  1  0.31297829  0.50008798  0.00008869  1  -0.06095  0  -0.019422  0.010168  0  4.05087  0
C  C103  1  0.50001401  0.31295400  0.00005940  1  -0.000993  0  -0.019225  0.010991  0  4.049542  0
C  C104  1  0.68704375  0.49998351  0.99993677  1  -0.001092  0  -0.019259  0.01099  0  4.049354  0
C  C105  1  0.49991203  0.68702198  0.99991131  1  -0.060527  0  -0.019415  0.010153  0  4.050872  0
C  C106  1  0.18564034  0.50006586  0.00003010  1  -0.00032  0  -0.041201  -0.26279  0  3.90062  0
C  C107  1  0.49995006  0.18560670  0.00001792  1  0.01112  0  -0.041494  -0.26368  0  3.901556  0
C  C108  1  0.81439478  0.50004767  0.99998428  1  0.011157  0  -0.041436  -0.263612  0  3.901537  0
C  C109  1  0.49993360  0.81435910  0.99996944  1  -0.000288  0  -0.041226  -0.262838  0  3.900554  0
C  C110  1  0.72887021  0.18198295  0.34687540  1  -0.032659  0  -0.00853  -0.030064  0  3.951181  0
C  C111  1  0.16492019  0.72884190  0.34684664  1  0.040686  0  -0.008137  -0.030191  0  3.952174  0
C  C112  1  0.61799054  0.16487589  0.34681473  1  -0.143767  0  -0.007348  -0.029293  0  3.952377  0
C  C113  1  0.18195441  0.61795945  0.34682329  1  -0.045786  0  -0.008132  -0.029834  0  3.950941  0
C  C114  1  0.27115516  0.83508082  0.65315481  1  0.040576  0  -0.008018  -0.030183  0  3.952079  0
C  C115  1  0.83512905  0.38201352  0.65318672  1  -0.143496  0  -0.007417  -0.029401  0  3.952565  0
C  C116  1  0.38203590  0.81804018  0.65317700  1  -0.045522  0  -0.008118  -0.029711  0  3.950672  0
C  C117  1  0.81802488  0.27113487  0.65312551  1  -0.031782  0  -0.008632  -0.030174  0  3.951404  0
N  N118  1  0.24671276  0.51060206  0.12141221  1  -1.219711  0  -0.601498  -0.628266  0  3.318692  0
N  N119  1  0.61080430  0.24670849  0.12143451  1  -1.241112  0  -0.60125  -0.626898  0  3.320896  0
N  N120  1  0.87468538  0.61085123  0.12142618  1  -1.255085  0  -0.601151  -0.62625  0  3.319321  0
N  N121  1  0.51055757  0.87467211  0.12139987  1  -1.196883  0  -0.601059  -0.627193  0  3.319016  0
N  N122  1  0.75329198  0.38919421  0.87856802  1  -1.241328  0  -0.601284  -0.626997  0  3.32074  0
N  N123  1  0.38914733  0.12531490  0.87857259  1  -1.255162  0  -0.601153  -0.626156  0  3.319284  0
N  N124  1  0.12532593  0.48944070  0.87859884  1  -1.196587  0  -0.60108  -0.62736  0  3.319002  0
N  N125  1  0.48939948  0.75328896  0.87858897  1  -1.21978  0  -0.601487  -0.628193  0  3.318596  0
O  O126  1  0.08481334  0.44308809  0.98876628  1  -1.135258  0  -0.309781  -0.539564  0  2.261094  0
O  O127  1  0.54570262  0.08475272  0.98873915  1  -1.138686  0  -0.310682  -0.540017  0  2.262595  0
O  O128  1  0.90396022  0.54573426  0.98868091  1  -1.135465  0  -0.310115  -0.539534  0  2.26098  0
O  O129  1  0.44291560  0.90395251  0.98872021  1  -1.136563  0  -0.311037  -0.540169  0  2.260657  0
O  O130  1  0.91524856  0.45429582  0.01126144  1  -1.138683  0  -0.310757  -0.54015  0  2.262779  0
O  O131  1  0.45426405  0.09604335  0.01132189  1  -1.135351  0  -0.31016  -0.539572  0  2.260814  0
O  O132  1  0.09604679  0.55708285  0.01127960  1  -1.136362  0  -0.311071  -0.540234  0  2.260635  0
O  O133  1  0.55691173  0.91518969  0.01123395  1  -1.135255  0  -0.309721  -0.539495  0  2.261078  0
O  O134  1  0.93101302  0.39245007  0.88642656  1  -1.158178  0  -0.317216  -0.557933  0  2.26991  0
O  O135  1  0.49402255  0.93101968  0.88642586  1  -1.172666  0  -0.317763  -0.558309  0  2.270267  0
O  O136  1  0.95545267  0.49396760  0.88642241  1  -1.157877  0  -0.317664  -0.558199  0  2.270773  0
O  O137  1  0.39248432  0.95541714  0.88642750  1  -1.164581  0  -0.316888  -0.557759  0  2.270299  0
O  O138  1  0.06897703  0.50597912  0.11357052  1  -1.172597  0  -0.317777  -0.558302  0  2.270345  0
O  O139  1  0.50603723  0.04454066  0.11357566  1  -1.158164  0  -0.317621  -0.558099  0  2.270907  0
O  O140  1  0.04458502  0.60751822  0.11357303  1  -1.164493  0  -0.316901  -0.557737  0  2.27038  0
O  O141  1  0.60755149  0.06898196  0.11357196  1  -1.158144  0  -0.317283  -0.558019  0  2.269903  0
O  O142  1  0.54342299  0.43923320  0.06155068  1  -1.16287  0  -0.319343  -0.554758  0  2.278737  0
O  O143  1  0.62225431  0.54331491  0.06141280  1  -1.155964  0  -0.319122  -0.554139  0  2.276398  0
O  O144  1  0.51811601  0.62225037  0.06141242  1  -1.149752  0  -0.318943  -0.55459  0  2.277304  0
O  O145  1  0.43925525  0.51818581  0.06156368  1  -1.15668  0  -0.319237  -0.554775  0  2.278378  0
O  O146  1  0.45668009  0.37774524  0.93858431  1  -1.155372  0  -0.319162  -0.554226  0  2.276069  0
O  O147  1  0.37775032  0.48188137  0.93858536  1  -1.149734  0  -0.318987  -0.55464  0  2.277084  0
O  O148  1  0.48180735  0.56074304  0.93843380  1  -1.156537  0  -0.319227  -0.554724  0  2.277977  0
O  O149  1  0.56076243  0.45657500  0.93844484  1  -1.162724  0  -0.319445  -0.554864  0  2.278434  0
O  O150  1  0.85050336  0.23901007  0.45047284  1  -1.045769  0  -0.248379  -0.328887  0  2.115701  0
O  O151  1  0.21143875  0.85044474  0.45042180  1  -1.059074  0  -0.248349  -0.328199  0  2.116844  0
O  O152  1  0.59998242  0.21141002  0.45039146  1  -1.050518  0  -0.248192  -0.328526  0  2.11485  0
O  O153  1  0.23890828  0.59995444  0.45040467  1  -1.03407  0  -0.248361  -0.328871  0  2.116241  0
O  O154  1  0.14955186  0.78856178  0.54958006  1  -1.059183  0  -0.248305  -0.32821  0  2.117242  0
O  O155  1  0.78858871  0.40002236  0.54960699  1  -1.050501  0  -0.248175  -0.328561  0  2.114798  0
O  O156  1  0.40004007  0.76107716  0.54959559  1  -1.034109  0  -0.248391  -0.328888  0  2.116063  0
O  O157  1  0.76100137  0.14950296  0.54952559  1  -1.045865  0  -0.248427  -0.328921  0  2.115472  0
