# generated using pymatgen
data_TbH6C6(NO4)2
_symmetry_space_group_name_H-M   'P 1'
_cell_length_a   7.82534771
_cell_length_b   8.39842559
_cell_length_c   17.41958635
_cell_angle_alpha   89.99991321
_cell_angle_beta   89.99982813
_cell_angle_gamma   107.63375308
_symmetry_Int_Tables_number   1
_chemical_formula_structural   TbH6C6(NO4)2
_chemical_formula_sum   'Tb4 H24 C24 N8 O32'
_cell_volume   1091.03303504
_cell_formula_units_Z   4
loop_
 _symmetry_equiv_pos_site_id
 _symmetry_equiv_pos_as_xyz
  1  'x, y, z'
loop_
 _atom_site_type_symbol
 _atom_site_label
 _atom_site_symmetry_multiplicity
 _atom_site_fract_x
 _atom_site_fract_y
 _atom_site_fract_z
 _atom_site_occupancy
 _atom_site_hle17_bader_spin_density
 _atom_site_hle17_ddec_charge
 _atom_site_hle17_ddec_spin_density
 _atom_site_hle17_ddec_sum_bond_order
 _atom_site_hle17_magmom
 _atom_site_hse06_10hf_bader_spin_density
 _atom_site_hse06_10hf_ddec_charge
 _atom_site_hse06_10hf_ddec_spin_density
 _atom_site_hse06_10hf_ddec_sum_bond_order
 _atom_site_hse06_10hf_magmom
 _atom_site_hse06_bader_spin_density
 _atom_site_hse06_ddec_charge
 _atom_site_hse06_ddec_spin_density
 _atom_site_hse06_ddec_sum_bond_order
 _atom_site_hse06_magmom
 _atom_site_pbe_bader_spin_density
 _atom_site_pbe_cm5_charge
 _atom_site_pbe_ddec_charge
 _atom_site_pbe_ddec_spin_density
 _atom_site_pbe_ddec_sum_bond_order
 _atom_site_pbe_magmom
Tb  Tb0  1  0.25518539  0.73598617  0.97709165  1  0  2.288873  0  1.629777  0  0  2.140193  0  2.103258  0  0  2.260481  0  1.921543  0  0  1.492993  2.105366  0  2.134824  0
Tb  Tb1  1  0.24481345  0.26401779  0.47709086  1  0  2.288922  0  1.629782  0  0  2.140327  0  2.103154  0  0  2.260539  0  1.921546  0  0  1.493027  2.105461  0  2.134791  0
Tb  Tb2  1  0.74480997  0.26402526  0.02291040  1  0  2.288939  0  1.629706  0  0  2.140376  0  2.103012  0  0  2.260554  0  1.921459  0  0  1.493032  2.105471  0  2.134717  0
Tb  Tb3  1  0.75518924  0.73598108  0.52291061  1  0  2.288907  0  1.629785  0  0  2.140307  0  2.103142  0  0  2.260516  0  1.921538  0  0  1.492999  2.105439  0  2.13477  0
H  H4  1  0.88206275  0.65736263  0.91879941  1  0  0.437011  0  0.862879  0  0  0.405234  0  0.927369  0  0  0.417542  0  0.909511  0  0  0.297302  0.396614  0  0.939993  0
H  H5  1  0.61793698  0.34263394  0.41880045  1  0  0.43691  0  0.863019  0  0  0.405152  0  0.927471  0  0  0.41746  0  0.909611  0  0  0.297266  0.396536  0  0.940092  0
H  H6  1  0.11793564  0.34264252  0.08120150  1  0  0.437021  0  0.862861  0  0  0.40524  0  0.927361  0  0  0.417551  0  0.909497  0  0  0.297328  0.396623  0  0.939982  0
H  H7  1  0.38206534  0.65735992  0.58120332  1  0  0.437015  0  0.862864  0  0  0.405259  0  0.927318  0  0  0.417566  0  0.909462  0  0  0.297349  0.396644  0  0.939938  0
H  H8  1  0.01877081  0.67709780  0.85066288  1  0  0.414436  0  0.845928  0  0  0.397977  0  0.900826  0  0  0.406362  0  0.892089  0  0  0.315992  0.391955  0  0.907886  0
H  H9  1  0.48123144  0.32288307  0.35066288  1  0  0.414517  0  0.845907  0  0  0.398084  0  0.900741  0  0  0.406468  0  0.891948  0  0  0.316065  0.392065  0  0.907797  0
H  H10  1  0.98123281  0.32289230  0.14933917  1  0  0.414412  0  0.845981  0  0  0.397974  0  0.900833  0  0  0.406358  0  0.89209  0  0  0.316013  0.391954  0  0.907886  0
H  H11  1  0.51876632  0.67709705  0.64933974  1  0  0.414552  0  0.845748  0  0  0.398068  0  0.900704  0  0  0.406453  0  0.891971  0  0  0.316063  0.392044  0  0.907769  0
H  H12  1  0.29154553  0.09826240  0.02028326  1  0  0.43907  0  0.84985  0  0  0.411068  0  0.907848  0  0  0.42133  0  0.89304  0  0  0.307203  0.403838  0  0.918502  0
H  H13  1  0.20845003  0.90173792  0.52028342  1  0  0.439039  0  0.849883  0  0  0.411041  0  0.907876  0  0  0.421304  0  0.893067  0  0  0.307204  0.403811  0  0.918529  0
H  H14  1  0.70844817  0.90174403  0.97972224  1  0  0.439075  0  0.84984  0  0  0.411056  0  0.907876  0  0  0.42132  0  0.893069  0  0  0.30717  0.403827  0  0.918529  0
H  H15  1  0.79154801  0.09825848  0.47972093  1  0  0.439131  0  0.84976  0  0  0.411115  0  0.907792  0  0  0.42138  0  0.892979  0  0  0.307219  0.403886  0  0.918444  0
H  H16  1  0.13385400  0.97121143  0.06473072  1  0  0.408849  0  0.90082  0  0  0.368654  0  0.981205  0  0  0.37974  0  0.965189  0  0  0.295013  0.360668  0  0.992891  0
H  H17  1  0.36614374  0.02878862  0.56472900  1  0  0.408644  0  0.901007  0  0  0.368503  0  0.98134  0  0  0.379587  0  0.965329  0  0  0.294972  0.360519  0  0.993023  0
H  H18  1  0.86614949  0.02879370  0.93527764  1  0  0.408679  0  0.900921  0  0  0.368533  0  0.981268  0  0  0.379622  0  0.965249  0  0  0.294973  0.36055  0  0.992949  0
H  H19  1  0.63385048  0.97120779  0.43527592  1  0  0.408615  0  0.901037  0  0  0.368474  0  0.981374  0  0  0.379559  0  0.965361  0  0  0.294952  0.360492  0  0.993055  0
H  H20  1  0.14931680  0.09890149  0.23211502  1  0  0.306142  0  0.83699  0  0  0.29339  0  0.884534  0  0  0.301011  0  0.878285  0  0  0.356321  0.287964  0  0.889031  0
H  H21  1  0.35067741  0.90109514  0.73211499  1  0  0.306266  0  0.83683  0  0  0.293477  0  0.884425  0  0  0.301099  0  0.878174  0  0  0.356333  0.288048  0  0.888928  0
H  H22  1  0.85068035  0.90109992  0.76788703  1  0  0.306158  0  0.836959  0  0  0.293391  0  0.884522  0  0  0.301012  0  0.878275  0  0  0.356325  0.287962  0  0.889017  0
H  H23  1  0.64931936  0.09890127  0.26788649  1  0  0.306159  0  0.836962  0  0  0.293405  0  0.884507  0  0  0.301027  0  0.878257  0  0  0.356321  0.287977  0  0.889005  0
H  H24  1  0.84130514  0.60759262  0.28761856  1  0  0.147142  0  0.927539  0  0  0.157512  0  0.983565  0  0  0.161662  0  0.980699  0  0  0.121044  0.154572  0  0.985526  0
H  H25  1  0.65869658  0.39240344  0.78761514  1  0  0.147178  0  0.927572  0  0  0.157555  0  0.983588  0  0  0.161704  0  0.980724  0  0  0.12108  0.154614  0  0.985549  0
H  H26  1  0.15869667  0.39241126  0.71238177  1  0  0.147128  0  0.927515  0  0  0.1575  0  0.983546  0  0  0.161651  0  0.98068  0  0  0.121041  0.15456  0  0.98551  0
H  H27  1  0.34130491  0.60758793  0.21238462  1  0  0.147115  0  0.927553  0  0  0.157495  0  0.98358  0  0  0.161645  0  0.980715  0  0  0.121044  0.154555  0  0.985542  0
C  C28  1  0.99981667  0.87538408  0.28851505  1  0  0.037457  0  3.721435  0  0  0.025858  0  3.986575  0  0  0.025318  0  4.002748  0  0  0.091661  0.026567  0  3.974369  0
C  C29  1  0.50018841  0.12461446  0.78851433  1  0  0.037515  0  3.721509  0  0  0.025855  0  3.986675  0  0  0.025317  0  4.002845  0  0  0.091641  0.02656  0  3.974469  0
C  C30  1  0.00018389  0.12461606  0.71148585  1  0  0.037481  0  3.721424  0  0  0.025853  0  3.986573  0  0  0.025314  0  4.002745  0  0  0.091652  0.026558  0  3.97437  0
C  C31  1  0.49982235  0.87538562  0.21148658  1  0  0.037514  0  3.721509  0  0  0.025893  0  3.986646  0  0  0.025354  0  4.002816  0  0  0.091697  0.026597  0  3.974449  0
C  C32  1  0.91644203  0.71902435  0.25700868  1  0  -0.171741  0  3.668859  0  0  -0.21334  0  3.933825  0  0  -0.215951  0  3.951487  0  0  -0.087412  -0.211318  0  3.921146  0
C  C33  1  0.58355657  0.28096940  0.75700830  1  0  -0.171816  0  3.668955  0  0  -0.213414  0  3.933966  0  0  -0.216024  0  3.951627  0  0  -0.087476  -0.211393  0  3.921288  0
C  C34  1  0.08355515  0.28097331  0.74299223  1  0  -0.17172  0  3.668867  0  0  -0.213309  0  3.933861  0  0  -0.215919  0  3.951524  0  0  -0.087415  -0.211287  0  3.921183  0
C  C35  1  0.41645254  0.71902568  0.24299375  1  0  -0.171759  0  3.668933  0  0  -0.213379  0  3.93393  0  0  -0.21599  0  3.951591  0  0  -0.087465  -0.211357  0  3.921254  0
C  C36  1  0.95760337  0.73762785  0.17805613  1  0  0.02403  0  3.752163  0  0  0.025901  0  4.01472  0  0  0.023133  0  4.031385  0  0  0.090636  0.028025  0  4.0023  0
C  C37  1  0.54239332  0.26237011  0.67805640  1  0  0.024072  0  3.752029  0  0  0.025911  0  4.014574  0  0  0.023142  0  4.031239  0  0  0.090673  0.028033  0  4.002152  0
C  C38  1  0.04239547  0.26237480  0.82194534  1  0  0.024016  0  3.752147  0  0  0.025834  0  4.014707  0  0  0.023067  0  4.031372  0  0  0.09062  0.027956  0  4.002285  0
C  C39  1  0.45760686  0.73762502  0.32194622  1  0  0.024029  0  3.752187  0  0  0.025884  0  4.014683  0  0  0.023117  0  4.031349  0  0  0.090643  0.028009  0  4.002255  0
C  C40  1  0.57254833  0.56019204  0.97461957  1  0  0.585076  0  3.873848  0  0  0.538699  0  4.169621  0  0  0.569078  0  4.165585  0  0  0.228981  0.518078  0  4.1755  0
C  C41  1  0.92745551  0.43981421  0.47461956  1  0  0.58541  0  3.873736  0  0  0.539002  0  4.169619  0  0  0.56938  0  4.165581  0  0  0.229105  0.518378  0  4.175496  0
C  C42  1  0.42744830  0.43981938  0.02537559  1  0  0.58531  0  3.873826  0  0  0.539039  0  4.169488  0  0  0.569418  0  4.165449  0  0  0.229123  0.518395  0  4.1754  0
C  C43  1  0.07254887  0.56018590  0.52537790  1  0  0.585266  0  3.87377  0  0  0.538893  0  4.169622  0  0  0.569271  0  4.165584  0  0  0.229067  0.518268  0  4.175498  0
C  C44  1  0.91912184  0.61037101  0.11636875  1  0  0.693341  0  3.915824  0  0  0.6489  0  4.204033  0  0  0.684802  0  4.196412  0  0  0.229695  0.624731  0  4.211929  0
C  C45  1  0.58088047  0.38962726  0.61636830  1  0  0.693306  0  3.916061  0  0  0.648956  0  4.204109  0  0  0.684857  0  4.196489  0  0  0.229706  0.624788  0  4.212008  0
C  C46  1  0.08087955  0.38963162  0.88363273  1  0  0.693347  0  3.916006  0  0  0.649028  0  4.204028  0  0  0.684923  0  4.196415  0  0  0.229741  0.624859  0  4.211928  0
C  C47  1  0.41912181  0.61037036  0.38363375  1  0  0.693388  0  3.915998  0  0  0.649083  0  4.203969  0  0  0.684975  0  4.196357  0  0  0.229735  0.624913  0  4.211866  0
C  C48  1  0.02006713  0.93915915  0.36802791  1  0  0.71753  0  3.915333  0  0  0.670802  0  4.208311  0  0  0.707978  0  4.197719  0  0  0.24051  0.645928  0  4.217409  0
C  C49  1  0.47993609  0.06084040  0.86802773  1  0  0.717309  0  3.915514  0  0  0.670673  0  4.208355  0  0  0.707851  0  4.197762  0  0  0.240394  0.645801  0  4.217454  0
C  C50  1  0.97993219  0.06083723  0.63197357  1  0  0.717471  0  3.915271  0  0  0.67079  0  4.208192  0  0  0.707967  0  4.197599  0  0  0.240547  0.645917  0  4.217293  0
C  C51  1  0.52006957  0.93915971  0.13197375  1  0  0.71745  0  3.915454  0  0  0.670757  0  4.208399  0  0  0.707936  0  4.197804  0  0  0.240436  0.645886  0  4.2175  0
N  N52  1  0.05751186  0.89593548  0.16175664  1  0  -0.170455  0  2.972335  0  0  -0.1536  0  3.238719  0  0  -0.156509  0  3.251437  0  0  -0.183889  -0.151094  0  3.229773  0
N  N53  1  0.44248378  0.10406404  0.66175476  1  0  -0.170459  0  2.972261  0  0  -0.153599  0  3.238649  0  0  -0.156507  0  3.251366  0  0  -0.18392  -0.151093  0  3.229699  0
N  N54  1  0.94248740  0.10406842  0.83824426  1  0  -0.17047  0  2.972324  0  0  -0.153625  0  3.238738  0  0  -0.156534  0  3.25145  0  0  -0.183911  -0.151121  0  3.229789  0
N  N55  1  0.55751385  0.89593111  0.33824327  1  0  -0.170456  0  2.972367  0  0  -0.153634  0  3.238772  0  0  -0.156544  0  3.251487  0  0  -0.183915  -0.151127  0  3.229818  0
N  N56  1  0.08004699  0.97541911  0.22871743  1  0  -0.137055  0  3.498224  0  0  -0.088993  0  3.746564  0  0  -0.098527  0  3.761395  0  0  -0.253646  -0.082457  0  3.735862  0
N  N57  1  0.41995021  0.02457877  0.72871621  1  0  -0.137191  0  3.498043  0  0  -0.089102  0  3.746421  0  0  -0.09864  0  3.761251  0  0  -0.253652  -0.082565  0  3.735717  0
N  N58  1  0.91995016  0.02458230  0.77128462  1  0  -0.137057  0  3.498142  0  0  -0.088977  0  3.746503  0  0  -0.098514  0  3.761333  0  0  -0.253636  -0.082438  0  3.735795  0
N  N59  1  0.58005166  0.97541760  0.27128412  1  0  -0.137059  0  3.498276  0  0  -0.088984  0  3.746608  0  0  -0.09852  0  3.761441  0  0  -0.253625  -0.082447  0  3.735904  0
O  O60  1  0.54470519  0.69302535  0.95201453  1  0  -0.652634  0  2.076784  0  0  -0.601507  0  2.312919  0  0  -0.632349  0  2.29986  0  0  -0.351379  -0.585405  0  2.319837  0
O  O61  1  0.95529965  0.30698728  0.45201515  1  0  -0.652695  0  2.076785  0  0  -0.601559  0  2.312943  0  0  -0.63239  0  2.299884  0  0  -0.351373  -0.585454  0  2.319867  0
O  O62  1  0.45528928  0.30699109  0.04798121  1  0  -0.652615  0  2.07677  0  0  -0.601537  0  2.312847  0  0  -0.632359  0  2.299789  0  0  -0.351401  -0.58542  0  2.319785  0
O  O63  1  0.04470643  0.69301408  0.54798346  1  0  -0.65266  0  2.076804  0  0  -0.601527  0  2.312946  0  0  -0.632356  0  2.299888  0  0  -0.351372  -0.585422  0  2.319871  0
O  O64  1  0.99369864  0.73586645  0.89547326  1  0  -0.862579  0  1.825261  0  0  -0.821067  0  2.008823  0  0  -0.846663  0  1.975761  0  0  -0.619002  -0.808451  0  2.028415  0
O  O65  1  0.50630391  0.26412273  0.39547681  1  0  -0.862598  0  1.825402  0  0  -0.82111  0  2.008967  0  0  -0.846683  0  1.975829  0  0  -0.619028  -0.808491  0  2.028562  0
O  O66  1  0.00630830  0.26413365  0.10452649  1  0  -0.8626  0  1.825336  0  0  -0.82111  0  2.008876  0  0  -0.846688  0  1.975799  0  0  -0.619058  -0.808485  0  2.028467  0
O  O67  1  0.49369637  0.73586113  0.60452811  1  0  -0.86271  0  1.825158  0  0  -0.82121  0  2.008723  0  0  -0.846783  0  1.975644  0  0  -0.619114  -0.808589  0  2.028312  0
O  O68  1  0.70974870  0.51489514  0.95996473  1  0  -0.662264  0  2.132424  0  0  -0.605445  0  2.367539  0  0  -0.638687  0  2.356861  0  0  -0.337553  -0.587615  0  2.373103  0
O  O69  1  0.79026072  0.48511992  0.45996028  1  0  -0.662456  0  2.132348  0  0  -0.605616  0  2.367461  0  0  -0.638865  0  2.356783  0  0  -0.337641  -0.587791  0  2.373028  0
O  O70  1  0.29025087  0.48512128  0.04003388  1  0  -0.66236  0  2.132442  0  0  -0.605557  0  2.367521  0  0  -0.638817  0  2.356842  0  0  -0.337525  -0.587727  0  2.373099  0
O  O71  1  0.20974660  0.51488518  0.54003546  1  0  -0.662376  0  2.132347  0  0  -0.605541  0  2.367449  0  0  -0.63879  0  2.356775  0  0  -0.337554  -0.587713  0  2.373015  0
O  O72  1  0.19736216  0.99057405  0.01433510  1  0  -0.893735  0  1.891601  0  0  -0.844925  0  2.084001  0  0  -0.872845  0  2.047324  0  0  -0.639893  -0.831459  0  2.105747  0
O  O73  1  0.30263432  0.00942504  0.51433290  1  0  -0.893471  0  1.891732  0  0  -0.844726  0  2.083994  0  0  -0.872627  0  2.047313  0  0  -0.639853  -0.831258  0  2.105743  0
O  O74  1  0.80263241  0.00943113  0.98567327  1  0  -0.893564  0  1.891662  0  0  -0.844802  0  2.083915  0  0  -0.872676  0  2.047176  0  0  -0.639822  -0.831326  0  2.105659  0
O  O75  1  0.69736286  0.99057261  0.48567030  1  0  -0.893545  0  1.89171  0  0  -0.844785  0  2.083969  0  0  -0.872672  0  2.047253  0  0  -0.639825  -0.831315  0  2.105704  0
O  O76  1  0.01534048  0.64468042  0.05616412  1  0  -0.76291  0  2.129589  0  0  -0.71093  0  2.39348  0  0  -0.749934  0  2.380652  0  0  -0.415733  -0.692943  0  2.401384  0
O  O77  1  0.48465520  0.35532095  0.55616258  1  0  -0.762975  0  2.129563  0  0  -0.711032  0  2.393396  0  0  -0.750027  0  2.380572  0  0  -0.415784  -0.693039  0  2.401309  0
O  O78  1  0.98465112  0.35532353  0.94383621  1  0  -0.76301  0  2.12959  0  0  -0.71106  0  2.393368  0  0  -0.750052  0  2.380552  0  0  -0.415809  -0.69306  0  2.401281  0
O  O79  1  0.51534495  0.64467794  0.44383775  1  0  -0.76302  0  2.12964  0  0  -0.711096  0  2.393447  0  0  -0.75009  0  2.380624  0  0  -0.415776  -0.693103  0  2.401355  0
O  O80  1  0.79704553  0.47236781  0.12693400  1  0  -0.713372  0  1.964122  0  0  -0.668012  0  2.196  0  0  -0.699428  0  2.180348  0  0  -0.373965  -0.651744  0  2.204233  0
O  O81  1  0.70295332  0.52762793  0.62693271  1  0  -0.713307  0  1.964389  0  0  -0.667955  0  2.196208  0  0  -0.699374  0  2.180554  0  0  -0.373917  -0.651689  0  2.204439  0
O  O82  1  0.20295038  0.52762985  0.87306863  1  0  -0.713325  0  1.964361  0  0  -0.667986  0  2.19619  0  0  -0.69941  0  2.180535  0  0  -0.373932  -0.651728  0  2.20442  0
O  O83  1  0.29705152  0.47236968  0.37306934  1  0  -0.713348  0  1.964262  0  0  -0.668034  0  2.196085  0  0  -0.699449  0  2.180428  0  0  -0.373967  -0.651774  0  2.20432  0
O  O84  1  0.11751637  0.08991430  0.37645027  1  0  -0.720056  0  2.000185  0  0  -0.673326  0  2.253343  0  0  -0.707404  0  2.234283  0  0  -0.405135  -0.656636  0  2.262986  0
O  O85  1  0.38248550  0.91008522  0.87645192  1  0  -0.719937  0  2.000263  0  0  -0.673216  0  2.25335  0  0  -0.707307  0  2.234292  0  0  -0.405047  -0.656531  0  2.262986  0
O  O86  1  0.88248337  0.91008334  0.62355178  1  0  -0.71999  0  2.00028  0  0  -0.673281  0  2.253428  0  0  -0.70736  0  2.23437  0  0  -0.40512  -0.65659  0  2.263067  0
O  O87  1  0.61750951  0.08991746  0.12355186  1  0  -0.719997  0  2.000345  0  0  -0.673307  0  2.253499  0  0  -0.707379  0  2.23444  0  0  -0.405073  -0.656609  0  2.263144  0
O  O88  1  0.94334869  0.84060882  0.42095108  1  0  -0.752226  0  2.106893  0  0  -0.703194  0  2.371362  0  0  -0.740268  0  2.355952  0  0  -0.399823  -0.685306  0  2.379342  0
O  O89  1  0.55664713  0.15939528  0.92094968  1  0  -0.752162  0  2.106913  0  0  -0.703153  0  2.371345  0  0  -0.740221  0  2.355933  0  0  -0.399783  -0.685261  0  2.379331  0
O  O90  1  0.05664677  0.15939135  0.57904925  1  0  -0.75225  0  2.106772  0  0  -0.703228  0  2.371225  0  0  -0.7403  0  2.355815  0  0  -0.399877  -0.685338  0  2.37921  0
O  O91  1  0.44335171  0.84060737  0.07905065  1  0  -0.752232  0  2.106837  0  0  -0.703183  0  2.371287  0  0  -0.740271  0  2.355877  0  0  -0.399812  -0.685294  0  2.37926  0
