# generated using pymatgen
data_Gd2MnH32(C4O5)4
_symmetry_space_group_name_H-M   'P 1'
_cell_length_a   7.97859619
_cell_length_b   9.85796614
_cell_length_c   11.15601898
_cell_angle_alpha   110.80083160
_cell_angle_beta   107.05840922
_cell_angle_gamma   92.18017251
_symmetry_Int_Tables_number   1
_chemical_formula_structural   Gd2MnH32(C4O5)4
_chemical_formula_sum   'Gd2 Mn1 H32 C16 O20'
_cell_volume   774.18073782
_cell_formula_units_Z   1
loop_
 _symmetry_equiv_pos_site_id
 _symmetry_equiv_pos_as_xyz
  1  'x, y, z'
loop_
 _atom_site_type_symbol
 _atom_site_label
 _atom_site_symmetry_multiplicity
 _atom_site_fract_x
 _atom_site_fract_y
 _atom_site_fract_z
 _atom_site_occupancy
 _atom_site_hle17_ddec_charge
 _atom_site_hle17_ddec_spin_density
 _atom_site_hle17_ddec_sum_bond_order
 _atom_site_hle17_magmom
 _atom_site_hse06_10hf_ddec_charge
 _atom_site_hse06_10hf_ddec_spin_density
 _atom_site_hse06_10hf_ddec_sum_bond_order
 _atom_site_hse06_10hf_magmom
 _atom_site_hse06_ddec_charge
 _atom_site_hse06_ddec_spin_density
 _atom_site_hse06_ddec_sum_bond_order
 _atom_site_hse06_magmom
 _atom_site_pbe_cm5_charge
 _atom_site_pbe_ddec_charge
 _atom_site_pbe_ddec_spin_density
 _atom_site_pbe_ddec_sum_bond_order
 _atom_site_pbe_magmom
Gd  Gd0  1  0.90146865  0.57538743  0.15687209  1  2.167716  -0.002858  1.8057  -0.002  2.072492  -5.2e-05  2.166202  0.001  2.128115  0.000665  2.109545  0.001  1.466044  2.028465  -0.001022  2.212949  0.0
Gd  Gd1  1  0.09853639  0.42462013  0.84313119  1  2.16774  -0.00291  1.805679  -0.002  2.072513  -5.3e-05  2.166183  0.001  2.128137  0.000664  2.109512  0.001  1.466066  2.028454  -0.001022  2.212995  0.0
Mn  Mn2  1  0.99999440  0.49999445  0.49999715  1  1.054265  1.059206  2.397291  1.033  0.938002  1.070743  2.975672  1.033  0.995091  1.033308  2.88677  0.992  0.591442  0.905744  1.110402  3.027487  1.074
H  H3  1  0.41823367  0.47414297  0.09265244  1  0.438721  -6.8e-05  0.85176  0.0  0.412692  -3.2e-05  0.90656  0.0  0.422561  3.7e-05  0.892333  0.0  0.306515  0.405655  -0.000129  0.916734  0.0
H  H4  1  0.58176667  0.52586691  0.90734698  1  0.438833  -5.8e-05  0.851624  0.0  0.412803  -3.1e-05  0.906423  0.0  0.422673  3.7e-05  0.892195  0.0  0.306546  0.405766  -0.000128  0.9166  0.0
H  H5  1  0.24208972  0.41581764  0.11071457  1  0.421066  -3e-06  0.887658  0.0  0.390794  -2.2e-05  0.951884  0.0  0.401381  -2.7e-05  0.936693  0.0  0.297614  0.383223  -3.1e-05  0.962696  0.0
H  H6  1  0.75790807  0.58418670  0.88928701  1  0.421095  5e-06  0.887632  0.0  0.390801  -2.2e-05  0.951866  0.0  0.401387  -2.7e-05  0.936676  0.0  0.297601  0.383232  -3.1e-05  0.962678  0.0
H  H7  1  0.05940084  0.12281311  0.70394762  1  0.432178  -3e-05  0.843425  0.0  0.4052  -7.8e-05  0.906239  0.0  0.415899  3e-06  0.890332  0.0  0.313393  0.397586  -0.000109  0.917569  0.0
H  H8  1  0.94060302  0.87719547  0.29606202  1  0.432111  -2.9e-05  0.843601  0.0  0.405128  -7.8e-05  0.906358  0.0  0.415826  3e-06  0.89045  0.0  0.31335  0.397512  -0.000109  0.91769  0.0
H  H9  1  0.25259860  0.14277418  0.80779369  1  0.439279  -6e-06  0.812271  0.0  0.42237  -7e-05  0.864619  0.0  0.430153  -2.7e-05  0.853385  0.0  0.333186  0.416768  -9.6e-05  0.872787  0.0
H  H10  1  0.74740655  0.85724092  0.19222459  1  0.439279  -1e-06  0.812307  0.0  0.422354  -7e-05  0.864648  0.0  0.430138  -2.7e-05  0.853411  0.0  0.333079  0.416749  -9.6e-05  0.87282  0.0
H  H11  1  0.55618771  0.18471052  0.76386166  1  0.141666  5e-06  0.947484  0.0  0.158698  -0.000131  1.012355  0.0  0.161601  -8.7e-05  1.011077  0.0  0.103701  0.156748  -0.00014  1.013047  0.0
H  H12  1  0.44380314  0.81529177  0.23613416  1  0.141603  1e-05  0.94749  0.0  0.158616  -0.000131  1.01239  0.0  0.161528  -8.7e-05  1.011105  0.0  0.103681  0.156663  -0.00014  1.013081  0.0
H  H13  1  0.74822628  0.09863999  0.76398132  1  0.141383  -2.5e-05  0.945949  0.0  0.159547  -6e-06  1.004719  0.0  0.162118  -7e-06  1.003868  0.0  0.103436  0.157573  -3e-06  1.005589  0.0
H  H14  1  0.25177847  0.90137206  0.23601796  1  0.14135  -7e-06  0.946031  0.0  0.159539  -6e-06  1.004754  0.0  0.162112  -7e-06  1.003901  0.0  0.103426  0.157564  -3e-06  1.005627  0.0
H  H15  1  0.61140606  0.07170271  0.85960684  1  0.135457  -3.4e-05  0.933747  0.0  0.156202  -1.5e-05  0.987653  0.0  0.158609  3e-06  0.986745  0.0  0.101675  0.154309  -4.1e-05  0.988618  0.0
H  H16  1  0.38859016  0.92831269  0.14039705  1  0.135456  -1.7e-05  0.933647  0.0  0.156152  -1.5e-05  0.987624  0.0  0.158558  3e-06  0.986717  0.0  0.101639  0.154259  -4.1e-05  0.988587  0.0
H  H17  1  0.43451342  0.53519379  0.58425409  1  0.154896  -0.000372  0.948016  0.0  0.17323  -0.000335  1.007238  0.0  0.176674  -0.000211  1.005679  0.0  0.109103  0.170349  -0.000489  1.008848  0.0
H  H18  1  0.56547913  0.46479845  0.41574604  1  0.154857  -0.000397  0.947999  0.0  0.173202  -0.000335  1.007213  0.0  0.17665  -0.000211  1.00564  0.0  0.1091  0.17032  -0.000489  1.008827  0.0
H  H19  1  0.58049932  0.42922423  0.65724855  1  0.146283  3.4e-05  0.957311  0.0  0.164327  -3.2e-05  1.015135  0.0  0.166572  -1e-05  1.015111  0.0  0.102556  0.162556  -4.5e-05  1.01542  0.0
H  H20  1  0.41950294  0.57077015  0.34274900  1  0.146269  -0.0  0.957369  0.0  0.164319  -3.2e-05  1.015169  0.0  0.166566  -9e-06  1.01514  0.0  0.102566  0.162545  -4.5e-05  1.015466  0.0
H  H21  1  0.39192221  0.34216124  0.50682225  1  0.147756  -0.00041  0.935618  0.0  0.16882  -0.000474  0.991449  0.0  0.17143  -0.000238  0.990984  0.0  0.107898  0.166379  -0.00079  0.99236  -0.001
H  H22  1  0.60807339  0.65783314  0.49318103  1  0.14777  -0.000431  0.935557  0.0  0.168818  -0.000474  0.991402  0.0  0.171428  -0.000238  0.990937  0.0  0.107875  0.166378  -0.000791  0.99231  -0.001
H  H23  1  0.89868134  0.83893175  0.93112155  1  0.147667  -0.000292  0.930241  0.0  0.170062  -0.000452  0.981023  0.0  0.172209  -0.0005  0.980928  0.0  0.106489  0.168768  -0.000484  0.980737  0.0
H  H24  1  0.10132429  0.16107157  0.06886795  1  0.147747  -0.000312  0.93018  0.0  0.170112  -0.000451  0.980985  0.0  0.172259  -0.0005  0.98089  0.0  0.106561  0.168819  -0.000484  0.980698  0.0
H  H25  1  0.87951377  0.90200840  0.79553536  1  0.134785  6.8e-05  0.955159  0.0  0.152413  -4e-05  1.015524  0.0  0.15513  -3e-05  1.014258  0.0  0.09601  0.150154  -1.6e-05  1.016997  0.0
H  H26  1  0.12048584  0.09798508  0.20444967  1  0.134702  4.5e-05  0.955181  0.0  0.152322  -4e-05  1.015573  0.0  0.15504  -3e-05  1.014307  0.0  0.095957  0.150062  -1.6e-05  1.017049  0.0
H  H27  1  0.69308416  0.80002162  0.80096840  1  0.135449  -0.000664  0.933931  0.0  0.155873  -0.000528  0.990665  0.0  0.158654  -0.000101  0.989415  0.0  0.101619  0.153781  -0.000831  0.991634  -0.001
H  H28  1  0.30691821  0.19997939  0.19903040  1  0.135429  -0.000666  0.933889  0.0  0.15584  -0.000528  0.990632  0.0  0.158615  -0.000102  0.989389  0.0  0.1016  0.153749  -0.000831  0.9916  -0.001
H  H29  1  0.69658632  0.01473366  0.41761223  1  0.120796  -0.000898  0.946452  -0.001  0.139285  -0.000491  1.007882  0.0  0.142131  5.2e-05  1.006069  0.0  0.094745  0.137601  -0.000808  1.008658  0.0
H  H30  1  0.30342091  0.98525390  0.58239406  1  0.120781  -0.000896  0.946625  -0.001  0.139339  -0.000491  1.007975  0.0  0.142185  5.2e-05  1.006163  0.0  0.094777  0.137658  -0.000808  1.008752  0.0
H  H31  1  0.56129298  0.13172958  0.35482248  1  0.129346  6e-05  0.957023  0.0  0.147874  4e-06  1.016399  0.0  0.150369  -3e-06  1.015363  0.0  0.096059  0.146037  1.1e-05  1.017299  0.0
H  H32  1  0.43871384  0.86825582  0.64518034  1  0.129369  5.4e-05  0.956823  0.0  0.147822  4e-06  1.016295  0.0  0.150316  -3e-06  1.015262  0.0  0.096078  0.145997  1.1e-05  1.01718  0.0
H  H33  1  0.56980042  0.11740893  0.51223080  1  0.127545  0.000132  0.954571  0.0  0.14825  -0.000335  1.013758  0.0  0.150036  -0.000239  1.014161  0.0  0.097595  0.146965  -0.000513  1.013404  0.0
H  H34  1  0.43020100  0.88257550  0.48776695  1  0.127561  0.000131  0.954591  0.0  0.148313  -0.000335  1.013728  0.0  0.150102  -0.00024  1.014127  0.0  0.097612  0.147028  -0.000513  1.013374  0.0
C  C35  1  0.76897925  0.28554272  0.94535884  1  0.790849  2.9e-05  3.812658  0.0  0.757359  -6.7e-05  4.101027  0.0  0.791189  -1.3e-05  4.092175  0.0  0.218356  0.734198  -0.000187  4.106144  0.0
C  C36  1  0.23102664  0.71446826  0.05463676  1  0.7911  2.1e-05  3.812412  0.0  0.75759  -6.7e-05  4.100772  0.0  0.791421  -1.4e-05  4.091916  0.0  0.21844  0.734428  -0.000187  4.10589  0.0
C  C37  1  0.66661089  0.14956359  0.82598631  1  -0.453529  9.7e-05  3.648665  0.0  -0.530068  -9.7e-05  3.881062  0.0  -0.53738  -6.2e-05  3.883346  0.0  -0.237625  -0.524879  -0.000114  3.879555  0.0
C  C38  1  0.33338137  0.85044529  0.17401105  1  -0.453466  4.9e-05  3.64858  0.0  -0.529931  -9.7e-05  3.880968  0.0  -0.537255  -6.2e-05  3.883246  0.0  -0.237548  -0.524737  -0.000114  3.879461  0.0
C  C39  1  0.32577900  0.43051911  0.68658785  1  0.766284  -0.006164  3.762307  -0.002  0.724162  -0.010428  4.056814  -0.006  0.764949  -0.00576  4.043643  -0.003  0.2164  0.694201  -0.015871  4.066504  -0.009
C  C40  1  0.67421788  0.56948084  0.31341122  1  0.766252  -0.006199  3.762171  -0.002  0.724148  -0.010429  4.056647  -0.006  0.764932  -0.005762  4.043478  -0.003  0.216416  0.694188  -0.015872  4.066337  -0.009
C  C41  1  0.88521142  0.66991024  0.74038193  1  0.772409  -0.016688  3.764012  -0.011  0.728162  -0.008287  4.064639  -0.004  0.766002  -0.00343  4.055163  -0.001  0.229498  0.701323  -0.011999  4.07051  -0.007
C  C42  1  0.11478349  0.33008648  0.25961298  1  0.772235  -0.016692  3.764329  -0.011  0.728091  -0.008287  4.064814  -0.004  0.765937  -0.00343  4.055334  -0.001  0.229443  0.70125  -0.012002  4.070688  -0.007
C  C43  1  0.80237328  0.24440119  0.52210580  1  0.77475  -0.012489  3.785745  -0.008  0.736013  -0.005499  4.078097  -0.003  0.775304  0.00011  4.066976  0.001  0.224627  0.707929  -0.010045  4.08606  -0.006
C  C44  1  0.19762865  0.75559202  0.47789668  1  0.774728  -0.012467  3.785918  -0.008  0.736105  -0.005497  4.07811  -0.003  0.775394  0.00011  4.066992  0.001  0.224628  0.708021  -0.01004  4.086069  -0.006
C  C45  1  0.44312645  0.43492028  0.60540667  1  -0.46329  0.00037  3.633852  0.001  -0.538664  9.8e-05  3.86263  0.001  -0.546468  0.000168  3.862391  0.001  -0.242721  -0.533061  -1e-06  3.864303  0.001
C  C46  1  0.55687160  0.56507300  0.39459320  1  -0.463258  0.000489  3.633723  0.001  -0.538616  9.7e-05  3.862478  0.001  -0.546412  0.000167  3.862237  0.001  -0.242699  -0.533017  -1e-06  3.86415  0.001
C  C47  1  0.83776069  0.81244064  0.82187703  1  -0.461456  -0.000549  3.656594  0.0  -0.53411  -0.001424  3.883023  0.0  -0.54273  -0.001242  3.886197  0.0  -0.240278  -0.527555  -0.001734  3.880449  0.0
C  C48  1  0.16223715  0.18755720  0.17811439  1  -0.461345  -0.000475  3.656495  0.0  -0.533983  -0.001424  3.882915  0.0  -0.542597  -0.001242  3.886095  0.0  -0.240252  -0.527428  -0.001733  3.880339  0.0
C  C49  1  0.64698075  0.12023386  0.44603672  1  -0.453033  -0.00032  3.685154  0.0  -0.529557  -0.00129  3.917967  0.0  -0.537353  -0.001115  3.920247  -0.001  -0.243837  -0.523921  -0.00169  3.916348  0.0
C  C50  1  0.35302002  0.87975385  0.55396374  1  -0.453022  -0.000297  3.685338  0.0  -0.529612  -0.001291  3.918153  0.0  -0.537412  -0.001116  3.920436  -0.001  -0.243861  -0.523989  -0.00169  3.916521  0.0
O  O51  1  0.10064413  0.64021206  0.06260691  1  -0.831362  -8.2e-05  2.119685  0.0  -0.783935  -9e-05  2.374526  0.0  -0.813132  -3.4e-05  2.365287  0.0  -0.447635  -0.762566  -0.000125  2.380818  0.0
O  O52  1  0.89935703  0.35978904  0.93738629  1  -0.831124  -8.3e-05  2.119775  0.0  -0.783674  -9e-05  2.374541  0.0  -0.812869  -3.4e-05  2.365312  0.0  -0.447594  -0.762303  -0.000125  2.38083  0.0
O  O53  1  0.72341164  0.33182251  0.05038988  1  -0.667016  -0.000142  1.906107  0.0  -0.628913  -0.000162  2.121242  0.0  -0.652643  -0.000139  2.111985  0.0  -0.368927  -0.612144  -0.00019  2.1277  0.0
O  O54  1  0.27659687  0.66818280  0.94961254  1  -0.667015  -0.000132  1.906203  0.0  -0.628932  -0.000162  2.121386  0.0  -0.652662  -0.000138  2.112128  0.0  -0.368944  -0.612163  -0.00019  2.127845  0.0
O  O55  1  0.16783799  0.46156634  0.65425101  1  -0.680981  0.00215  2.23476  -0.003  -0.622292  0.005821  2.517916  0.001  -0.658261  0.004907  2.504168  0.001  -0.347775  -0.597424  0.005872  2.525653  0.001
O  O56  1  0.83216234  0.53843136  0.34574809  1  -0.681007  0.002155  2.234652  -0.003  -0.622318  0.005822  2.5178  0.001  -0.658298  0.004907  2.504077  0.001  -0.347794  -0.597455  0.005873  2.525542  0.001
O  O57  1  0.88034890  0.56246975  0.78118547  1  -0.776534  -0.00058  2.079213  0.0  -0.724478  -0.00168  2.326825  -0.001  -0.751156  -0.001015  2.314505  -0.001  -0.403493  -0.704757  -0.002124  2.335447  -0.002
O  O58  1  0.11964715  0.43753243  0.21881324  1  -0.776508  -0.000583  2.079317  0.0  -0.724502  -0.00168  2.326889  -0.001  -0.751194  -0.001016  2.314577  -0.001  -0.403508  -0.704781  -0.002124  2.335517  -0.002
O  O59  1  0.37777827  0.39505326  0.79060158  1  -0.729493  -0.003093  1.954811  -0.002  -0.679463  -0.004894  2.181325  -0.003  -0.706011  -0.003714  2.169592  -0.003  -0.372732  -0.660611  -0.006356  2.189675  -0.005
O  O60  1  0.62222215  0.60495760  0.20940714  1  -0.72942  -0.003096  1.954816  -0.002  -0.679404  -0.004895  2.181307  -0.003  -0.705951  -0.003713  2.169579  -0.003  -0.37272  -0.660557  -0.006357  2.189657  -0.005
O  O61  1  0.30436460  0.40589722  0.04284531  1  -0.886305  -9.7e-05  1.860653  0.0  -0.845377  -6.1e-05  2.037648  0.0  -0.865527  1.1e-05  2.00775  0.0  -0.638263  -0.830556  -0.000177  2.059088  0.0
O  O62  1  0.69563389  0.59411042  0.95715748  1  -0.886431  -0.000134  1.86058  0.0  -0.845468  -6.2e-05  2.037641  0.0  -0.86562  1.2e-05  2.007741  0.0  -0.638266  -0.830657  -0.000177  2.059074  0.0
O  O63  1  0.13086339  0.15812946  0.80056795  1  -0.839544  3.1e-05  1.837945  0.0  -0.802726  -0.000202  2.004955  0.0  -0.820264  -6.6e-05  1.97573  0.0  -0.598935  -0.790085  -0.00029  2.026482  0.0
O  O64  1  0.86913921  0.84187356  0.19944500  1  -0.839475  2.5e-05  1.838162  0.0  -0.802625  -0.000202  2.00507  0.0  -0.820164  -6.6e-05  1.975846  0.0  -0.598795  -0.789986  -0.00029  2.026596  0.0
O  O65  1  0.91020354  0.24445446  0.63332918  1  -0.778609  -0.001629  2.026841  -0.001  -0.731938  -0.000491  2.271565  0.0  -0.759033  0.000596  2.25707  0.001  -0.409586  -0.712291  -0.001336  2.281713  0.0
O  O66  1  0.08980483  0.75554421  0.36667376  1  -0.778608  -0.001634  2.026841  -0.001  -0.731989  -0.000491  2.271515  0.0  -0.759081  0.000597  2.257021  0.001  -0.409603  -0.712345  -0.001335  2.28166  0.0
O  O67  1  0.92287122  0.66274365  0.63605241  1  -0.584309  0.007701  2.078515  0.009  -0.529885  -0.004367  2.34729  -0.006  -0.562495  -0.003614  2.333171  -0.006  -0.283591  -0.506412  -0.004569  2.354224  -0.006
O  O68  1  0.07712881  0.33724636  0.36394325  1  -0.584229  0.007679  2.078652  0.009  -0.529837  -0.004367  2.347382  -0.006  -0.562447  -0.003613  2.333262  -0.006  -0.283512  -0.506363  -0.004569  2.354318  -0.006
O  O69  1  0.81290949  0.33879230  0.47056237  1  -0.588218  0.007243  2.107461  0.007  -0.531715  0.00084  2.378956  -0.003  -0.566473  -0.001519  2.366759  -0.005  -0.286938  -0.507441  0.00127  2.385501  -0.002
O  O70  1  0.18708810  0.66119879  0.52943670  1  -0.588227  0.007219  2.107431  0.007  -0.531742  0.000839  2.378827  -0.003  -0.566497  -0.00152  2.366625  -0.005  -0.286969  -0.507469  0.001268  2.385373  -0.002
