# generated using pymatgen
data_ZnH20C19(NO)4
_symmetry_space_group_name_H-M   'P 1'
_cell_length_a   9.14685937
_cell_length_b   9.25845249
_cell_length_c   27.50412122
_cell_angle_alpha   90.00002915
_cell_angle_beta   90.00000888
_cell_angle_gamma   116.82163295
_symmetry_Int_Tables_number   1
_chemical_formula_structural   ZnH20C19(NO)4
_chemical_formula_sum   'Zn4 H80 C76 N16 O16'
_cell_volume   2078.62090843
_cell_formula_units_Z   4
loop_
 _symmetry_equiv_pos_site_id
 _symmetry_equiv_pos_as_xyz
  1  'x, y, z'
loop_
 _atom_site_type_symbol
 _atom_site_label
 _atom_site_symmetry_multiplicity
 _atom_site_fract_x
 _atom_site_fract_y
 _atom_site_fract_z
 _atom_site_occupancy
 _atom_site_pbe_bader_charge
 _atom_site_pbe_bader_spin_density
 _atom_site_pbe_cm5_charge
 _atom_site_pbe_ddec_charge
 _atom_site_pbe_ddec_spin_density
 _atom_site_pbe_ddec_sum_bond_order
 _atom_site_pbe_magmom
Zn  Zn0  1  0.68319707  0.67372836  0.07592361  1  1.256845  0  0.687236  0.77837  0  2.396436  0
Zn  Zn1  1  0.81680478  0.32627224  0.57592392  1  1.256695  0  0.687216  0.778326  0  2.396449  0
Zn  Zn2  1  0.31680376  0.32627295  0.92407573  1  1.256739  0  0.687215  0.778329  0  2.396508  0
Zn  Zn3  1  0.18319825  0.67372906  0.42407615  1  1.256842  0  0.687224  0.77834  0  2.396471  0
H  H4  1  0.17558039  0.22647123  0.09518940  1  0.037238  0  0.091033  0.09984  0  1.015871  0
H  H5  1  0.32442333  0.77353007  0.59518942  1  0.037233  0  0.091013  0.099832  0  1.015869  0
H  H6  1  0.82442483  0.77353008  0.90481067  1  0.037253  0  0.091014  0.099854  0  1.015836  0
H  H7  1  0.67558079  0.22647124  0.40481064  1  0.037232  0  0.091035  0.09981  0  1.015881  0
H  H8  1  0.18175581  0.32051519  0.03891675  1  0.040303  0  0.093383  0.115192  0  1.009162  0
H  H9  1  0.31824618  0.67948236  0.53891676  1  0.040325  0  0.093395  0.115236  0  1.009099  0
H  H10  1  0.81824721  0.67948370  0.96108332  1  0.040324  0  0.093391  0.115243  0  1.009101  0
H  H11  1  0.68175629  0.32051531  0.46108331  1  0.040308  0  0.093393  0.115194  0  1.009136  0
H  H12  1  0.92002110  0.25679778  0.08351189  1  0.028436  0  0.081929  0.067195  0  1.021035  0
H  H13  1  0.57998076  0.74320284  0.58351300  1  0.028419  0  0.08192  0.067243  0  1.021018  0
H  H14  1  0.07998082  0.74320111  0.91648672  1  0.028419  0  0.081912  0.06723  0  1.021039  0
H  H15  1  0.42002116  0.25679605  0.41648816  1  0.028439  0  0.08194  0.06723  0  1.020991  0
H  H16  1  0.03125620  0.37471552  0.13337277  1  0.057004  0  0.08318  0.073485  0  1.007435  0
H  H17  1  0.46874427  0.62528103  0.63337351  1  0.056863  0  0.083174  0.073467  0  1.007487  0
H  H18  1  0.96874352  0.62528095  0.86662729  1  0.05689  0  0.08319  0.073495  0  1.007479  0
H  H19  1  0.53125545  0.37471544  0.36662692  1  0.056997  0  0.083143  0.073427  0  1.007501  0
H  H20  1  0.05625836  0.51074327  0.03039367  1  0.054231  0  0.09555  0.110278  0  1.010292  0
H  H21  1  0.44374143  0.48925668  0.53039366  1  0.054201  0  0.095549  0.110284  0  1.010255  0
H  H22  1  0.94374138  0.48925562  0.96960639  1  0.054199  0  0.095555  0.11028  0  1.010277  0
H  H23  1  0.55625776  0.51074341  0.46960605  1  0.054237  0  0.095546  0.110283  0  1.010283  0
H  H24  1  0.14785662  0.62108270  0.08302362  1  0.036744  0  0.094569  0.104568  0  1.020653  0
H  H25  1  0.35214489  0.37891616  0.58302394  1  0.036747  0  0.094562  0.104561  0  1.020669  0
H  H26  1  0.85214585  0.37891740  0.91697645  1  0.036769  0  0.094564  0.104559  0  1.020705  0
H  H27  1  0.64785704  0.62108273  0.41697613  1  0.036729  0  0.094567  0.104583  0  1.020671  0
H  H28  1  0.43930712  0.68096866  0.98978010  1  0.169813  0  0.143589  0.1199  0  0.984539  0
H  H29  1  0.06069553  0.31903229  0.48978008  1  0.169796  0  0.143572  0.119881  0  0.984532  0
H  H30  1  0.56069590  0.31903265  0.01021996  1  0.169783  0  0.143592  0.119899  0  0.984538  0
H  H31  1  0.93930695  0.68096781  0.51021998  1  0.169809  0  0.143591  0.119906  0  0.984536  0
H  H32  1  0.90883817  0.03584380  0.03145059  1  0.132866  0  0.119745  0.114301  0  1.019468  0
H  H33  1  0.59116089  0.96415792  0.53145100  1  0.132828  0  0.119738  0.1143  0  1.019443  0
H  H34  1  0.09116432  0.96416114  0.96854912  1  0.133649  0  0.119724  0.114228  0  1.019474  0
H  H35  1  0.40883831  0.03584460  0.46854943  1  0.132896  0  0.119753  0.11431  0  1.019455  0
H  H36  1  0.81084683  0.14575857  0.95076446  1  0.166496  0  0.119117  0.12344  0  1.054012  0
H  H37  1  0.68915174  0.85424405  0.45076454  1  0.16657  0  0.119108  0.123425  0  1.054087  0
H  H38  1  0.18915128  0.85424636  0.04923525  1  0.166631  0  0.119119  0.123453  0  1.05403  0
H  H39  1  0.31084637  0.14575847  0.54923553  1  0.166514  0  0.119118  0.123445  0  1.054013  0
H  H40  1  0.46177043  0.02103196  0.92360996  1  0.059132  0  0.108678  0.095561  0  1.003917  0
H  H41  1  0.03822939  0.97897005  0.42360933  1  0.059146  0  0.108692  0.09559  0  1.003863  0
H  H42  1  0.53822768  0.97897055  0.07639083  1  0.059163  0  0.108706  0.095599  0  1.003872  0
H  H43  1  0.96176871  0.02103004  0.57639001  1  0.059115  0  0.108671  0.095567  0  1.003882  0
H  H44  1  0.37726775  0.80556193  0.91914924  1  0.117674  0  0.119201  0.118132  0  1.003555  0
H  H45  1  0.12273042  0.19443885  0.41914848  1  0.117671  0  0.119215  0.118135  0  1.003589  0
H  H46  1  0.62273091  0.19443937  0.08085155  1  0.117669  0  0.119212  0.118132  0  1.003591  0
H  H47  1  0.87726712  0.80556003  0.58085086  1  0.117652  0  0.119214  0.118149  0  1.003538  0
H  H48  1  0.68647144  0.19674316  0.86800741  1  0.106166  0  0.101819  0.109024  0  1.040566  0
H  H49  1  0.81352591  0.80325686  0.36800748  1  0.106195  0  0.101814  0.109049  0  1.040529  0
H  H50  1  0.31352447  0.80325693  0.13199266  1  0.106185  0  0.101819  0.109068  0  1.040505  0
H  H51  1  0.18647219  0.19674323  0.63199258  1  0.106174  0  0.101815  0.109035  0  1.040572  0
H  H52  1  0.83619474  0.21975241  0.79142471  1  0.097145  0  0.106242  0.11262  0  0.979065  0
H  H53  1  0.66380086  0.78024865  0.29142441  1  0.097126  0  0.106254  0.112603  0  0.979059  0
H  H54  1  0.16380172  0.78024889  0.20857572  1  0.097136  0  0.10626  0.112629  0  0.979044  0
H  H55  1  0.33619451  0.21975265  0.70857529  1  0.097144  0  0.106243  0.112625  0  0.979043  0
H  H56  1  0.62966584  0.69948399  0.78337395  1  0.074605  0  0.103559  0.107448  0  0.992448  0
H  H57  1  0.87033523  0.30051706  0.28337322  1  0.074586  0  0.103551  0.107425  0  0.992435  0
H  H58  1  0.37033336  0.30051611  0.21662684  1  0.074578  0  0.103555  0.107426  0  0.992457  0
H  H59  1  0.12966506  0.69948304  0.71662612  1  0.074602  0  0.103549  0.107443  0  0.992433  0
H  H60  1  0.47979548  0.67663665  0.86083434  1  0.148069  0  0.108401  0.127786  0  1.025612  0
H  H61  1  0.02020369  0.32336159  0.36083359  1  0.148081  0  0.108412  0.127809  0  1.025598  0
H  H62  1  0.52020371  0.32336344  0.13916646  1  0.148095  0  0.108401  0.127801  0  1.02559  0
H  H63  1  0.97979605  0.67663730  0.63916611  1  0.148076  0  0.108404  0.127815  0  1.025585  0
H  H64  1  0.96109356  0.06198681  0.73759713  1  0.101134  0  0.115581  0.099872  0  0.995265  0
H  H65  1  0.53890469  0.93801292  0.23759685  1  0.101117  0  0.115575  0.099857  0  0.995273  0
H  H66  1  0.03890399  0.93801207  0.26240330  1  0.10111  0  0.11557  0.099862  0  0.99525  0
H  H67  1  0.46109450  0.06198717  0.76240285  1  0.101126  0  0.115579  0.099871  0  0.995264  0
H  H68  1  0.82496285  0.85803275  0.72400614  1  0.087799  0  0.115046  0.102517  0  0.971874  0
H  H69  1  0.67503594  0.14196816  0.22400573  1  0.087778  0  0.11505  0.102512  0  0.971922  0
H  H70  1  0.17503470  0.14196613  0.27599429  1  0.08779  0  0.115079  0.102572  0  0.971916  0
H  H71  1  0.32496435  0.85803193  0.77599397  1  0.087785  0  0.115044  0.102508  0  0.971867  0
H  H72  1  0.97522896  0.25174984  0.67234220  1  0.21454  0  0.13545  0.119057  0  1.0453  0
H  H73  1  0.52476920  0.74824975  0.17234152  1  0.214537  0  0.135439  0.119054  0  1.045273  0
H  H74  1  0.02476968  0.74824904  0.32765823  1  0.214532  0  0.135449  0.119089  0  1.045242  0
H  H75  1  0.47522999  0.25175034  0.82765782  1  0.214571  0  0.135444  0.119057  0  1.045275  0
H  H76  1  0.49206656  0.03657057  0.61864112  1  0.135973  0  0.119852  0.112192  0  1.017845  0
H  H77  1  0.00793336  0.96342958  0.11864158  1  0.135981  0  0.119861  0.112229  0  1.017793  0
H  H78  1  0.50793318  0.96343074  0.38135858  1  0.135986  0  0.119851  0.112208  0  1.01782  0
H  H79  1  0.99206637  0.03656931  0.88135885  1  0.135979  0  0.11986  0.112185  0  1.017832  0
H  H80  1  0.51238556  0.84486811  0.69393209  1  0.151126  0  0.12909  0.131305  0  0.99293  0
H  H81  1  0.98761318  0.15513274  0.19393207  1  0.1511  0  0.129098  0.131313  0  0.992912  0
H  H82  1  0.48761254  0.15513199  0.30606761  1  0.151012  0  0.129087  0.131298  0  0.99294  0
H  H83  1  0.01238656  0.84486856  0.80606800  1  0.15114  0  0.129066  0.131237  0  0.992987  0
C  C84  1  0.34509540  0.47471481  0.09354894  1  1.559289  0  0.198547  0.625383  0  4.168308  0
C  C85  1  0.15490612  0.52528408  0.59354964  1  1.559434  0  0.198514  0.625323  0  4.168203  0
C  C86  1  0.65490597  0.52528287  0.90645040  1  1.559441  0  0.198544  0.625324  0  4.168253  0
C  C87  1  0.84509580  0.47471481  0.40645079  1  1.559287  0  0.198522  0.625268  0  4.1684  0
C  C88  1  0.18091310  0.33701259  0.07849263  1  -0.042246  0  -0.173598  -0.301728  0  3.922882  0
C  C89  1  0.31908786  0.66298747  0.57849337  1  -0.042221  0  -0.17357  -0.301723  0  3.922767  0
C  C90  1  0.81908718  0.66298509  0.92150671  1  -0.042226  0  -0.173567  -0.301751  0  3.922757  0
C  C91  1  0.68091352  0.33701263  0.42150706  1  -0.042262  0  -0.173586  -0.301615  0  3.922898  0
C  C92  1  0.03415397  0.36296722  0.09370853  1  -0.017316  0  -0.17328  -0.103581  0  3.994453  0
C  C93  1  0.46584700  0.63703045  0.59370927  1  -0.0172  0  -0.173295  -0.103725  0  3.994514  0
C  C94  1  0.96584740  0.63703046  0.90629117  1  -0.017214  0  -0.17329  -0.103721  0  3.994536  0
C  C95  1  0.53415656  0.36296723  0.40629152  1  -0.017298  0  -0.173316  -0.103673  0  3.99457  0
C  C96  1  0.03947704  0.51361557  0.06992484  1  -0.053067  0  -0.17065  -0.292619  0  3.931432  0
C  C97  1  0.46052116  0.48638084  0.56992446  1  -0.053074  0  -0.170612  -0.292512  0  3.931286  0
C  C98  1  0.96052324  0.48638210  0.93007559  1  -0.053091  0  -0.170651  -0.292541  0  3.931376  0
C  C99  1  0.53947912  0.51361684  0.43007524  1  -0.053068  0  -0.170612  -0.292603  0  3.931387  0
C  C100  1  0.89084722  0.54170596  0.07923438  1  1.549036  0  0.192066  0.61395  0  4.172895  0
C  C101  1  0.60915408  0.45829344  0.57923434  1  1.549097  0  0.192088  0.613859  0  4.172935  0
C  C102  1  0.10915361  0.45829293  0.92076605  1  1.549089  0  0.192093  0.613873  0  4.172895  0
C  C103  1  0.39084729  0.54170424  0.42076500  1  1.548958  0  0.192159  0.614064  0  4.172871  0
C  C104  1  0.55163313  0.79306495  0.99154131  1  0.979987  0  0.151419  0.109407  0  3.897587  0
C  C105  1  0.94836768  0.20693533  0.49154129  1  0.979989  0  0.151456  0.109448  0  3.897555  0
C  C106  1  0.44836881  0.20693635  0.00845803  1  0.980073  0  0.1514  0.10938  0  3.897604  0
C  C107  1  0.05163260  0.79306476  0.50845878  1  0.979987  0  0.151395  0.109348  0  3.897604  0
C  C108  1  0.79511241  0.97873962  0.01128859  1  0.429718  0  -0.00141  -0.032532  0  4.010167  0
C  C109  1  0.70488825  0.02126084  0.51128885  1  0.429646  0  -0.001409  -0.032523  0  4.010229  0
C  C110  1  0.20488953  0.02126411  0.98871111  1  0.428955  0  -0.001432  -0.032487  0  4.010163  0
C  C111  1  0.29511258  0.97874046  0.48871122  1  0.429688  0  -0.001432  -0.032554  0  4.010187  0
C  C112  1  0.74709957  0.03488872  0.97124683  1  0.219988  0  -0.003183  -0.116776  0  3.923688  0
C  C113  1  0.75289848  0.96511273  0.47124657  1  0.220047  0  -0.003173  -0.116756  0  3.923781  0
C  C114  1  0.25290128  0.96511500  0.02875251  1  0.219952  0  -0.003135  -0.116731  0  3.923694  0
C  C115  1  0.24710017  0.03488858  0.52875277  1  0.219987  0  -0.003174  -0.116768  0  3.923688  0
C  C116  1  0.49108271  0.91941883  0.91819158  1  0.283374  0  -0.048363  -0.119821  0  3.867498  0
C  C117  1  0.00891546  0.08058196  0.41819079  1  0.283551  0  -0.048405  -0.119886  0  3.867615  0
C  C118  1  0.50891485  0.08058247  0.08180921  1  0.283557  0  -0.048392  -0.119875  0  3.867603  0
C  C119  1  0.99108264  0.91941814  0.58180855  1  0.283385  0  -0.048387  -0.119887  0  3.867531  0
C  C120  1  0.57684710  0.93453514  0.87019623  1  -0.004641  0  -0.011281  0.091542  0  3.959374  0
C  C121  1  0.92315080  0.06546609  0.37019582  1  -0.00465  0  -0.011286  0.091525  0  3.959548  0
C  C122  1  0.42315264  0.06546617  0.12980456  1  -0.004715  0  -0.011307  0.091562  0  3.959484  0
C  C123  1  0.07684730  0.93453400  0.62980352  1  -0.004633  0  -0.011238  0.091647  0  3.959355  0
C  C124  1  0.67582229  0.08713290  0.85008136  1  -0.088209  0  -0.091925  -0.14291  0  3.989255  0
C  C125  1  0.82417339  0.91286828  0.35008109  1  -0.088303  0  -0.091942  -0.143026  0  3.989387  0
C  C126  1  0.32417308  0.91286840  0.14991907  1  -0.088292  0  -0.091941  -0.143035  0  3.989376  0
C  C127  1  0.17582416  0.08713302  0.64991861  1  -0.088251  0  -0.091902  -0.142961  0  3.989315  0
C  C128  1  0.75855363  0.10017589  0.80649153  1  -0.085924  0  -0.09356  -0.133532  0  3.996776  0
C  C129  1  0.74144198  0.89982278  0.30649126  1  -0.085835  0  -0.093595  -0.133463  0  3.996629  0
C  C130  1  0.24144228  0.89982420  0.19350854  1  -0.085795  0  -0.093575  -0.13355  0  3.996696  0
C  C131  1  0.25855338  0.10017610  0.69350845  1  -0.085863  0  -0.093583  -0.133535  0  3.996786  0
C  C132  1  0.74296516  0.96094367  0.78214180  1  -0.039605  0  -0.018671  0.066108  0  4.033546  0
C  C133  1  0.75703262  0.03905737  0.28214138  1  -0.039573  0  -0.018665  0.066075  0  4.033435  0
C  C134  1  0.25703131  0.03905763  0.21785863  1  -0.039615  0  -0.018743  0.066161  0  4.033521  0
C  C135  1  0.24296548  0.96094272  0.71785796  1  -0.039488  0  -0.018651  0.06615  0  4.033541  0
C  C136  1  0.64281252  0.80887706  0.80203226  1  -0.090624  0  -0.093129  -0.142215  0  3.999913  0
C  C137  1  0.85718582  0.19112281  0.30203187  1  -0.090626  0  -0.093114  -0.14217  0  3.999899  0
C  C138  1  0.35718448  0.19112303  0.19796854  1  -0.090573  0  -0.093103  -0.142207  0  3.999937  0
C  C139  1  0.14281227  0.80887728  0.69796784  1  -0.090627  0  -0.093121  -0.142224  0  3.999912  0
C  C140  1  0.55988564  0.79519152  0.84573879  1  -0.050172  0  -0.083477  -0.112953  0  3.934407  0
C  C141  1  0.94011441  0.20480966  0.34573841  1  -0.050171  0  -0.083464  -0.112936  0  3.9344  0
C  C142  1  0.44011301  0.20480979  0.15426200  1  -0.050163  0  -0.083456  -0.11295  0  3.934356  0
C  C143  1  0.05988533  0.79519164  0.65426129  1  -0.050173  0  -0.083482  -0.11298  0  3.934421  0
C  C144  1  0.83106861  0.97502247  0.73471691  1  0.267689  0  -0.045209  -0.119901  0  3.922911  0
C  C145  1  0.66892964  0.02497726  0.23471612  1  0.267705  0  -0.045206  -0.119884  0  3.922994  0
C  C146  1  0.16892949  0.02497762  0.26528316  1  0.267659  0  -0.045166  -0.119926  0  3.922999  0
C  C147  1  0.33106900  0.97502162  0.76528250  1  0.267609  0  -0.045228  -0.119916  0  3.922962  0
C  C148  1  0.84640800  0.16747388  0.66843913  1  0.963377  0  0.142563  0.083076  0  3.905604  0
C  C149  1  0.65359180  0.83252692  0.16843885  1  0.963396  0  0.1426  0.083088  0  3.905656  0
C  C150  1  0.15359119  0.83252622  0.33156130  1  0.963313  0  0.142578  0.083063  0  3.905623  0
C  C151  1  0.34640739  0.16747317  0.83156086  1  0.963423  0  0.142574  0.083091  0  3.905593  0
C  C152  1  0.59523721  0.05172343  0.64115230  1  0.434955  0  0.002011  -0.025125  0  3.987244  0
C  C153  1  0.90476310  0.94827852  0.14115241  1  0.434793  0  0.00201  -0.025157  0  3.987222  0
C  C154  1  0.40476253  0.94827788  0.35884741  1  0.4348  0  0.00205  -0.025088  0  3.987263  0
C  C155  1  0.09523774  0.05172278  0.85884766  1  0.434826  0  0.00206  -0.025047  0  3.987281  0
C  C156  1  0.60318495  0.95697381  0.67843552  1  0.237289  0  0.005186  -0.09805  0  3.90586  0
C  C157  1  0.89681705  0.04302702  0.17843583  1  0.237421  0  0.005189  -0.098049  0  3.905769  0
C  C158  1  0.39681534  0.04302629  0.32156419  1  0.237533  0  0.005194  -0.098049  0  3.905893  0
C  C159  1  0.10318433  0.95697308  0.82156460  1  0.237395  0  0.005154  -0.097998  0  3.905936  0
N  N160  1  0.67222889  0.82797894  0.02365436  1  -1.242939  0  -0.35996  -0.303508  0  3.596618  0
N  N161  1  0.82777179  0.17202155  0.52365429  1  -1.242942  0  -0.359957  -0.303537  0  3.596669  0
N  N162  1  0.32777250  0.17202358  0.97634534  1  -1.243086  0  -0.359888  -0.30344  0  3.596732  0
N  N163  1  0.17223014  0.82797976  0.47634578  1  -1.242923  0  -0.359921  -0.303445  0  3.596594  0
N  N164  1  0.59223467  0.91596737  0.95933233  1  -1.213859  0  -0.238219  0.048777  0  3.754246  0
N  N165  1  0.90776446  0.08403406  0.45933192  1  -1.213996  0  -0.238224  0.048808  0  3.754199  0
N  N166  1  0.40776509  0.08403636  0.04066774  1  -1.213998  0  -0.238295  0.048724  0  3.754207  0
N  N167  1  0.09223473  0.91596604  0.54066778  1  -1.213862  0  -0.238246  0.048776  0  3.754249  0
N  N168  1  0.74773860  0.18201229  0.63521102  1  -1.257055  0  -0.357672  -0.284166  0  3.60832  0
N  N169  1  0.75226225  0.81798844  0.13521110  1  -1.25705  0  -0.357697  -0.284202  0  3.608397  0
N  N170  1  0.25226169  0.81798780  0.36478904  1  -1.256993  0  -0.357716  -0.284235  0  3.608442  0
N  N171  1  0.24773859  0.18201287  0.86478897  1  -1.257083  0  -0.357682  -0.284195  0  3.608335  0
N  N172  1  0.76284261  0.03200525  0.69518602  1  -1.242559  0  -0.239467  0.048637  0  3.775019  0
N  N173  1  0.73715668  0.96799440  0.19518576  1  -1.242542  0  -0.239464  0.048683  0  3.775017  0
N  N174  1  0.23715603  0.96799363  0.30481405  1  -1.242529  0  -0.239468  0.048664  0  3.775035  0
N  N175  1  0.26284415  0.03200449  0.80481394  1  -1.242583  0  -0.239462  0.048577  0  3.775048  0
O  O176  1  0.46747198  0.49127192  0.06618832  1  -1.179042  0  -0.340567  -0.57474  0  2.358036  0
O  O177  1  0.03252898  0.50873295  0.56618974  1  -1.178988  0  -0.340535  -0.574713  0  2.358058  0
O  O178  1  0.53252668  0.50873180  0.93381066  1  -1.179054  0  -0.340554  -0.57474  0  2.357992  0
O  O179  1  0.96747296  0.49127078  0.43381106  1  -1.179034  0  -0.340565  -0.574676  0  2.358053  0
O  O180  1  0.35524848  0.56045939  0.12981333  1  -1.206837  0  -0.338662  -0.578859  0  2.128232  0
O  O181  1  0.14475307  0.43953474  0.62981293  1  -1.206905  0  -0.338657  -0.578803  0  2.128143  0
O  O182  1  0.64475287  0.43953345  0.87018710  1  -1.206949  0  -0.338651  -0.578769  0  2.128198  0
O  O183  1  0.85524883  0.56045931  0.37018641  1  -1.206849  0  -0.338636  -0.578808  0  2.128242  0
O  O184  1  0.88653838  0.66084486  0.05506892  1  -1.182706  0  -0.350622  -0.576999  0  2.253883  0
O  O185  1  0.61346344  0.33915570  0.55506813  1  -1.18272  0  -0.350608  -0.576921  0  2.253874  0
O  O186  1  0.11346245  0.33915403  0.94493188  1  -1.182747  0  -0.350632  -0.576935  0  2.253815  0
O  O187  1  0.38653738  0.66084319  0.44493048  1  -1.182663  0  -0.35067  -0.577079  0  2.253964  0
O  O188  1  0.78092425  0.45512399  0.10837145  1  -1.20126  0  -0.331139  -0.568965  0  2.138602  0
O  O189  1  0.71907819  0.54487547  0.60837144  1  -1.201275  0  -0.331182  -0.56896  0  2.138628  0
O  O190  1  0.21907822  0.54487611  0.89162861  1  -1.201272  0  -0.331153  -0.568936  0  2.138615  0
O  O191  1  0.28092428  0.45512221  0.39162754  1  -1.201211  0  -0.331185  -0.568996  0  2.138591  0
