# generated using pymatgen
data_CuH9C11SN3Cl2O
_symmetry_space_group_name_H-M   'P 1'
_cell_length_a   6.49136164
_cell_length_b   12.64579094
_cell_length_c   15.23930179
_cell_angle_alpha   90.00026522
_cell_angle_beta   91.08551831
_cell_angle_gamma   90.00013605
_symmetry_Int_Tables_number   1
_chemical_formula_structural   CuH9C11SN3Cl2O
_chemical_formula_sum   'Cu4 H36 C44 S4 N12 Cl8 O4'
_cell_volume   1250.74542642
_cell_formula_units_Z   4
loop_
 _symmetry_equiv_pos_site_id
 _symmetry_equiv_pos_as_xyz
  1  'x, y, z'
loop_
 _atom_site_type_symbol
 _atom_site_label
 _atom_site_symmetry_multiplicity
 _atom_site_fract_x
 _atom_site_fract_y
 _atom_site_fract_z
 _atom_site_occupancy
 _atom_site_pbe_bader_charge
 _atom_site_pbe_bader_spin_density
 _atom_site_pbe_cm5_charge
 _atom_site_pbe_ddec_charge
 _atom_site_pbe_ddec_spin_density
 _atom_site_pbe_ddec_sum_bond_order
 _atom_site_pbe_magmom
Cu  Cu0  1  0.74156384  0.93877526  0.00150573  1  0.911535  -0.48714  0.515333  0.698927  -0.629977  2.381265  -0.489
Cu  Cu1  1  0.75844612  0.43878028  0.49849245  1  0.911656  -0.487124  0.51537  0.69896  -0.629948  2.381131  -0.489
Cu  Cu2  1  0.25846666  0.06122970  0.99849663  1  0.911601  0.487183  0.515376  0.698957  0.630013  2.381148  0.489
Cu  Cu3  1  0.24154743  0.56122626  0.50150432  1  0.911587  0.487188  0.515364  0.69894  0.630011  2.381215  0.489
H  H4  1  0.89552834  0.76057161  0.35650985  1  0.140394  7e-06  0.109803  0.144843  7e-06  1.011932  0.0
H  H5  1  0.60445453  0.26056415  0.14349200  1  0.140302  7e-06  0.10984  0.1449  7e-06  1.011835  0.0
H  H6  1  0.10445907  0.23944837  0.64348293  1  0.140225  -7e-06  0.109823  0.144905  -7e-06  1.012043  0.0
H  H7  1  0.39552664  0.73944081  0.85651384  1  0.14032  -7e-06  0.109788  0.144866  -7e-06  1.011886  0.0
H  H8  1  0.63291570  0.75639762  0.31587268  1  0.128855  0.00024  0.099945  0.127617  0.000114  0.977917  0.0
H  H9  1  0.86707180  0.25639149  0.18412395  1  0.128975  0.00024  0.099841  0.127496  0.000114  0.977966  0.0
H  H10  1  0.36707327  0.24361208  0.68411683  1  0.128829  -0.000239  0.09988  0.127502  -0.000114  0.978092  0.0
H  H11  1  0.13291403  0.74360476  0.81587604  1  0.128821  -0.00024  0.099942  0.127625  -0.000114  0.97793  0.0
H  H12  1  0.00263400  0.62032257  0.26431822  1  0.130451  4.9e-05  0.110355  0.107977  -5.8e-05  1.000516  0.0
H  H13  1  0.49735408  0.12031847  0.23568710  1  0.130352  4.8e-05  0.110325  0.107933  -5.8e-05  1.000519  0.0
H  H14  1  0.99736413  0.37968792  0.73568450  1  0.130292  -4.8e-05  0.110302  0.107928  5.8e-05  1.000571  0.0
H  H15  1  0.50262710  0.87968490  0.76431875  1  0.130316  -4.8e-05  0.110313  0.107918  5.8e-05  1.000621  0.0
H  H16  1  0.73998724  0.58176950  0.27501782  1  0.146998  0.001389  0.103822  0.108556  0.001445  1.031542  0.0
H  H17  1  0.76000245  0.08176427  0.22498539  1  0.14695  0.001389  0.103799  0.108469  0.001445  1.031561  0.0
H  H18  1  0.26001091  0.41824178  0.72498162  1  0.146862  -0.001389  0.103856  0.108563  -0.001445  1.031732  0.0
H  H19  1  0.23997719  0.91823673  0.77501913  1  0.146903  -0.001389  0.103856  0.108614  -0.001446  1.031725  0.0
H  H20  1  0.77640305  0.40184426  0.07164162  1  0.095819  -1e-05  0.100205  0.096845  -2.4e-05  1.044303  0.0
H  H21  1  0.72362057  0.90185034  0.42836113  1  0.095933  -1e-05  0.100151  0.096794  -2.4e-05  1.044102  0.0
H  H22  1  0.22362130  0.59815279  0.92835740  1  0.095807  1e-05  0.10016  0.096813  2.4e-05  1.044221  0.0
H  H23  1  0.27639144  0.09815066  0.57164106  1  0.095828  1e-05  0.100173  0.096808  2.4e-05  1.044304  0.0
H  H24  1  0.73592919  0.23912707  0.98093264  1  0.080556  -0.000208  0.091702  0.10578  -0.000149  1.022861  0.0
H  H25  1  0.76407829  0.73913403  0.51907286  1  0.080718  -0.000208  0.091732  0.105813  -0.000149  1.022854  0.0
H  H26  1  0.26408436  0.76086840  0.01907023  1  0.080636  0.000208  0.09177  0.105908  0.000149  1.022691  0.0
H  H27  1  0.23591523  0.26086776  0.48092917  1  0.080749  0.000209  0.091749  0.105888  0.00015  1.022688  0.0
H  H28  1  0.67574889  0.25394969  0.81992215  1  0.082548  -6e-05  0.093552  0.097998  -2.3e-05  1.012757  0.0
H  H29  1  0.82424786  0.75396239  0.68008462  1  0.082534  -6e-05  0.093548  0.098022  -2.3e-05  1.012522  0.0
H  H30  1  0.32427235  0.74604182  0.18008144  1  0.082496  6.1e-05  0.09348  0.09796  2.3e-05  1.012508  0.0
H  H31  1  0.17571946  0.24603782  0.31991848  1  0.082618  6.1e-05  0.093497  0.098017  2.3e-05  1.012443  0.0
H  H32  1  0.65945951  0.43303990  0.74973662  1  0.059117  0.00032  0.088452  0.100354  0.000371  1.040255  0.0
H  H33  1  0.84054430  0.93305302  0.75026759  1  0.058988  0.000319  0.08842  0.100357  0.000371  1.04019  0.0
H  H34  1  0.34057410  0.56694766  0.25026117  1  0.059166  -0.000319  0.088382  0.100368  -0.000371  1.040242  0.0
H  H35  1  0.15941838  0.06694245  0.24973808  1  0.059078  -0.000319  0.088406  0.100361  -0.000371  1.040191  0.0
H  H36  1  0.70486115  0.59373713  0.84044082  1  0.103038  2.9e-05  0.096005  0.102196  4.6e-05  1.068607  0.0
H  H37  1  0.79513947  0.09374896  0.65956275  1  0.102803  3e-05  0.095979  0.102151  4.6e-05  1.068613  0.0
H  H38  1  0.29517094  0.40625280  0.15955237  1  0.102898  -2.9e-05  0.096008  0.102073  -4.6e-05  1.068725  0.0
H  H39  1  0.20483090  0.90624888  0.34044628  1  0.102809  -2.9e-05  0.095991  0.102023  -4.6e-05  1.068766  0.0
C  C40  1  0.79565056  0.74938427  0.29861599  1  -0.165668  0.000905  -0.140392  -0.205979  0.000714  3.833285  0.0
C  C41  1  0.70433843  0.24938200  0.20138456  1  -0.165627  0.000905  -0.140356  -0.205921  0.000714  3.833194  0.0
C  C42  1  0.20433994  0.25062148  0.70137616  1  -0.165636  -0.000905  -0.140361  -0.205904  -0.000714  3.833458  0.0
C  C43  1  0.29564892  0.75061821  0.79861937  1  -0.165827  -0.000905  -0.140452  -0.206044  -0.000714  3.83329  0.0
C  C44  1  0.84214119  0.64514790  0.25354674  1  0.220125  0.001961  -0.05315  -0.086791  0.001366  3.855724  0.001
C  C45  1  0.65785188  0.14514425  0.24645806  1  0.22012  0.001959  -0.053079  -0.086594  0.001365  3.855593  0.001
C  C46  1  0.15786160  0.35485942  0.74645012  1  0.22027  -0.001961  -0.053121  -0.086783  -0.001367  3.855826  -0.001
C  C47  1  0.34213083  0.85485675  0.75354781  1  0.220484  -0.001963  -0.053079  -0.086834  -0.001368  3.855931  -0.001
C  C48  1  0.81310817  0.76658479  0.13327413  1  0.975047  0.001759  0.255105  0.242184  0.000455  4.083475  0.002
C  C49  1  0.68689476  0.26658739  0.36672858  1  0.975214  0.00176  0.255081  0.242189  0.000455  4.083518  0.002
C  C50  1  0.18690851  0.23341305  0.86672088  1  0.975913  -0.00176  0.255158  0.24221  -0.000455  4.083192  -0.002
C  C51  1  0.31309720  0.73341361  0.63327605  1  0.976298  -0.00176  0.255172  0.242165  -0.000455  4.083466  -0.002
C  C52  1  0.74953636  0.71299544  0.98764305  1  1.344549  -0.000315  0.232059  0.446209  -0.000703  4.104923  0.0
C  C53  1  0.75046178  0.21300243  0.51235767  1  1.34491  -0.000316  0.231927  0.445805  -0.000703  4.105353  0.0
C  C54  1  0.25047726  0.28700003  0.01234866  1  1.344469  0.000316  0.232098  0.446084  0.000703  4.105183  0.0
C  C55  1  0.24953018  0.78700016  0.48764762  1  1.34448  0.000316  0.23193  0.44592  0.000703  4.10521  0.0
C  C56  1  0.76223678  0.60251087  0.02038716  1  0.526033  -0.003627  0.137396  0.047732  -0.00265  3.923591  -0.003
C  C57  1  0.73776533  0.10251892  0.47961756  1  0.526399  -0.003626  0.137558  0.048131  -0.002649  3.923487  -0.003
C  C58  1  0.23777987  0.39748222  0.97961114  1  0.526076  0.003625  0.137518  0.047871  0.002648  3.92377  0.003
C  C59  1  0.26222509  0.89748208  0.52038771  1  0.526027  0.003625  0.137522  0.04787  0.002648  3.923757  0.003
C  C60  1  0.74088846  0.50918842  0.96283240  1  0.004034  -0.001137  -0.009483  0.05218  -0.000809  3.97903  -0.001
C  C61  1  0.75911637  0.00919793  0.53716958  1  0.00383  -0.001137  -0.009529  0.051925  -0.000809  3.979327  -0.001
C  C62  1  0.25913437  0.49080546  0.03716333  1  0.003854  0.001137  -0.00959  0.051935  0.000809  3.979245  0.001
C  C63  1  0.24087560  0.99080307  0.46283505  1  0.003875  0.001137  -0.009532  0.052038  0.000809  3.979202  0.001
C  C64  1  0.75033391  0.40774403  0.00109703  1  -0.078198  -0.000219  -0.090869  -0.121931  -0.000167  3.963834  0.0
C  C65  1  0.74967894  0.90775134  0.49890762  1  -0.078225  -0.000219  -0.090829  -0.121704  -0.000167  3.963587  0.0
C  C66  1  0.24968274  0.59225144  0.99890192  1  -0.078236  0.000219  -0.090869  -0.121793  0.000167  3.963787  0.0
C  C67  1  0.25032073  0.09225045  0.50109708  1  -0.078224  0.000219  -0.090912  -0.121858  0.000167  3.963948  0.0
C  C68  1  0.72732317  0.31702483  0.95025844  1  -0.047951  -0.000286  -0.102656  -0.087513  -0.000195  3.996308  0.0
C  C69  1  0.77268160  0.81703356  0.54974798  1  -0.047777  -0.000286  -0.102683  -0.087687  -0.000195  3.996424  0.0
C  C70  1  0.27269500  0.68296668  0.04974315  1  -0.047737  0.000286  -0.10268  -0.087766  0.000195  3.996535  0.0
C  C71  1  0.22730730  0.18296427  0.45025466  1  -0.047737  0.000286  -0.102658  -0.08773  0.000195  3.996439  0.0
C  C72  1  0.69382114  0.32544158  0.85943849  1  -0.121912  0.000367  -0.098444  -0.085893  0.000216  3.989204  0.0
C  C73  1  0.80618214  0.82545483  0.64056729  1  -0.121672  0.000367  -0.098536  -0.085925  0.000216  3.989089  0.0
C  C74  1  0.30620166  0.67454677  0.14056248  1  -0.121668  -0.000367  -0.098472  -0.085822  -0.000216  3.989045  0.0
C  C75  1  0.19379597  0.17454222  0.35943591  1  -0.12186  -0.000367  -0.098528  -0.08597  -0.000216  3.989086  0.0
C  C76  1  0.68599762  0.42526282  0.82045478  1  -0.021775  2e-05  -0.099223  -0.085684  0.000115  4.002677  0.0
C  C77  1  0.81400615  0.92527630  0.67955006  1  -0.021993  2e-05  -0.09908  -0.085596  0.000114  4.002461  0.0
C  C78  1  0.31403136  0.57472473  0.17954428  1  -0.02209  -2e-05  -0.099118  -0.085918  -0.000115  4.002488  0.0
C  C79  1  0.18596424  0.07471917  0.32045438  1  -0.02224  -2e-05  -0.099104  -0.085827  -0.000115  4.002542  0.0
C  C80  1  0.71042422  0.51643166  0.87134060  1  0.004034  0.000523  -0.090687  -0.116616  0.000397  3.933728  0.0
C  C81  1  0.78957602  0.01644331  0.62866268  1  0.004267  0.000523  -0.090643  -0.116485  0.000397  3.933556  0.0
C  C82  1  0.28960016  0.48355748  0.12865514  1  0.004179  -0.000522  -0.090617  -0.116185  -0.000396  3.933537  0.0
C  C83  1  0.21040207  0.98355453  0.37134314  1  0.004446  -0.000522  -0.09059  -0.116139  -0.000396  3.93348  0.0
S  S84  1  0.85653928  0.85341237  0.21931829  1  0.220705  0.003553  0.089256  0.087896  0.002819  2.656034  0.001
S  S85  1  0.64346102  0.35341127  0.28067948  1  0.220517  0.003551  0.089252  0.087867  0.002818  2.655906  0.001
S  S86  1  0.14345588  0.14659496  0.78066669  1  0.220803  -0.003547  0.089263  0.08789  -0.002817  2.655955  -0.001
S  S87  1  0.35654481  0.64659132  0.71932528  1  0.220666  -0.00355  0.089281  0.08795  -0.002818  2.656037  -0.001
N  N88  1  0.78641588  0.58280655  0.10485483  1  -0.616644  -0.001117  -0.166263  -0.158051  -0.000732  3.274217  -0.001
N  N89  1  0.71357998  0.08280934  0.39514845  1  -0.61728  -0.001116  -0.166369  -0.158223  -0.000731  3.274167  -0.001
N  N90  1  0.21359923  0.41719208  0.89514411  1  -0.61662  0.001116  -0.166204  -0.158021  0.000731  3.27414  0.001
N  N91  1  0.28640890  0.91719245  0.60485550  1  -0.616642  0.001116  -0.166279  -0.158109  0.000731  3.274243  0.001
N  N92  1  0.80669870  0.66407407  0.15958301  1  -0.769184  -0.003194  -0.120698  0.122947  -0.002008  3.746531  -0.003
N  N93  1  0.69329909  0.16407574  0.34042059  1  -0.768618  -0.003195  -0.120628  0.122981  -0.002009  3.746568  -0.003
N  N94  1  0.19331642  0.33592614  0.84041331  1  -0.768783  0.003196  -0.120778  0.12295  0.002009  3.746466  0.003
N  N95  1  0.30668670  0.83592526  0.65958530  1  -0.769087  0.003195  -0.120716  0.12307  0.002008  3.746554  0.003
N  N96  1  0.78673554  0.79234726  0.04977408  1  -1.17118  -0.06524  -0.363082  -0.410045  -0.043672  3.584482  -0.056
N  N97  1  0.71327061  0.29235195  0.45022614  1  -1.171754  -0.065243  -0.363105  -0.409975  -0.043674  3.584479  -0.056
N  N98  1  0.21329040  0.20765058  0.95021708  1  -1.172325  0.06524  -0.363166  -0.410044  0.04367  3.584616  0.056
N  N99  1  0.28671981  0.70765063  0.54977914  1  -1.17236  0.065241  -0.363146  -0.410011  0.04367  3.584554  0.056
Cl  Cl100  1  0.44671294  0.95247713  0.09046262  1  -0.49693  -0.037109  -0.242405  -0.417342  -0.024555  1.536941  -0.029
Cl  Cl101  1  0.05329683  0.45247507  0.40953693  1  -0.497016  -0.037132  -0.242434  -0.417347  -0.024569  1.536919  -0.029
Cl  Cl102  1  0.55329446  0.04752150  0.90953822  1  -0.497008  0.037138  -0.242412  -0.417316  0.024568  1.536921  0.029
Cl  Cl103  1  0.94670750  0.54752830  0.59045994  1  -0.497028  0.037124  -0.242415  -0.417326  0.02456  1.536959  0.029
Cl  Cl104  1  0.02170634  0.93395289  0.91051939  1  -0.553009  -0.130024  -0.26803  -0.464647  -0.084501  1.461051  -0.102
Cl  Cl105  1  0.47828498  0.43395663  0.58947226  1  -0.553004  -0.130027  -0.268022  -0.464636  -0.084503  1.461052  -0.102
Cl  Cl106  1  0.97825961  0.06605760  0.08945483  1  -0.553047  0.12996  -0.268032  -0.46461  0.084455  1.46107  0.102
Cl  Cl107  1  0.52173470  0.56605781  0.41053590  1  -0.553013  0.129969  -0.268017  -0.464642  0.084461  1.46114  0.102
O  O108  1  0.70433913  0.73814981  0.91114189  1  -1.131388  -0.001175  -0.277608  -0.449773  -0.000635  2.196956  -0.001
O  O109  1  0.79565450  0.23816045  0.58885888  1  -1.131461  -0.001174  -0.277526  -0.449614  -0.000635  2.19717  -0.001
O  O110  1  0.29566214  0.26184012  0.08885233  1  -1.13123  0.001168  -0.277656  -0.449751  0.000631  2.19691  0.001
O  O111  1  0.20433284  0.76184055  0.41114571  1  -1.131323  0.001169  -0.277559  -0.44965  0.000631  2.196987  0.001
