# generated using pymatgen
data_Cr2Ag2H32C20N8O7
_symmetry_space_group_name_H-M   'P 1'
_cell_length_a   8.64095449
_cell_length_b   10.81423563
_cell_length_c   17.44318093
_cell_angle_alpha   96.61572685
_cell_angle_beta   104.11949070
_cell_angle_gamma   113.60090428
_symmetry_Int_Tables_number   1
_chemical_formula_structural   Cr2Ag2H32C20N8O7
_chemical_formula_sum   'Cr4 Ag4 H64 C40 N16 O14'
_cell_volume   1406.34841622
_cell_formula_units_Z   2
loop_
 _symmetry_equiv_pos_site_id
 _symmetry_equiv_pos_as_xyz
  1  'x, y, z'
loop_
 _atom_site_type_symbol
 _atom_site_label
 _atom_site_symmetry_multiplicity
 _atom_site_fract_x
 _atom_site_fract_y
 _atom_site_fract_z
 _atom_site_occupancy
 _atom_site_hle17_bader_spin_density
 _atom_site_hle17_ddec_charge
 _atom_site_hle17_ddec_spin_density
 _atom_site_hle17_ddec_sum_bond_order
 _atom_site_hle17_magmom
 _atom_site_hse06_10hf_bader_spin_density
 _atom_site_hse06_10hf_ddec_charge
 _atom_site_hse06_10hf_ddec_spin_density
 _atom_site_hse06_10hf_ddec_sum_bond_order
 _atom_site_hse06_10hf_magmom
 _atom_site_hse06_bader_spin_density
 _atom_site_hse06_ddec_charge
 _atom_site_hse06_ddec_spin_density
 _atom_site_hse06_ddec_sum_bond_order
 _atom_site_hse06_magmom
 _atom_site_pbe_bader_charge
 _atom_site_pbe_bader_spin_density
 _atom_site_pbe_cm5_charge
 _atom_site_pbe_ddec_charge
 _atom_site_pbe_ddec_spin_density
 _atom_site_pbe_ddec_sum_bond_order
 _atom_site_pbe_magmom
Cr  Cr0  1  0.37445584  0.77849202  0.66288525  1  0  1.735847  0  3.610911  0  0  1.803299  0  4.079588  0  0  1.885673  0  4.054579  0  1.99118  0  1.260766  1.748695  0  4.096359  0
Cr  Cr1  1  0.43322614  0.72164971  0.83724723  1  0  1.736818  0  3.609106  0  0  1.804718  0  4.077051  0  0  1.88655  0  4.0527  0  1.990208  0  1.261721  1.749958  0  4.094159  0
Cr  Cr2  1  0.62554494  0.22150823  0.33711554  1  0  1.735744  0  3.611002  0  0  1.803212  0  4.079657  0  0  1.885594  0  4.054652  0  1.991165  0  1.260754  1.748574  0  4.096504  0
Cr  Cr3  1  0.56677626  0.27835054  0.16275398  1  0  1.736969  0  3.608835  0  0  1.804864  0  4.076785  0  0  1.886742  0  4.052375  0  1.990293  0  1.261809  1.750174  0  4.093828  0
Ag  Ag4  1  0.08067108  0.40017866  0.52529730  1  0  0.499119  0  1.562876  0  0  0.368672  0  2.031729  0  0  0.393908  0  1.986416  0  0.565639  0  0.498228  0.352213  0  2.062415  0
Ag  Ag5  1  0.65516243  0.09980275  0.97467805  1  0  0.501628  0  1.556343  0  0  0.371679  0  2.024134  0  0  0.396991  0  1.978799  0  0.564246  0  0.496897  0.355233  0  2.055002  0
Ag  Ag6  1  0.91933239  0.59982262  0.47470334  1  0  0.499157  0  1.562774  0  0  0.368694  0  2.03165  0  0  0.393943  0  1.986316  0  0.565442  0  0.498248  0.352237  0  2.062333  0
Ag  Ag7  1  0.34483701  0.90019750  0.02531901  1  0  0.501608  0  1.556357  0  0  0.371694  0  2.024105  0  0  0.397005  0  1.978773  0  0.564236  0  0.496902  0.355249  0  2.054975  0
H  H8  1  0.05823360  0.18797283  0.40756620  1  0  0.094922  0  0.974227  0  0  0.112078  0  1.04969  0  0  0.114362  0  1.047269  0  0.019622  0  0.085743  0.110423  0  1.051398  0
H  H9  1  0.96324780  0.31253762  0.09277359  1  0  0.096459  0  0.972627  0  0  0.113912  0  1.047632  0  0  0.116177  0  1.045229  0  0.033872  0  0.08684  0.11224  0  1.049378  0
H  H10  1  0.94176723  0.81202949  0.59243374  1  0  0.094891  0  0.974244  0  0  0.112048  0  1.049709  0  0  0.11433  0  1.047289  0  0.019598  0  0.085729  0.110393  0  1.051418  0
H  H11  1  0.03675229  0.68746158  0.90722576  1  0  0.096467  0  0.972619  0  0  0.113917  0  1.047625  0  0  0.116183  0  1.04522  0  0.033884  0  0.086843  0.112243  0  1.049373  0
H  H12  1  0.18205702  0.16112685  0.34427766  1  0  0.123531  0  0.947482  0  0  0.14628  0  1.00321  0  0  0.148007  0  1.002724  0  0.049499  0  0.09654  0.144957  0  1.003796  0
H  H13  1  0.17631997  0.33855731  0.15555123  1  0  0.123089  0  0.947594  0  0  0.145794  0  1.003839  0  0  0.14752  0  1.003353  0  0.040676  0  0.096312  0.144576  0  1.004194  0
H  H14  1  0.81794380  0.83887548  0.65572228  1  0  0.123526  0  0.947451  0  0  0.14627  0  1.003193  0  0  0.147998  0  1.002706  0  0.04948  0  0.09654  0.144947  0  1.00378  0
H  H15  1  0.82368129  0.66144294  0.84444884  1  0  0.123132  0  0.947532  0  0  0.145806  0  1.003815  0  0  0.147531  0  1.003329  0  0.040681  0  0.096312  0.144588  0  1.004172  0
H  H16  1  0.00165154  0.20175597  0.30585665  1  0  0.123748  0  0.943692  0  0  0.145436  0  1.001838  0  0  0.14687  0  1.00192  0  0.061624  0  0.096874  0.144485  0  1.00173  0
H  H17  1  0.99383193  0.29841150  0.19446473  1  0  0.122431  0  0.944866  0  0  0.144863  0  1.002301  0  0  0.146331  0  1.002316  0  0.0751  0  0.096793  0.143891  0  1.002169  0
H  H18  1  0.99834753  0.79824428  0.69414243  1  0  0.123778  0  0.943644  0  0  0.145463  0  1.001794  0  0  0.146895  0  1.001877  0  0.061648  0  0.096893  0.144516  0  1.001681  0
H  H19  1  0.00616827  0.70158875  0.80553549  1  0  0.122398  0  0.944903  0  0  0.144828  0  1.002337  0  0  0.146297  0  1.002351  0  0.0751  0  0.096775  0.143856  0  1.002205  0
H  H20  1  0.65865859  0.05554621  0.46859299  1  0  0.127647  0  0.957722  0  0  0.14647  0  1.021343  0  0  0.14794  0  1.021822  0  0.080134  0  0.09701  0.145416  0  1.021022  0
H  H21  1  0.63378660  0.44418991  0.03143178  1  0  0.126842  0  0.957507  0  0  0.145087  0  1.022135  0  0  0.146519  0  1.022659  0  0.088606  0  0.095774  0.144085  0  1.021685  0
H  H22  1  0.34134357  0.94445195  0.53140650  1  0  0.127648  0  0.957799  0  0  0.146494  0  1.021383  0  0  0.147964  0  1.021861  0  0.080105  0  0.097029  0.14544  0  1.021063  0
H  H23  1  0.36621302  0.55580930  0.96856829  1  0  0.126851  0  0.957525  0  0  0.145088  0  1.022164  0  0  0.14652  0  1.022688  0  0.088606  0  0.095784  0.144077  0  1.02172  0
H  H24  1  0.72335093  0.96565310  0.53921695  1  0  0.126129  0  0.953857  0  0  0.15027  0  1.006426  0  0  0.151841  0  1.006198  0  0.049497  0  0.094917  0.149098  0  1.006668  0
H  H25  1  0.71815545  0.53383902  0.96054849  1  0  0.125182  0  0.95333  0  0  0.149442  0  1.005881  0  0  0.150985  0  1.005687  0  0.071037  0  0.095238  0.148293  0  1.006031  0
H  H26  1  0.27665299  0.03434715  0.46078340  1  0  0.126112  0  0.953875  0  0  0.150229  0  1.00647  0  0  0.151798  0  1.006244  0  0.049517  0  0.094885  0.149056  0  1.00671  0
H  H27  1  0.28184522  0.46616019  0.03945143  1  0  0.125166  0  0.953328  0  0  0.14943  0  1.005878  0  0  0.150973  0  1.005685  0  0.072473  0  0.095235  0.148281  0  1.006029  0
H  H28  1  0.88364138  0.08345132  0.50111530  1  0  0.10469  0  0.950602  0  0  0.123692  0  1.017972  0  0  0.125708  0  1.016365  0  0.026585  0  0.089211  0.122152  0  1.019158  0
H  H29  1  0.79823684  0.41609148  0.99850242  1  0  0.104311  0  0.950636  0  0  0.123229  0  1.018178  0  0  0.125241  0  1.016565  0  0.022631  0  0.088643  0.121511  0  1.01967  0
H  H30  1  0.11636044  0.91654892  0.49888534  1  0  0.104711  0  0.950544  0  0  0.123711  0  1.017915  0  0  0.125727  0  1.016309  0  0.026631  0  0.089214  0.122171  0  1.0191  0
H  H31  1  0.20176266  0.58390669  0.00149679  1  0  0.10432  0  0.950609  0  0  0.123231  0  1.018159  0  0  0.125243  0  1.016546  0  0.022636  0  0.088652  0.121513  0  1.019651  0
H  H32  1  0.55842861  0.78322013  0.37336484  1  0  0.128316  0  0.944018  0  0  0.150976  0  0.999303  0  0  0.152232  0  1.000132  0  0.064719  0  0.098653  0.150059  0  0.998772  0
H  H33  1  0.90128787  0.71700578  0.12650749  1  0  0.128949  0  0.944296  0  0  0.151631  0  0.999204  0  0  0.152919  0  1.00001  0  0.069798  0  0.098907  0.150817  0  0.998475  0
H  H34  1  0.44157055  0.21678012  0.62663553  1  0  0.128362  0  0.944062  0  0  0.151026  0  0.999329  0  0  0.152282  0  1.000159  0  0.064715  0  0.098674  0.15011  0  0.998798  0
H  H35  1  0.09871224  0.28299446  0.87349144  1  0  0.128994  0  0.944255  0  0  0.151665  0  0.999182  0  0  0.152954  0  0.999986  0  0.069762  0  0.098903  0.15085  0  0.998453  0
H  H36  1  0.68016142  0.68596385  0.36480225  1  0  0.113138  0  0.969149  0  0  0.132122  0  1.035575  0  0  0.133988  0  1.034217  0  0.045873  0  0.093538  0.130723  0  1.036575  0
H  H37  1  0.12855186  0.81473498  0.13470842  1  0  0.112849  0  0.969141  0  0  0.131446  0  1.036125  0  0  0.133416  0  1.034643  0  0.060537  0  0.092785  0.130072  0  1.037135  0
H  H38  1  0.31984045  0.31403848  0.63519754  1  0  0.113133  0  0.969179  0  0  0.132124  0  1.035596  0  0  0.133991  0  1.034237  0  0.045883  0  0.093543  0.130726  0  1.036596  0
H  H39  1  0.87144835  0.18526526  0.86529180  1  0  0.11287  0  0.969125  0  0  0.131469  0  1.036106  0  0  0.133439  0  1.034622  0  0.060566  0  0.092792  0.130087  0  1.037122  0
H  H40  1  0.70124969  0.77329827  0.46219789  1  0  0.112135  0  0.962377  0  0  0.133576  0  1.024925  0  0  0.134989  0  1.024408  0  0.051936  0  0.094135  0.132494  0  1.025341  0
H  H41  1  0.96578358  0.72684034  0.03745872  1  0  0.112522  0  0.962515  0  0  0.133641  0  1.025377  0  0  0.135044  0  1.024914  0  0.053427  0  0.094376  0.132637  0  1.025735  0
H  H42  1  0.29874949  0.22670302  0.53780206  1  0  0.112146  0  0.962392  0  0  0.133584  0  1.02494  0  0  0.135001  0  1.024419  0  0.051897  0  0.094134  0.132503  0  1.025356  0
H  H43  1  0.03421501  0.27315991  0.96254107  1  0  0.112527  0  0.962502  0  0  0.133632  0  1.025377  0  0  0.135035  0  1.024912  0  0.053424  0  0.094383  0.132628  0  1.025734  0
H  H44  1  0.92993448  0.43474512  0.82644560  1  0  0.130024  0  0.938226  0  0  0.157508  0  0.985662  0  0  0.15892  0  0.98549  0  0.046811  0  0.099704  0.156435  0  0.985857  0
H  H45  1  0.16929867  0.06525708  0.67384027  1  0  0.130675  0  0.937716  0  0  0.157622  0  0.985671  0  0  0.159007  0  0.985551  0  0.06868  0  0.100397  0.156589  0  0.985812  0
H  H46  1  0.07006505  0.56525513  0.17355276  1  0  0.130008  0  0.938246  0  0  0.157493  0  0.98568  0  0  0.158904  0  0.985509  0  0.046785  0  0.099694  0.156421  0  0.985874  0
H  H47  1  0.83070095  0.93474212  0.32615981  1  0  0.130652  0  0.937691  0  0  0.157591  0  0.985669  0  0  0.158976  0  0.98555  0  0.068705  0  0.100368  0.156558  0  0.98581  0
H  H48  1  0.72001453  0.28613025  0.80363594  1  0  0.120716  0  0.968439  0  0  0.140466  0  1.027445  0  0  0.141627  0  1.02831  0  0.045738  0  0.096311  0.139607  0  1.026804  0
H  H49  1  0.13143804  0.21403929  0.69728968  1  0  0.121052  0  0.967525  0  0  0.140774  0  1.026457  0  0  0.141931  0  1.027325  0  0.058513  0  0.096006  0.1399  0  1.025872  0
H  H50  1  0.27998510  0.71386999  0.19636371  1  0  0.120724  0  0.96843  0  0  0.140475  0  1.027432  0  0  0.141636  0  1.028297  0  0.045737  0  0.096316  0.139616  0  1.026791  0
H  H51  1  0.86856148  0.78595992  0.30270910  1  0  0.121022  0  0.967557  0  0  0.140775  0  1.026455  0  0  0.141932  0  1.027323  0  0.058523  0  0.096025  0.139902  0  1.025869  0
H  H52  1  0.73148403  0.43382943  0.76624073  1  0  0.117006  0  0.963845  0  0  0.136136  0  1.029105  0  0  0.137142  0  1.03056  0  0.077564  0  0.094978  0.135421  0  1.028039  0
H  H53  1  0.03215797  0.06614679  0.73463010  1  0  0.116744  0  0.964973  0  0  0.135815  0  1.030254  0  0  0.136805  0  1.031725  0  0.068576  0  0.0945  0.134988  0  1.029488  0
H  H54  1  0.26851399  0.56617082  0.23375849  1  0  0.117015  0  0.963937  0  0  0.136133  0  1.029199  0  0  0.137139  0  1.030653  0  0.077583  0  0.094975  0.135418  0  1.028133  0
H  H55  1  0.96784109  0.93385346  0.26536898  1  0  0.116723  0  0.964995  0  0  0.135796  0  1.030281  0  0  0.136786  0  1.031752  0  0.068664  0  0.094488  0.134969  0  1.029516  0
H  H56  1  0.40955373  0.66341775  0.51138143  1  0  0.300461  0  0.933707  0  0  0.283704  0  0.996307  0  0  0.291835  0  0.989647  0  0.550397  0  0.313556  0.277972  0  1.001159  0
H  H57  1  0.73489183  0.83674165  0.98844305  1  0  0.301451  0  0.932508  0  0  0.284514  0  0.995259  0  0  0.292669  0  0.988546  0  0.554711  0  0.313739  0.278864  0  0.999979  0
H  H58  1  0.59044695  0.33658250  0.48861807  1  0  0.300488  0  0.933729  0  0  0.283718  0  0.996338  0  0  0.29185  0  0.989676  0  0.550396  0  0.31353  0.277988  0  1.001188  0
H  H59  1  0.26510571  0.16325860  0.01155690  1  0  0.301444  0  0.932483  0  0  0.284505  0  0.995246  0  0  0.292659  0  0.988533  0  0.554719  0  0.31374  0.278857  0  0.999963  0
H  H60  1  0.41042216  0.41458750  0.30518932  1  0  0.147322  0  0.968909  0  0  0.161171  0  1.021457  0  0  0.165129  0  1.019776  0  0.11065  0  0.107571  0.158441  0  1.022707  0
H  H61  1  0.18891676  0.08543237  0.19439045  1  0  0.147469  0  0.968578  0  0  0.161119  0  1.021396  0  0  0.164883  0  1.019984  0  0.116706  0  0.107196  0.158452  0  1.022619  0
H  H62  1  0.58957749  0.58541378  0.69480990  1  0  0.147326  0  0.969006  0  0  0.161226  0  1.021483  0  0  0.165178  0  1.019812  0  0.110718  0  0.107618  0.158497  0  1.022732  0
H  H63  1  0.81108077  0.91456684  0.80560992  1  0  0.147459  0  0.96857  0  0  0.1611  0  1.021409  0  0  0.164863  0  1.019996  0  0.116693  0  0.107192  0.158433  0  1.022629  0
H  H64  1  0.03271097  0.48808682  0.69031144  1  0  0.316497  0  0.86774  0  0  0.304371  0  0.919394  0  0  0.311306  0  0.913521  0  0.539558  0  0.331347  0.299474  0  0.923702  0
H  H65  1  0.35423953  0.01151834  0.80955437  1  0  0.316138  0  0.867979  0  0  0.304157  0  0.919681  0  0  0.311089  0  0.913805  0  0.531728  0  0.33102  0.29914  0  0.924115  0
H  H66  1  0.96728541  0.51191239  0.30968779  1  0  0.31652  0  0.867718  0  0  0.304404  0  0.919359  0  0  0.311335  0  0.913485  0  0.539555  0  0.331368  0.299508  0  0.923663  0
H  H67  1  0.64575894  0.98848087  0.19044456  1  0  0.316141  0  0.867977  0  0  0.304155  0  0.919681  0  0  0.311087  0  0.913804  0  0.531764  0  0.331023  0.299139  0  0.924112  0
H  H68  1  0.63550629  0.08442626  0.66512723  1  0  0.142937  0  0.975051  0  0  0.149579  0  1.040232  0  0  0.153286  0  1.038647  0  0.126329  0  0.106241  0.146944  0  1.041563  0
H  H69  1  0.38670113  0.41528180  0.83533714  1  0  0.143085  0  0.974279  0  0  0.150185  0  1.039042  0  0  0.153801  0  1.037595  0  0.114344  0  0.106138  0.147364  0  1.040636  0
H  H70  1  0.36448997  0.91557191  0.33487113  1  0  0.14294  0  0.975052  0  0  0.149581  0  1.040232  0  0  0.153288  0  1.038646  0  0.126337  0  0.106245  0.146947  0  1.041561  0
H  H71  1  0.61329908  0.58471844  0.16466308  1  0  0.143097  0  0.974281  0  0  0.150197  0  1.039045  0  0  0.153813  0  1.037598  0  0.114349  0  0.106134  0.147376  0  1.040641  0
C  C72  1  0.11470624  0.22305586  0.35952642  1  0  -0.350545  0  3.723279  0  0  -0.42924  0  3.955503  0  0  -0.432398  0  3.963048  0  -0.023911  0  -0.23583  -0.42674  0  3.950069  0
C  C73  1  0.03187518  0.27705964  0.14055654  1  0  -0.351382  0  3.723274  0  0  -0.430835  0  3.956287  0  0  -0.434049  0  3.963894  0  -0.054791  0  -0.23726  -0.428256  0  3.950677  0
C  C74  1  0.88529342  0.77694543  0.64047281  1  0  -0.350525  0  3.723244  0  0  -0.429234  0  3.955459  0  0  -0.432391  0  3.96301  0  -0.023713  0  -0.23584  -0.426739  0  3.950023  0
C  C75  1  0.96812445  0.72294061  0.85944311  1  0  -0.351381  0  3.7233  0  0  -0.430815  0  3.956313  0  0  -0.434022  0  3.963926  0  -0.054812  0  -0.237241  -0.428237  0  3.950699  0
C  C76  1  0.76668440  0.06472181  0.52115292  1  0  -0.359965  0  3.718323  0  0  -0.437447  0  3.948539  0  0  -0.440765  0  3.955788  0  -0.044456  0  -0.237827  -0.43488  0  3.943394  0
C  C77  1  0.68027815  0.43484698  0.97870231  1  0  -0.357658  0  3.716705  0  0  -0.434791  0  3.946499  0  0  -0.438076  0  3.953852  0  -0.080469  0  -0.236225  -0.432178  0  3.941263  0
C  C78  1  0.23331836  0.93527740  0.47884671  1  0  -0.359947  0  3.718391  0  0  -0.437421  0  3.948579  0  0  -0.440739  0  3.955829  0  -0.044464  0  -0.237794  -0.434857  0  3.943447  0
C  C79  1  0.31972194  0.56515223  0.02129705  1  0  -0.357655  0  3.716685  0  0  -0.43479  0  3.946505  0  0  -0.438076  0  3.953856  0  -0.08194  0  -0.236238  -0.432168  0  3.941275  0
C  C80  1  0.60743209  0.71421714  0.40127024  1  0  -0.367184  0  3.737247  0  0  -0.447527  0  3.973599  0  0  -0.4505  0  3.980921  0  -0.049224  0  -0.237697  -0.445127  0  3.968331  0
C  C81  1  0.99131703  0.78602436  0.09837128  1  0  -0.36783  0  3.737105  0  0  -0.44736  0  3.97326  0  0  -0.450456  0  3.980575  0  -0.06347  0  -0.237788  -0.444931  0  3.967756  0
C  C82  1  0.39256425  0.28577999  0.59872984  1  0  -0.367272  0  3.737278  0  0  -0.447626  0  3.973661  0  0  -0.450603  0  3.980978  0  -0.049233  0  -0.237749  -0.44523  0  3.968396  0
C  C83  1  0.00868646  0.21397796  0.90162894  1  0  -0.367911  0  3.737066  0  0  -0.447416  0  3.973215  0  0  -0.450519  0  3.980546  0  -0.063459  0  -0.237816  -0.444977  0  3.967717  0
C  C84  1  0.80074586  0.36910347  0.77954638  1  0  -0.364458  0  3.711805  0  0  -0.440084  0  3.938179  0  0  -0.443956  0  3.947006  0  -0.026294  0  -0.234924  -0.437171  0  3.931701  0
C  C85  1  0.15282910  0.13085404  0.72107023  1  0  -0.364913  0  3.712057  0  0  -0.439969  0  3.93852  0  0  -0.44382  0  3.947322  0  -0.041121  0  -0.235125  -0.437105  0  3.932278  0
C  C86  1  0.19925273  0.63089678  0.22045341  1  0  -0.364418  0  3.711966  0  0  -0.440042  0  3.93832  0  0  -0.443912  0  3.947147  0  -0.026289  0  -0.23491  -0.437131  0  3.931843  0
C  C87  1  0.84717054  0.86914620  0.27892942  1  0  -0.364838  0  3.712066  0  0  -0.43993  0  3.938567  0  0  -0.443781  0  3.947371  0  -0.04123  0  -0.235115  -0.437066  0  3.932326  0
C  C88  1  0.80886016  0.17909762  0.59069507  1  0  0.267938  0  3.776012  0  0  0.268757  0  4.034285  0  0  0.278834  0  4.054824  0  0.454596  0  0.097881  0.26215  0  4.020229  0
C  C89  1  0.53889620  0.32043479  0.90933949  1  0  0.267718  0  3.778815  0  0  0.269337  0  4.035999  0  0  0.279399  0  4.056499  0  0.450186  0  0.097405  0.26269  0  4.021851  0
C  C90  1  0.19113888  0.82090159  0.40930443  1  0  0.267909  0  3.776138  0  0  0.268735  0  4.034383  0  0  0.278813  0  4.054922  0  0.4546  0  0.097861  0.262123  0  4.020332  0
C  C91  1  0.46110286  0.67956546  0.09065959  1  0  0.267777  0  3.778734  0  0  0.269406  0  4.035912  0  0  0.279472  0  4.056403  0  0.45035  0  0.097423  0.262764  0  4.021756  0
C  C92  1  0.82360599  0.30919396  0.70456491  1  0  0.285286  0  3.7417  0  0  0.277962  0  4.003638  0  0  0.288799  0  4.022142  0  0.423467  0  0.106731  0.270983  0  3.990826  0
C  C93  1  0.31025899  0.19047253  0.79577853  1  0  0.283907  0  3.741544  0  0  0.277198  0  4.003429  0  0  0.288033  0  4.021873  0  0.423869  0  0.107827  0.270242  0  3.990402  0
C  C94  1  0.17639039  0.69080525  0.29543432  1  0  0.285193  0  3.741902  0  0  0.277897  0  4.003822  0  0  0.288726  0  4.022328  0  0.42347  0  0.106749  0.270919  0  3.991004  0
C  C95  1  0.68974122  0.80952772  0.20422169  1  0  0.283893  0  3.741466  0  0  0.277177  0  4.003358  0  0  0.288011  0  4.021803  0  0.423866  0  0.107816  0.270222  0  3.990332  0
C  C96  1  0.37521743  0.45205381  0.35554680  1  0  -0.34265  0  3.69554  0  0  -0.367671  0  3.946979  0  0  -0.379635  0  3.965741  0  0.0389  0  -0.124513  -0.35981  0  3.934362  0
C  C97  1  0.06637952  0.04798581  0.14415028  1  0  -0.34461  0  3.694911  0  0  -0.368932  0  3.947637  0  0  -0.380757  0  3.966391  0  -0.046695  0  -0.124399  -0.36117  0  3.934903  0
C  C98  1  0.62478339  0.54794852  0.64445314  1  0  -0.342767  0  3.695682  0  0  -0.367839  0  3.947097  0  0  -0.379799  0  3.96586  0  0.038828  0  -0.124599  -0.359977  0  3.934479  0
C  C99  1  0.93361800  0.95201340  0.85585009  1  0  -0.344597  0  3.694957  0  0  -0.368925  0  3.947698  0  0  -0.380741  0  3.966459  0  -0.046707  0  -0.124427  -0.361167  0  3.934969  0
C  C100  1  0.24236154  0.37311129  0.38705319  1  0  0.265459  0  3.769198  0  0  0.266842  0  4.026093  0  0  0.276884  0  4.046473  0  0.429115  0  0.093133  0.260304  0  4.012051  0
C  C101  1  0.98143823  0.12693145  0.11281492  1  0  0.268697  0  3.764561  0  0  0.269039  0  4.023094  0  0  0.279118  0  4.043328  0  0.47084  0  0.094788  0.262508  0  4.009022  0
C  C102  1  0.75763766  0.62689104  0.61294633  1  0  0.265468  0  3.769338  0  0  0.266894  0  4.026178  0  0  0.276937  0  4.046557  0  0.4289  0  0.093143  0.260356  0  4.012137  0
C  C103  1  0.01855976  0.87306776  0.88718474  1  0  0.26866  0  3.764591  0  0  0.269036  0  4.023079  0  0  0.279093  0  4.043343  0  0.47082  0  0.0948  0.262509  0  4.009001  0
C  C104  1  0.73746253  0.17446825  0.65534465  1  0  -0.342309  0  3.691648  0  0  -0.359953  0  3.935459  0  0  -0.372245  0  3.955192  0  -0.061513  0  -0.119813  -0.351973  0  3.922361  0
C  C105  1  0.40807917  0.32519720  0.84495726  1  0  -0.342621  0  3.692158  0  0  -0.361137  0  3.935925  0  0  -0.373328  0  3.955673  0  -0.055321  0  -0.120675  -0.352903  0  3.922636  0
C  C106  1  0.26253491  0.82553200  0.34465400  1  0  -0.342281  0  3.691729  0  0  -0.359937  0  3.935523  0  0  -0.372228  0  3.955258  0  -0.061516  0  -0.119839  -0.351955  0  3.922424  0
C  C107  1  0.59192047  0.67480305  0.15504239  1  0  -0.342713  0  3.692193  0  0  -0.361234  0  3.935966  0  0  -0.373426  0  3.955713  0  -0.055301  0  -0.120705  -0.353002  0  3.922677  0
C  C108  1  0.45878483  0.58643341  0.40487911  1  0  0.276467  0  3.763647  0  0  0.268568  0  4.030218  0  0  0.279317  0  4.04907  0  0.375971  0  0.100167  0.261562  0  4.017235  0
C  C109  1  0.96661629  0.91363140  0.09476986  1  0  0.277846  0  3.76196  0  0  0.269195  0  4.029068  0  0  0.280035  0  4.047794  0  0.41821  0  0.101401  0.262242  0  4.016032  0
C  C110  1  0.54121536  0.41356580  0.59512154  1  0  0.276663  0  3.763509  0  0  0.268736  0  4.030111  0  0  0.279489  0  4.048955  0  0.376023  0  0.100216  0.261731  0  4.01713  0
C  C111  1  0.03338228  0.08636781  0.90523036  1  0  0.277781  0  3.761934  0  0  0.269121  0  4.029064  0  0  0.279959  0  4.047789  0  0.418221  0  0.101399  0.262169  0  4.016026  0
N  N112  1  0.37670815  0.58403246  0.46188968  1  0  -0.207572  0  3.437453  0  0  -0.156287  0  3.666787  0  0  -0.16951  0  3.686413  0  -0.857108  0  -0.282441  -0.147505  0  3.653535  0
N  N113  1  0.83064781  0.91609784  0.03787124  1  0  -0.210869  0  3.437572  0  0  -0.159184  0  3.667368  0  0  -0.172534  0  3.687131  0  -0.856764  0  -0.284178  -0.150385  0  3.653996  0
N  N114  1  0.62329205  0.41596779  0.53811054  1  0  -0.207781  0  3.437603  0  0  -0.156446  0  3.666903  0  0  -0.169671  0  3.68653  0  -0.857064  0  -0.282441  -0.147654  0  3.653624  0
N  N115  1  0.16935285  0.08390137  0.96212869  1  0  -0.210781  0  3.43743  0  0  -0.159088  0  3.667222  0  0  -0.172434  0  3.686982  0  -0.856865  0  -0.284148  -0.15029  0  3.653851  0
N  N116  1  0.24561111  0.45546296  0.45225101  1  0  -0.269142  0  3.259905  0  0  -0.209181  0  3.559512  0  0  -0.22604  0  3.576027  0  -0.713694  0  -0.288722  -0.197722  0  3.548029  0
N  N117  1  0.83779898  0.04469515  0.04763729  1  0  -0.269137  0  3.25326  0  0  -0.209117  0  3.553002  0  0  -0.225964  0  3.569487  0  -0.716561  0  -0.287252  -0.197699  0  3.541472  0
N  N118  1  0.75438969  0.54453833  0.54774936  1  0  -0.269089  0  3.259919  0  0  -0.209159  0  3.559514  0  0  -0.226019  0  3.576029  0  -0.713694  0  -0.288727  -0.197699  0  3.548035  0
N  N119  1  0.16219997  0.95530406  0.95236092  1  0  -0.269092  0  3.253156  0  0  -0.209084  0  3.552886  0  0  -0.225924  0  3.569379  0  -0.716445  0  -0.28724  -0.197666  0  3.541354  0
N  N120  1  0.93873926  0.38682687  0.66902707  1  0  -0.201192  0  3.43308  0  0  -0.147733  0  3.65812  0  0  -0.15929  0  3.675343  0  -0.838453  0  -0.285722  -0.140235  0  3.646637  0
N  N121  1  0.38281496  0.11273776  0.83107550  1  0  -0.199391  0  3.432243  0  0  -0.147029  0  3.65862  0  0  -0.158549  0  3.675829  0  -0.844633  0  -0.286204  -0.139296  0  3.646972  0
N  N122  1  0.06125712  0.61317234  0.33097216  1  0  -0.201127  0  3.433157  0  0  -0.147701  0  3.658222  0  0  -0.159242  0  3.675439  0  -0.838481  0  -0.285716  -0.140198  0  3.646733  0
N  N123  1  0.61718351  0.88726145  0.16892343  1  0  -0.199331  0  3.432101  0  0  -0.14695  0  3.658481  0  0  -0.158473  0  3.675696  0  -0.844642  0  -0.286166  -0.139217  0  3.64683  0
N  N124  1  0.93268928  0.31003689  0.60021037  1  0  -0.282268  0  3.260725  0  0  -0.225121  0  3.568937  0  0  -0.241894  0  3.583757  0  -0.726975  0  -0.291464  -0.213745  0  3.558658  0
N  N125  1  0.52211138  0.18947888  0.89971560  1  0  -0.283826  0  3.255953  0  0  -0.226551  0  3.563715  0  0  -0.243319  0  3.578458  0  -0.702433  0  -0.289327  -0.215178  0  3.553435  0
N  N126  1  0.06731036  0.68996336  0.39978928  1  0  -0.282303  0  3.260842  0  0  -0.225137  0  3.56904  0  0  -0.241918  0  3.583856  0  -0.726984  0  -0.291469  -0.21376  0  3.558759  0
N  N127  1  0.47788873  0.81052136  0.10028333  1  0  -0.283872  0  3.255965  0  0  -0.226621  0  3.563735  0  0  -0.243387  0  3.578473  0  -0.702612  0  -0.289352  -0.215248  0  3.553455  0
O  O128  1  0.50296455  0.75038839  0.74995065  1  0  -0.864202  0  1.661585  0  0  -0.885572  0  1.963544  0  0  -0.92896  0  1.960483  0  -0.95056  0  -0.572461  -0.856071  0  1.965413  0
O  O129  1  0.49704175  0.24961186  0.25005328  1  0  -0.864233  0  1.66165  0  0  -0.885589  0  1.963584  0  0  -0.928992  0  1.960519  0  -0.950626  0  -0.572481  -0.856095  0  1.965461  0
O  O130  1  0.47989005  0.79886686  0.59571379  1  0  -0.702063  0  1.359803  0  0  -0.705418  0  1.605787  0  0  -0.729734  0  1.597738  0  -0.822304  0  -0.505826  -0.689485  0  1.611755  0
O  O131  1  0.58524119  0.70135281  0.90392611  1  0  -0.702598  0  1.358739  0  0  -0.705774  0  1.604559  0  0  -0.729845  0  1.596524  0  -0.823875  0  -0.505805  -0.690047  0  1.610672  0
O  O132  1  0.52011073  0.20113338  0.40428700  1  0  -0.702029  0  1.359781  0  0  -0.705398  0  1.605764  0  0  -0.729713  0  1.597707  0  -0.822304  0  -0.505839  -0.689459  0  1.61175  0
O  O133  1  0.41475476  0.29864432  0.09607598  1  0  -0.702638  0  1.358676  0  0  -0.70582  0  1.604507  0  0  -0.729905  0  1.596457  0  -0.823856  0  -0.505843  -0.690109  0  1.610594  0
O  O134  1  0.18026034  0.64332354  0.62612622  1  0  -0.746576  0  1.462863  0  0  -0.754551  0  1.77478  0  0  -0.779801  0  1.760377  0  -0.805161  0  -0.516799  -0.738031  0  1.784686  0
O  O135  1  0.41084932  0.85659057  0.87460519  1  0  -0.746955  0  1.465008  0  0  -0.754934  0  1.777527  0  0  -0.780108  0  1.763412  0  -0.804714  0  -0.517434  -0.738394  0  1.787794  0
O  O136  1  0.81974111  0.35667671  0.37387644  1  0  -0.746595  0  1.462919  0  0  -0.754577  0  1.774833  0  0  -0.779829  0  1.760429  0  -0.805168  0  -0.516818  -0.738033  0  1.784725  0
O  O137  1  0.58915130  0.14340656  0.12539559  1  0  -0.747014  0  1.464915  0  0  -0.754992  0  1.777433  0  0  -0.780172  0  1.763282  0  -0.804745  0  -0.517452  -0.738478  0  1.787688  0
O  O138  1  0.35112674  0.91663935  0.69065454  1  0  -0.691882  0  1.305149  0  0  -0.705591  0  1.552053  0  0  -0.728951  0  1.544619  0  -0.780593  0  -0.506  -0.690302  0  1.557433  0
O  O139  1  0.24436571  0.58333296  0.80969551  1  0  -0.691399  0  1.302775  0  0  -0.705336  0  1.549252  0  0  -0.728575  0  1.54198  0  -0.780721  0  -0.506227  -0.689963  0  1.554775  0
O  O140  1  0.64887855  0.08336194  0.30934911  1  0  -0.69182  0  1.305123  0  0  -0.705522  0  1.552019  0  0  -0.728887  0  1.544585  0  -0.780545  0  -0.505965  -0.690226  0  1.557416  0
O  O141  1  0.75563498  0.41666729  0.19030399  1  0  -0.691399  0  1.302756  0  0  -0.705342  0  1.549246  0  0  -0.72859  0  1.541962  0  -0.780751  0  -0.506228  -0.689999  0  1.554756  0
