# generated using pymatgen
data_Zn2CoH32C32(NO5)4
_symmetry_space_group_name_H-M   'P 1'
_cell_length_a   6.87004900
_cell_length_b   10.06744067
_cell_length_c   13.31084492
_cell_angle_alpha   84.10389126
_cell_angle_beta   79.67665928
_cell_angle_gamma   78.72659028
_symmetry_Int_Tables_number   1
_chemical_formula_structural   Zn2CoH32C32(NO5)4
_chemical_formula_sum   'Zn2 Co1 H32 C32 N4 O20'
_cell_volume   886.06132711
_cell_formula_units_Z   1
loop_
 _symmetry_equiv_pos_site_id
 _symmetry_equiv_pos_as_xyz
  1  'x, y, z'
loop_
 _atom_site_type_symbol
 _atom_site_label
 _atom_site_symmetry_multiplicity
 _atom_site_fract_x
 _atom_site_fract_y
 _atom_site_fract_z
 _atom_site_occupancy
 _atom_site_hse06_10hf_ddec_charge
 _atom_site_hse06_10hf_ddec_spin_density
 _atom_site_hse06_10hf_ddec_sum_bond_order
 _atom_site_hse06_10hf_magmom
 _atom_site_hse06_ddec_charge
 _atom_site_hse06_ddec_spin_density
 _atom_site_hse06_ddec_sum_bond_order
 _atom_site_hse06_magmom
 _atom_site_pbe_cm5_charge
 _atom_site_pbe_ddec_charge
 _atom_site_pbe_ddec_spin_density
 _atom_site_pbe_ddec_sum_bond_order
 _atom_site_pbe_magmom
Zn  Zn0  1  0.66923709  0.53118976  0.61438517  1  0.921803  -8e-06  2.240606  0.0  0.969423  -5e-06  2.181718  0.0  0.696396  0.888467  -9e-06  2.280906  0.0
Zn  Zn1  1  0.33076307  0.46880748  0.38561571  1  0.921879  -8e-06  2.240627  0.0  0.969495  -5e-06  2.181738  0.0  0.696432  0.888542  -9e-06  2.28093  0.0
Co  Co2  1  0.50000644  0.50000153  0.99999869  1  0.940826  -1.010024  2.559573  -0.953  1.041319  -1.005019  2.459079  -0.954  0.563957  0.871793  -1.014174  2.629486  -0.952
H  H3  1  0.94339000  0.54686509  0.72758891  1  0.400858  2e-06  0.93474  0.0  0.413026  3e-06  0.917214  0.0  0.288803  0.392302  -1e-06  0.947022  0.0
H  H4  1  0.05661558  0.45313311  0.27240898  1  0.400839  2e-06  0.934767  0.0  0.413007  3e-06  0.91724  0.0  0.288789  0.39228  -1e-06  0.947052  0.0
H  H5  1  0.72225112  0.62560391  0.77302512  1  0.404739  7e-06  0.927301  0.0  0.416108  5.4e-05  0.910885  0.0  0.289641  0.396703  -6.3e-05  0.938865  0.0
H  H6  1  0.27775093  0.37439630  0.22697296  1  0.404632  7e-06  0.927449  0.0  0.415999  5.4e-05  0.911033  0.0  0.289598  0.396594  -6.3e-05  0.939012  0.0
H  H7  1  0.56559389  0.72764735  0.91772674  1  0.376758  0.000309  0.97957  0.0  0.389487  0.000349  0.961532  0.0  0.285495  0.367826  0.000267  0.992254  0.0
H  H8  1  0.43441958  0.27235515  0.08227277  1  0.376583  0.000309  0.979804  0.0  0.389312  0.00035  0.961766  0.0  0.285427  0.367648  0.000267  0.992491  0.0
H  H9  1  0.42118570  0.68990456  0.84016886  1  0.399666  -0.0004  0.8779  0.0  0.40932  -0.000221  0.867439  0.0  0.321974  0.392824  -0.000531  0.885347  -0.001
H  H10  1  0.57882446  0.31010009  0.15983381  1  0.399729  -0.0004  0.877769  0.0  0.40938  -0.000221  0.867311  0.0  0.321975  0.392883  -0.000531  0.885217  -0.001
H  H11  1  0.15057944  0.64656472  0.04892374  1  0.416388  -0.000281  0.906456  0.0  0.42743  -0.000306  0.890551  -0.001  0.311529  0.408797  -0.000212  0.917362  0.0
H  H12  1  0.84942943  0.35343762  0.95107407  1  0.416405  -0.000281  0.906443  0.0  0.427447  -0.000305  0.890536  -0.001  0.311554  0.408813  -0.000212  0.91735  0.0
H  H13  1  0.14514387  0.55682953  0.95681077  1  0.414482  -0.000511  0.861088  -0.001  0.423977  -0.000568  0.851429  -0.001  0.33082  0.407728  -0.000334  0.867866  0.0
H  H14  1  0.85486578  0.44316581  0.04318998  1  0.414541  -0.000511  0.860882  -0.001  0.424008  -0.000568  0.851271  -0.001  0.330848  0.407789  -0.000334  0.867653  0.0
H  H15  1  0.12739432  0.96803755  0.75562416  1  0.293629  -2.4e-05  0.903795  0.0  0.299151  -1.4e-05  0.901094  0.0  0.331266  0.28979  -3.5e-05  0.905581  0.0
H  H16  1  0.87260358  0.03195891  0.24438234  1  0.293672  -2.4e-05  0.903862  0.0  0.299192  -1.4e-05  0.901163  0.0  0.331251  0.289836  -3.5e-05  0.905645  0.0
H  H17  1  0.56719460  0.01149107  0.56867395  1  0.110665  1.7e-05  1.043715  0.0  0.114014  8e-06  1.040951  0.0  0.103328  0.108067  3.2e-05  1.046073  0.0
H  H18  1  0.43280219  0.98850709  0.43132572  1  0.110626  1.7e-05  1.043783  0.0  0.113976  8e-06  1.041007  0.0  0.103305  0.108024  3.2e-05  1.046143  0.0
H  H19  1  0.61896427  0.88128871  0.73316991  1  0.106503  -0.000257  1.023825  0.0  0.110229  -0.000181  1.020991  0.0  0.098728  0.103803  -0.000349  1.025777  0.0
H  H20  1  0.38103888  0.11871368  0.26683081  1  0.106454  -0.000257  1.023848  0.0  0.110183  -0.000181  1.02101  0.0  0.098698  0.103748  -0.000349  1.0258  0.0
H  H21  1  0.54485942  0.00598961  0.89427576  1  0.113647  -1.6e-05  1.03204  0.0  0.117261  -1.3e-05  1.029328  0.0  0.101892  0.110783  1e-06  1.034554  0.0
H  H22  1  0.45514150  0.99401469  0.10572275  1  0.113626  -1.6e-05  1.032002  0.0  0.11724  -1.3e-05  1.02929  0.0  0.1019  0.110761  1e-06  1.034514  0.0
H  H23  1  0.82212170  0.31669713  0.75380041  1  0.111019  3e-05  1.041259  0.0  0.115293  2.4e-05  1.036879  0.0  0.124428  0.107732  4.2e-05  1.04473  0.0
H  H24  1  0.17789412  0.68330354  0.24620280  1  0.111069  3e-05  1.041228  0.0  0.115361  2.4e-05  1.036825  0.0  0.124465  0.107781  4.2e-05  1.044691  0.0
H  H25  1  0.18168939  0.99186237  0.57763119  1  0.127503  7e-06  1.008745  0.0  0.130924  4e-06  1.005944  0.0  0.11362  0.125018  1.4e-05  1.010804  0.0
H  H26  1  0.81830512  0.00813257  0.42236609  1  0.127416  7e-06  1.008795  0.0  0.130838  4e-06  1.005992  0.0  0.113557  0.124929  1.4e-05  1.010854  0.0
H  H27  1  0.10409929  0.13458906  0.41957139  1  0.116173  1.2e-05  1.009025  0.0  0.118411  8e-06  1.009179  0.0  0.109991  0.114653  1.9e-05  1.008894  0.0
H  H28  1  0.89587864  0.86540789  0.58043059  1  0.116118  1.2e-05  1.009088  0.0  0.118352  9e-06  1.009247  0.0  0.109955  0.1146  1.9e-05  1.00896  0.0
H  H29  1  0.87462515  0.36086515  0.43707216  1  0.112778  0.0  0.987033  0.0  0.115646  -0.0  0.984689  0.0  0.125017  0.110509  2e-06  0.988943  0.0
H  H30  1  0.12536292  0.63913299  0.56293002  1  0.112712  0.0  0.987114  0.0  0.115579  -0.0  0.984771  0.0  0.124998  0.110491  2e-06  0.988963  0.0
H  H31  1  0.19260669  0.93458582  0.93133538  1  0.120383  -2.8e-05  0.996795  0.0  0.122638  -1.7e-05  0.995613  0.0  0.105543  0.118452  -2.8e-05  0.998262  0.0
H  H32  1  0.80737529  0.06541335  0.06866890  1  0.120332  -2.8e-05  0.996886  0.0  0.122588  -1.7e-05  0.995704  0.0  0.105519  0.118395  -2.8e-05  0.998357  0.0
H  H33  1  0.94995318  0.89550021  0.93678062  1  0.13063  -2.2e-05  0.978807  0.0  0.133882  -2.1e-05  0.976247  0.0  0.107395  0.128265  -5e-06  0.980651  0.0
H  H34  1  0.05002350  0.10450705  0.06322338  1  0.130594  -2.2e-05  0.978848  0.0  0.133849  -2.1e-05  0.976285  0.0  0.10735  0.128229  -5e-06  0.980687  0.0
C  C35  1  0.41422112  0.27422952  0.72394863  1  -0.050059  0.000834  3.859704  0.0  -0.04885  0.000538  3.875088  0.0  0.002982  -0.051461  0.001306  3.850045  0.001
C  C36  1  0.58577496  0.72577179  0.27605303  1  -0.05002  0.000834  3.85981  0.0  -0.048806  0.000549  3.875189  0.0  0.002993  -0.051424  0.001306  3.850148  0.001
C  C37  1  0.46123571  0.20377056  0.63389435  1  -0.074008  -9.7e-05  3.965036  0.0  -0.082485  -0.000116  3.988284  0.0  -0.019828  -0.0686  -0.000107  3.94979  0.0
C  C38  1  0.53876238  0.79622870  0.36610655  1  -0.073934  -9.7e-05  3.965157  0.0  -0.082416  -0.000116  3.988401  0.0  -0.01979  -0.068532  -0.000107  3.949912  0.0
C  C39  1  0.53600017  0.06359700  0.63900255  1  -0.087254  0.000921  3.986991  0.001  -0.08498  0.000577  4.005338  0.0  -0.086043  -0.088911  0.001572  3.975034  0.001
C  C40  1  0.46400463  0.93640044  0.36100079  1  -0.087183  0.000921  3.986933  0.001  -0.084927  0.000572  4.005339  0.0  -0.085985  -0.088837  0.001572  3.974968  0.001
C  C41  1  0.56314444  0.99049028  0.73143558  1  -0.108214  -0.000286  4.046095  0.0  -0.110894  -0.000258  4.063882  0.0  -0.104752  -0.106585  -0.000337  4.034287  0.0
C  C42  1  0.43685323  0.00951111  0.26856739  1  -0.108197  -0.000286  4.045906  0.0  -0.110879  -0.000256  4.063684  0.0  -0.104783  -0.106563  -0.000337  4.034089  0.0
C  C43  1  0.52061810  0.05918635  0.82069082  1  -0.104678  0.000785  4.004832  0.001  -0.103003  0.000458  4.023399  0.0  -0.092006  -0.105821  0.001574  3.992774  0.001
C  C44  1  0.47938187  0.94081707  0.17931091  1  -0.104584  0.000784  4.004713  0.001  -0.102907  0.000457  4.023275  0.0  -0.091993  -0.105729  0.001574  3.992652  0.001
C  C45  1  0.44965817  0.19951465  0.81702187  1  -0.070113  0.00103  3.966016  0.0  -0.07842  0.000552  3.98584  0.0  -0.018991  -0.064726  0.001485  3.953358  0.001
C  C46  1  0.55034758  0.80048875  0.18297768  1  -0.070291  0.00103  3.966074  0.0  -0.078598  0.000551  3.985896  0.0  -0.018998  -0.064902  0.001485  3.953411  0.001
C  C47  1  0.31100329  0.42276570  0.72750477  1  0.640496  2.9e-05  4.186367  0.0  0.677304  5e-06  4.173656  0.0  0.216959  0.61537  8.9e-05  4.194349  0.0
C  C48  1  0.68899986  0.57723670  0.27249595  1  0.640425  2.9e-05  4.186405  0.0  0.677233  4e-06  4.173692  0.0  0.216857  0.615306  8.9e-05  4.194376  0.0
C  C49  1  0.43260833  0.26665320  0.91385570  1  0.606217  0.004647  4.156282  0.003  0.646965  0.003136  4.147248  0.002  0.214632  0.576674  0.006704  4.162848  0.004
C  C50  1  0.56739523  0.73335215  0.08614238  1  0.606443  0.004647  4.156051  0.003  0.647191  0.003138  4.147019  0.002  0.214713  0.5769  0.006704  4.162618  0.004
C  C51  1  0.43669347  0.27038617  0.52928008  1  0.576445  5e-06  4.240303  0.0  0.609844  1e-05  4.23532  0.0  0.193146  0.553911  7e-06  4.242916  0.0
C  C52  1  0.56330292  0.72961293  0.47071802  1  0.576466  5e-06  4.240175  0.0  0.609865  8e-06  4.23519  0.0  0.193153  0.553941  7e-06  4.242776  0.0
C  C53  1  0.88448581  0.27185797  0.68175828  1  0.005341  6e-06  3.918079  0.0  0.010875  -1e-06  3.933911  0.0  0.044704  0.001748  1.7e-05  3.907712  0.0
C  C54  1  0.11551964  0.72814645  0.31824120  1  0.005237  6e-06  3.91816  0.0  0.010761  1e-06  3.933973  0.0  0.044675  0.001646  1.7e-05  3.907779  0.0
C  C55  1  0.00226388  0.14193689  0.67889413  1  0.212737  1.2e-05  4.023911  0.0  0.215624  1.5e-05  4.047127  0.0  0.105983  0.210362  1.3e-05  4.008421  0.0
C  C56  1  0.99773107  0.85806342  0.32110852  1  0.212684  1.2e-05  4.023969  0.0  0.215571  1.4e-05  4.04718  0.0  0.105928  0.210326  1.3e-05  4.008463  0.0
C  C57  1  0.08344648  0.09124880  0.58302000  1  -0.139986  -0.0  3.929249  0.0  -0.139904  -2e-06  3.9481  0.0  -0.068097  -0.139699  1.7e-05  3.916503  0.0
C  C58  1  0.91654141  0.90874534  0.41698414  1  -0.139789  -0.0  3.929342  0.0  -0.1397  -2e-06  3.948179  0.0  -0.067988  -0.139503  1.7e-05  3.916593  0.0
C  C59  1  0.04037703  0.16996706  0.49499186  1  -0.098603  1.9e-05  3.986515  0.0  -0.104504  1.2e-05  4.008487  0.0  -0.078475  -0.095009  3e-05  3.971858  0.0
C  C60  1  0.95961788  0.83002304  0.50501117  1  -0.098492  2e-05  3.986637  0.0  -0.104392  1.1e-05  4.008613  0.0  -0.07842  -0.09491  3e-05  3.972008  0.0
C  C61  1  0.91717982  0.29677407  0.50344243  1  0.098276  -1.1e-05  3.924534  0.0  0.105545  -8e-06  3.941213  0.0  0.048733  0.093582  -1.1e-05  3.91323  0.0
C  C62  1  0.08282166  0.70321679  0.49655299  1  0.098193  -1.2e-05  3.924775  0.0  0.10546  -8e-06  3.941452  0.0  0.048701  0.093466  -1.1e-05  3.913466  0.0
C  C63  1  0.98155906  0.09266214  0.86745577  1  0.567632  -6.8e-05  4.029421  0.0  0.595004  -4.9e-05  4.031114  0.0  0.25936  0.549442  -7.9e-05  4.027373  0.0
C  C64  1  0.01842082  0.90733781  0.13254415  1  0.567754  -6.8e-05  4.029286  0.0  0.595128  -4.8e-05  4.030974  0.0  0.259376  0.549576  -7.9e-05  4.027234  0.0
C  C65  1  0.03062683  0.97689898  0.94589728  1  -0.28609  -2.8e-05  3.964292  0.0  -0.289617  -2.2e-05  3.971069  0.0  -0.158518  -0.283528  -2.2e-05  3.959406  0.0
C  C66  1  0.96935740  0.02310726  0.05410445  1  -0.286016  -2.8e-05  3.964312  0.0  -0.289542  -2.1e-05  3.971081  0.0  -0.158475  -0.28346  -2.2e-05  3.959438  0.0
N  N67  1  0.84363249  0.34540897  0.59556071  1  -0.256248  6e-06  3.658061  0.0  -0.276036  9e-06  3.67431  0.0  -0.33814  -0.243038  1e-05  3.646771  0.0
N  N68  1  0.15637099  0.65458493  0.40443338  1  -0.25619  6e-06  3.658178  0.0  -0.275977  7e-06  3.674427  0.0  -0.338157  -0.242982  1e-05  3.646905  0.0
N  N69  1  0.04123480  0.06109023  0.76772242  1  -0.388228  -7e-06  3.589444  0.0  -0.410777  -7e-06  3.603431  0.0  -0.388988  -0.372628  -0.0  3.579323  0.0
N  N70  1  0.95876145  0.93891119  0.23228146  1  -0.388448  -7e-06  3.589501  0.0  -0.411004  -9e-06  3.60349  0.0  -0.389025  -0.372874  -0.0  3.579396  0.0
O  O71  1  0.40490713  0.52140613  0.69687444  1  -0.59517  9.5e-05  2.375638  0.0  -0.624101  4.2e-05  2.354981  0.0  -0.334705  -0.575182  0.000258  2.389174  0.0
O  O72  1  0.59509316  0.47859388  0.30312010  1  -0.595229  9.5e-05  2.375589  0.0  -0.624147  4.2e-05  2.354909  0.0  -0.33467  -0.575246  0.000258  2.389122  0.0
O  O73  1  0.12782967  0.43983070  0.76714995  1  -0.568247  0.0002  2.182953  0.0  -0.594583  0.000168  2.172312  0.0  -0.314687  -0.549619  0.000239  2.189666  0.0
O  O74  1  0.87217359  0.56017177  0.23285225  1  -0.568199  0.0002  2.182825  0.0  -0.594544  0.000165  2.172192  0.0  -0.314684  -0.549577  0.00024  2.189536  0.0
O  O75  1  0.47649047  0.38634080  0.90077917  1  -0.554298  0.011956  2.476853  0.009  -0.602521  0.008875  2.467979  0.006  -0.306927  -0.519304  0.014844  2.481867  0.011
O  O76  1  0.52351694  0.61366153  0.09921881  1  -0.554326  0.011957  2.476641  0.009  -0.602552  0.008876  2.467769  0.006  -0.306968  -0.519328  0.014846  2.481653  0.011
O  O77  1  0.38980802  0.20161548  0.99949622  1  -0.553775  0.001759  2.181059  0.001  -0.579093  0.001087  2.168691  0.001  -0.316228  -0.536462  0.00273  2.189975  0.002
O  O78  1  0.61019867  0.79839000  0.00050375  1  -0.55389  0.001759  2.18108  0.001  -0.579206  0.001083  2.168708  0.001  -0.316238  -0.536585  0.002729  2.190007  0.002
O  O79  1  0.32877346  0.39162616  0.52720194  1  -0.578214  -9e-06  2.346895  0.0  -0.608405  -5e-06  2.334332  0.0  -0.325665  -0.556959  -1.4e-05  2.354426  0.0
O  O80  1  0.67121533  0.60837272  0.47279406  1  -0.578227  -9e-06  2.346886  0.0  -0.608422  -4e-06  2.334337  0.0  -0.325672  -0.556981  -1.4e-05  2.35443  0.0
O  O81  1  0.51761554  0.20944232  0.45078363  1  -0.569265  -3.3e-05  2.135251  0.0  -0.592193  -2.2e-05  2.127206  0.0  -0.325342  -0.553092  -4.8e-05  2.140157  0.0
O  O82  1  0.48239686  0.79055922  0.54921762  1  -0.569288  -3.3e-05  2.13504  0.0  -0.592219  -2.4e-05  2.127004  0.0  -0.32534  -0.553127  -4.8e-05  2.13996  0.0
O  O83  1  0.81821482  0.60698618  0.70726759  1  -0.777418  -0.000163  2.097379  0.0  -0.800815  -9.1e-05  2.057741  0.0  -0.577816  -0.760769  -0.000278  2.12448  0.0
O  O84  1  0.18178924  0.39301198  0.29272973  1  -0.777312  -0.000164  2.097485  0.0  -0.800709  -9e-05  2.05785  0.0  -0.577764  -0.760664  -0.000278  2.124587  0.0
O  O85  1  0.54396727  0.65861628  0.86908720  1  -0.766014  -0.018985  2.174028  -0.029  -0.793386  -0.016165  2.140106  -0.025  -0.544781  -0.746072  -0.021936  2.19768  -0.034
O  O86  1  0.45604467  0.34138617  0.13091175  1  -0.765904  -0.018985  2.174064  -0.029  -0.793281  -0.016165  2.140159  -0.025  -0.544705  -0.745959  -0.021936  2.197713  -0.034
O  O87  1  0.19920048  0.55647884  0.01986199  1  -0.737442  0.003562  2.163937  0.001  -0.769311  0.004684  2.130514  0.002  -0.54543  -0.714213  0.000175  2.186632  -0.001
O  O88  1  0.80081329  0.44352264  0.98013760  1  -0.737542  0.003561  2.163726  0.001  -0.769373  0.004681  2.13038  0.002  -0.545472  -0.714311  0.000174  2.186413  -0.001
O  O89  1  0.88843433  0.20599912  0.89218864  1  -0.49181  -3e-06  2.242174  0.0  -0.514112  -1.5e-05  2.23724  0.0  -0.268897  -0.476957  4.2e-05  2.245434  0.0
O  O90  1  0.11155981  0.79400308  0.10781089  1  -0.491828  -4e-06  2.242264  0.0  -0.514126  -1.4e-05  2.237315  0.0  -0.268896  -0.476977  4.2e-05  2.245521  0.0
