# generated using pymatgen
data_ZnH26C30S2(N5O2)2
_symmetry_space_group_name_H-M   'P 1'
_cell_length_a   11.33450081
_cell_length_b   13.28333967
_cell_length_c   13.69336696
_cell_angle_alpha   71.65184581
_cell_angle_beta   65.56509669
_cell_angle_gamma   64.78395749
_symmetry_Int_Tables_number   1
_chemical_formula_structural   ZnH26C30S2(N5O2)2
_chemical_formula_sum   'Zn2 H52 C60 S4 N20 O8'
_cell_volume   1673.94930422
_cell_formula_units_Z   2
loop_
 _symmetry_equiv_pos_site_id
 _symmetry_equiv_pos_as_xyz
  1  'x, y, z'
loop_
 _atom_site_type_symbol
 _atom_site_label
 _atom_site_symmetry_multiplicity
 _atom_site_fract_x
 _atom_site_fract_y
 _atom_site_fract_z
 _atom_site_occupancy
 _atom_site_hle17_bader_spin_density
 _atom_site_hle17_ddec_charge
 _atom_site_hle17_ddec_spin_density
 _atom_site_hle17_ddec_sum_bond_order
 _atom_site_hle17_magmom
 _atom_site_hse06_10hf_bader_spin_density
 _atom_site_hse06_10hf_ddec_charge
 _atom_site_hse06_10hf_ddec_spin_density
 _atom_site_hse06_10hf_ddec_sum_bond_order
 _atom_site_hse06_10hf_magmom
 _atom_site_hse06_bader_spin_density
 _atom_site_hse06_ddec_charge
 _atom_site_hse06_ddec_spin_density
 _atom_site_hse06_ddec_sum_bond_order
 _atom_site_hse06_magmom
 _atom_site_pbe_bader_spin_density
 _atom_site_pbe_cm5_charge
 _atom_site_pbe_ddec_charge
 _atom_site_pbe_ddec_spin_density
 _atom_site_pbe_ddec_sum_bond_order
 _atom_site_pbe_magmom
Zn  Zn0  1  0.85708784  0.24996618  0.75005660  1  0  0.902186  0  1.96412  0  0  0.698264  0  2.413313  0  0  0.744047  0  2.371842  0  0  0.724449  0.667001  0  2.441216  0
Zn  Zn1  1  0.14291233  0.75003248  0.24994405  1  0  0.902173  0  1.96413  0  0  0.69824  0  2.41335  0  0  0.744007  0  2.371881  0  0  0.724444  0.666974  0  2.44125  0
H  H2  1  0.48940108  0.37471170  0.46380963  1  0  0.106507  0  0.948255  0  0  0.119877  0  1.002478  0  0  0.123384  0  1.001588  0  0  0.101359  0.117294  0  1.003478  0
H  H3  1  0.32797363  0.12503860  0.03649579  1  0  0.108515  0  0.947071  0  0  0.121923  0  1.001128  0  0  0.125423  0  1.000231  0  0  0.102563  0.119312  0  1.00219  0
H  H4  1  0.51060081  0.62528612  0.53619076  1  0  0.106534  0  0.948315  0  0  0.119906  0  1.002525  0  0  0.123413  0  1.001636  0  0  0.101389  0.117324  0  1.003524  0
H  H5  1  0.67203065  0.87496005  0.96350363  1  0  0.10853  0  0.947027  0  0  0.121961  0  1.001061  0  0  0.125459  0  1.000165  0  0  0.102579  0.11936  0  1.002111  0
H  H6  1  0.74653571  0.07776617  0.74839502  1  0  0.078693  0  0.960677  0  0  0.080873  0  1.036059  0  0  0.083651  0  1.033837  0  0  0.114573  0.078913  0  1.037589  0
H  H7  1  0.57318221  0.42177909  0.75155072  1  0  0.079988  0  0.958899  0  0  0.082037  0  1.034419  0  0  0.084925  0  1.032046  0  0  0.114903  0.079985  0  1.036075  0
H  H8  1  0.25346437  0.92223331  0.25160231  1  0  0.078666  0  0.960644  0  0  0.080845  0  1.036042  0  0  0.08362  0  1.033825  0  0  0.114556  0.078884  0  1.037571  0
H  H9  1  0.42681895  0.57821873  0.24845039  1  0  0.080017  0  0.958905  0  0  0.082074  0  1.034408  0  0  0.084959  0  1.032037  0  0  0.114917  0.080022  0  1.036063  0
H  H10  1  0.29165168  0.09395831  0.86635709  1  0  0.108932  0  0.979156  0  0  0.115602  0  1.046988  0  0  0.11836  0  1.046932  0  0  0.104885  0.113647  0  1.047128  0
H  H11  1  0.25259744  0.40570587  0.63326680  1  0  0.108237  0  0.980112  0  0  0.11512  0  1.047768  0  0  0.117784  0  1.047813  0  0  0.104365  0.11321  0  1.047847  0
H  H12  1  0.70834369  0.90604205  0.13364448  1  0  0.108967  0  0.979077  0  0  0.115641  0  1.046907  0  0  0.1184  0  1.046848  0  0  0.104893  0.113686  0  1.047047  0
H  H13  1  0.74740014  0.59429535  0.36673593  1  0  0.108279  0  0.980008  0  0  0.11515  0  1.047679  0  0  0.117814  0  1.047727  0  0  0.104382  0.113239  0  1.047759  0
H  H14  1  0.07184829  0.10087179  0.86233182  1  0  0.098014  0  0.937039  0  0  0.102032  0  1.006639  0  0  0.105077  0  1.003487  0  0  0.120009  0.099758  0  1.008967  0
H  H15  1  0.03536895  0.39909190  0.63754775  1  0  0.098424  0  0.937746  0  0  0.102142  0  1.007538  0  0  0.105268  0  1.004302  0  0  0.120293  0.099868  0  1.009825  0
H  H16  1  0.92815091  0.89912939  0.13766733  1  0  0.098053  0  0.936989  0  0  0.102076  0  1.006593  0  0  0.105121  0  1.003443  0  0  0.120009  0.0998  0  1.008924  0
H  H17  1  0.96462918  0.60091014  0.36245199  1  0  0.098462  0  0.937722  0  0  0.10217  0  1.007525  0  0  0.105295  0  1.004289  0  0  0.120311  0.099897  0  1.009813  0
H  H18  1  0.05263020  0.94421128  0.76830723  1  0  0.097674  0  0.920424  0  0  0.109067  0  0.978998  0  0  0.111848  0  0.975254  0  0  0.123723  0.106939  0  0.981756  0
H  H19  1  0.76535908  0.55582874  0.73179829  1  0  0.098063  0  0.91982  0  0  0.109505  0  0.978277  0  0  0.112286  0  0.974543  0  0  0.124101  0.107372  0  0.981033  0
H  H20  1  0.94736160  0.05578911  0.23169695  1  0  0.097585  0  0.920489  0  0  0.108981  0  0.979071  0  0  0.111759  0  0.975332  0  0  0.123683  0.106852  0  0.981829  0
H  H21  1  0.23464386  0.44417159  0.26820052  1  0  0.098078  0  0.919792  0  0  0.109521  0  0.978239  0  0  0.112302  0  0.974507  0  0  0.124114  0.107388  0  0.980996  0
H  H22  1  0.53072948  0.07019501  0.74749561  1  0  0.108156  0  0.975651  0  0  0.116187  0  1.039792  0  0  0.11829  0  1.041264  0  0  0.106701  0.114713  0  1.038833  0
H  H23  1  0.34907273  0.42941732  0.75207707  1  0  0.107787  0  0.976327  0  0  0.115525  0  1.040735  0  0  0.117634  0  1.042191  0  0  0.107126  0.114037  0  1.039793  0
H  H24  1  0.46926979  0.92980448  0.25250351  1  0  0.108179  0  0.975623  0  0  0.116178  0  1.039793  0  0  0.11828  0  1.041266  0  0  0.106707  0.114707  0  1.038839  0
H  H25  1  0.65092709  0.57058218  0.24792343  1  0  0.107771  0  0.976331  0  0  0.115512  0  1.040734  0  0  0.117623  0  1.042189  0  0  0.107131  0.114024  0  1.039793  0
H  H26  1  0.97742847  0.34630534  0.25149293  1  0  0.10224  0  0.957022  0  0  0.112432  0  1.016248  0  0  0.115957  0  1.013587  0  0  0.103839  0.109985  0  1.017947  0
H  H27  1  0.57560150  0.15362253  0.24856719  1  0  0.102628  0  0.957345  0  0  0.112542  0  1.016794  0  0  0.116151  0  1.014045  0  0  0.104102  0.110035  0  1.018567  0
H  H28  1  0.02257461  0.65369329  0.74850478  1  0  0.1022  0  0.957164  0  0  0.112426  0  1.016345  0  0  0.115953  0  1.013688  0  0  0.103804  0.109978  0  1.018046  0
H  H29  1  0.42439829  0.84638035  0.75143232  1  0  0.102637  0  0.957302  0  0  0.112555  0  1.016748  0  0  0.116165  0  1.013999  0  0  0.104115  0.110047  0  1.018523  0
H  H30  1  0.63750854  0.38114273  0.55110569  1  0  0.087305  0  0.986736  0  0  0.097628  0  1.052008  0  0  0.099707  0  1.051542  0  0  0.096867  0.096098  0  1.052313  0
H  H31  1  0.56983399  0.11852754  0.94911776  1  0  0.087179  0  0.985206  0  0  0.096945  0  1.051199  0  0  0.098923  0  1.050878  0  0  0.096603  0.095448  0  1.051535  0
H  H32  1  0.36249376  0.61885760  0.44889279  1  0  0.087269  0  0.986782  0  0  0.097615  0  1.052009  0  0  0.099691  0  1.051563  0  0  0.096851  0.096075  0  1.052341  0
H  H33  1  0.43016874  0.88147114  0.05088418  1  0  0.08717  0  0.985139  0  0  0.096935  0  1.051138  0  0  0.098912  0  1.050819  0  0  0.096579  0.095419  0  1.051494  0
H  H34  1  0.83011496  0.33744818  0.16202519  1  0  0.115724  0  0.941949  0  0  0.127048  0  0.995223  0  0  0.130958  0  0.993949  0  0  0.104196  0.124191  0  0.996426  0
H  H35  1  0.32992309  0.16265669  0.33814676  1  0  0.115748  0  0.942082  0  0  0.126845  0  0.995477  0  0  0.13075  0  0.994201  0  0  0.104244  0.123962  0  0.99675  0
H  H36  1  0.16988669  0.66255215  0.83797297  1  0  0.115745  0  0.941935  0  0  0.127062  0  0.995218  0  0  0.130972  0  0.993942  0  0  0.104202  0.124204  0  0.996422  0
H  H37  1  0.67007714  0.83734533  0.66185184  1  0  0.115744  0  0.942087  0  0  0.126838  0  0.995485  0  0  0.130743  0  0.994209  0  0  0.104235  0.123955  0  0.996757  0
H  H38  1  0.21427245  0.84646048  0.60357438  1  0  0.111557  0  1.001392  0  0  0.118928  0  1.065411  0  0  0.121085  0  1.068118  0  0  0.098942  0.117371  0  1.063755  0
H  H39  1  0.66433016  0.65360650  0.89660863  1  0  0.110956  0  1.002814  0  0  0.118164  0  1.067124  0  0  0.120321  0  1.069813  0  0  0.099424  0.116619  0  1.065485  0
H  H40  1  0.78571976  0.15354242  0.39642789  1  0  0.111576  0  1.001322  0  0  0.118885  0  1.065415  0  0  0.121041  0  1.068124  0  0  0.098911  0.117327  0  1.063759  0
H  H41  1  0.33566969  0.34639469  0.10339085  1  0  0.11097  0  1.002804  0  0  0.11819  0  1.067108  0  0  0.120347  0  1.069797  0  0  0.099427  0.116643  0  1.065468  0
H  H42  1  0.21917733  0.96575714  0.41879907  1  0  0.060457  0  0.950363  0  0  0.070958  0  1.016492  0  0  0.073011  0  1.014099  0  0  0.108959  0.069444  0  1.018059  0
H  H43  1  0.60344038  0.53430385  0.08134710  1  0  0.060549  0  0.949641  0  0  0.071078  0  1.015735  0  0  0.073011  0  1.013542  0  0  0.109479  0.069612  0  1.017257  0
H  H44  1  0.78082150  0.03424320  0.58120096  1  0  0.060455  0  0.950382  0  0  0.070971  0  1.016499  0  0  0.073012  0  1.014117  0  0  0.108956  0.069455  0  1.018065  0
H  H45  1  0.39656156  0.46569733  0.91865124  1  0  0.060559  0  0.949645  0  0  0.071084  0  1.015737  0  0  0.073019  0  1.01354  0  0  0.109455  0.069606  0  1.017272  0
H  H46  1  0.60608269  0.34416735  0.17683385  1  0  0.317234  0  0.957355  0  0  0.289046  0  1.042023  0  0  0.297348  0  1.035441  0  0  0.287694  0.283224  0  1.046518  0
H  H47  1  0.12733656  0.15592075  0.32337309  1  0  0.316056  0  0.958122  0  0  0.288476  0  1.042295  0  0  0.296752  0  1.035746  0  0  0.287477  0.282645  0  1.046789  0
H  H48  1  0.39391832  0.65583297  0.82316398  1  0  0.317224  0  0.957383  0  0  0.289036  0  1.042055  0  0  0.297338  0  1.035474  0  0  0.287694  0.283215  0  1.04655  0
H  H49  1  0.87266544  0.84407873  0.67662521  1  0  0.316078  0  0.958207  0  0  0.288528  0  1.042323  0  0  0.296798  0  1.035773  0  0  0.287503  0.282701  0  1.046816  0
H  H50  1  0.47104454  0.35300965  0.30195264  1  0  0.315352  0  0.889741  0  0  0.310813  0  0.932959  0  0  0.316154  0  0.929933  0  0  0.31196  0.307007  0  0.935159  0
H  H51  1  0.12624703  0.14697264  0.19826274  1  0  0.31571  0  0.88971  0  0  0.310891  0  0.933335  0  0  0.316253  0  0.930276  0  0  0.311854  0.307064  0  0.935561  0
H  H52  1  0.52895738  0.64698985  0.69804672  1  0  0.315349  0  0.889741  0  0  0.310811  0  0.932956  0  0  0.316154  0  0.929927  0  0  0.31196  0.307005  0  0.935155  0
H  H53  1  0.87375661  0.85302600  0.80173636  1  0  0.315751  0  0.88973  0  0  0.310936  0  0.93335  0  0  0.316298  0  0.930291  0  0  0.311881  0.30711  0  0.935574  0
C  C54  1  0.00221065  0.15933587  0.56887817  1  0  0.580739  0  3.82273  0  0  0.541804  0  4.087109  0  0  0.567511  0  4.096303  0  0  0.330367  0.524675  0  4.080582  0
C  C55  1  0.73034336  0.34069535  0.93122116  1  0  0.583334  0  3.819214  0  0  0.543346  0  4.084746  0  0  0.569019  0  4.093949  0  0  0.331446  0.526202  0  4.078139  0
C  C56  1  0.99778754  0.84066448  0.43112154  1  0  0.580784  0  3.82265  0  0  0.541772  0  4.087118  0  0  0.56748  0  4.096312  0  0  0.330361  0.524644  0  4.080591  0
C  C57  1  0.26965850  0.65930584  0.06877824  1  0  0.583538  0  3.818997  0  0  0.54355  0  4.084538  0  0  0.569223  0  4.093734  0  0  0.331536  0.526403  0  4.077933  0
C  C58  1  0.06295454  0.98866305  0.68471189  1  0  0.204632  0  3.691063  0  0  0.165953  0  3.949831  0  0  0.180584  0  3.961644  0  0  0.066889  0.156651  0  3.941488  0
C  C59  1  0.73652508  0.51135692  0.81539302  1  0  0.204232  0  3.68869  0  0  0.165478  0  3.947296  0  0  0.180111  0  3.959106  0  0  0.067873  0.156217  0  3.938851  0
C  C60  1  0.93703942  0.01133563  0.31529111  1  0  0.204715  0  3.691201  0  0  0.166012  0  3.949962  0  0  0.180643  0  3.961777  0  0  0.066921  0.156711  0  3.941616  0
C  C61  1  0.26347614  0.48864426  0.18460606  1  0  0.204261  0  3.688686  0  0  0.16551  0  3.947294  0  0  0.180144  0  3.959104  0  0  0.067882  0.156251  0  3.938848  0
C  C62  1  0.15249443  0.93559060  0.59466924  1  0  -0.225226  0  3.747464  0  0  -0.237286  0  4.002564  0  0  -0.250655  0  4.024249  0  0  -0.109982  -0.228969  0  3.988078  0
C  C63  1  0.68282703  0.56445420  0.90546780  1  0  -0.224379  0  3.747753  0  0  -0.236254  0  4.002902  0  0  -0.249575  0  4.024532  0  0  -0.110972  -0.227985  0  3.988471  0
C  C64  1  0.84750058  0.06441060  0.40533218  1  0  -0.225178  0  3.747291  0  0  -0.237177  0  4.002416  0  0  -0.250544  0  4.024092  0  0  -0.10992  -0.228866  0  3.987939  0
C  C65  1  0.31717492  0.43554697  0.09453054  1  0  -0.224353  0  3.747749  0  0  -0.236244  0  4.002888  0  0  -0.249569  0  4.02452  0  0  -0.110936  -0.227972  0  3.988451  0
C  C66  1  0.15520657  0.00229067  0.49300691  1  0  0.189119  0  3.739625  0  0  0.156143  0  3.997318  0  0  0.169172  0  4.011103  0  0  0.056568  0.147927  0  3.987825  0
C  C67  1  0.65037820  0.49775951  0.00712554  1  0  0.187977  0  3.740495  0  0  0.154934  0  3.998295  0  0  0.167976  0  4.0121  0  0  0.055007  0.146692  0  3.988828  0
C  C68  1  0.84479316  0.99770884  0.50699464  1  0  0.189047  0  3.739653  0  0  0.156054  0  3.997343  0  0  0.169092  0  4.011129  0  0  0.056539  0.147841  0  3.987846  0
C  C69  1  0.34962340  0.50224250  0.99287265  1  0  0.187798  0  3.740682  0  0  0.154763  0  3.998483  0  0  0.167804  0  4.01229  0  0  0.054925  0.146531  0  3.989018  0
C  C70  1  0.81790143  0.36150151  0.40728454  1  0  -0.184504  0  3.798633  0  0  -0.162037  0  4.058957  0  0  -0.172642  0  4.081529  0  0  -0.049311  -0.155214  0  4.043718  0
C  C71  1  0.58684538  0.13832540  0.09287552  1  0  -0.188323  0  3.801974  0  0  -0.165707  0  4.062479  0  0  -0.176423  0  4.08515  0  0  -0.050717  -0.15888  0  4.047287  0
C  C72  1  0.18210028  0.63849713  0.59271358  1  0  -0.184453  0  3.798605  0  0  -0.162026  0  4.058992  0  0  -0.172631  0  4.081566  0  0  -0.049294  -0.155199  0  4.04375  0
C  C73  1  0.41315208  0.86167495  0.90712492  1  0  -0.188408  0  3.802064  0  0  -0.165793  0  4.06255  0  0  -0.176499  0  4.085218  0  0  -0.050731  -0.158958  0  4.047351  0
C  C74  1  0.68014713  0.36999111  0.46641779  1  0  -0.043311  0  3.809042  0  0  -0.070215  0  4.062204  0  0  -0.064827  0  4.080929  0  0  -0.092287  -0.073376  0  4.04937  0
C  C75  1  0.51670828  0.12972280  0.03378725  1  0  -0.038281  0  3.80574  0  0  -0.064799  0  4.059022  0  0  -0.059275  0  4.07771  0  0  -0.090916  -0.068064  0  4.046168  0
C  C76  1  0.31985624  0.63000837  0.53358011  1  0  -0.043328  0  3.809029  0  0  -0.070226  0  4.0622  0  0  -0.064847  0  4.080928  0  0  -0.092283  -0.073389  0  4.049361  0
C  C77  1  0.48329530  0.87027754  0.96621188  1  0  -0.038252  0  3.805688  0  0  -0.064764  0  4.058966  0  0  -0.059243  0  4.077653  0  0  -0.090857  -0.068015  0  4.046124  0
C  C78  1  0.59696523  0.36663564  0.41739711  1  0  -0.217628  0  3.732615  0  0  -0.228204  0  3.979661  0  0  -0.237205  0  3.998766  0  0  -0.112339  -0.222441  0  3.966934  0
C  C79  1  0.38114678  0.13311003  0.08285998  1  0  -0.221738  0  3.735006  0  0  -0.232923  0  3.981957  0  0  -0.241939  0  4.000928  0  0  -0.113619  -0.227113  0  3.969305  0
C  C80  1  0.40303911  0.63336132  0.58260228  1  0  -0.217609  0  3.732691  0  0  -0.228173  0  3.979763  0  0  -0.237173  0  3.998868  0  0  -0.112354  -0.222413  0  3.967038  0
C  C81  1  0.61885310  0.86688778  0.91714049  1  0  -0.221797  0  3.735014  0  0  -0.233006  0  3.981971  0  0  -0.242024  0  4.000943  0  0  -0.113673  -0.227207  0  3.969311  0
C  C82  1  0.64913373  0.35527656  0.30630505  1  0  0.334026  0  3.865698  0  0  0.326278  0  4.112666  0  0  0.340557  0  4.130232  0  0  0.103896  0.316719  0  4.100429  0
C  C83  1  0.31095310  0.14470320  0.19389643  1  0  0.333662  0  3.870717  0  0  0.32737  0  4.115779  0  0  0.341723  0  4.133257  0  0  0.10515  0.317813  0  4.103571  0
C  C84  1  0.35086728  0.64472376  0.69369279  1  0  0.334001  0  3.86569  0  0  0.326195  0  4.112748  0  0  0.340474  0  4.130313  0  0  0.103856  0.316637  0  4.100511  0
C  C85  1  0.68904951  0.85529461  0.80610322  1  0  0.333745  0  3.870552  0  0  0.327461  0  4.115614  0  0  0.341816  0  4.13309  0  0  0.105157  0.317904  0  4.10341  0
C  C86  1  0.78845129  0.34729063  0.24725058  1  0  -0.213209  0  3.710796  0  0  -0.223776  0  3.957696  0  0  -0.232409  0  3.975813  0  0  -0.110373  -0.218112  0  3.94547  0
C  C87  1  0.38326449  0.15269130  0.25295402  1  0  -0.213821  0  3.711224  0  0  -0.224433  0  3.957607  0  0  -0.233094  0  3.975734  0  0  -0.111563  -0.218832  0  3.945463  0
C  C88  1  0.21155060  0.65270719  0.75274981  1  0  -0.213173  0  3.710642  0  0  -0.223721  0  3.957578  0  0  -0.232353  0  3.975693  0  0  -0.11034  -0.218059  0  3.945354  0
C  C89  1  0.61673571  0.84730904  0.74704560  1  0  -0.213845  0  3.711229  0  0  -0.22446  0  3.957609  0  0  -0.233124  0  3.97574  0  0  -0.111555  -0.218859  0  3.945462  0
C  C90  1  0.87094066  0.35104851  0.29724282  1  0  -0.053242  0  3.813758  0  0  -0.078871  0  4.066208  0  0  -0.07342  0  4.083668  0  0  -0.091479  -0.082156  0  4.054002  0
C  C91  1  0.51951585  0.14883233  0.20291233  1  0  -0.051983  0  3.813966  0  0  -0.077576  0  4.066569  0  0  -0.072171  0  4.084002  0  0  -0.090616  -0.080843  0  4.054504  0
C  C92  1  0.12906242  0.64895012  0.70275490  1  0  -0.05322  0  3.813749  0  0  -0.078864  0  4.066181  0  0  -0.073418  0  4.083646  0  0  -0.091418  -0.082149  0  4.053976  0
C  C93  1  0.48048339  0.85116973  0.79709018  1  0  -0.051915  0  3.814019  0  0  -0.077509  0  4.066611  0  0  -0.072105  0  4.084044  0  0  -0.090598  -0.080777  0  4.054546  0
C  C94  1  0.65596849  0.15385522  0.74879969  1  0  0.127654  0  3.700213  0  0  0.096487  0  3.957206  0  0  0.103202  0  3.973339  0  0  0.047508  0.092142  0  3.94605  0
C  C95  1  0.55901626  0.34571040  0.75106121  1  0  0.123954  0  3.700673  0  0  0.092724  0  3.957692  0  0  0.099373  0  3.973801  0  0  0.045986  0.088396  0  3.946614  0
C  C96  1  0.34403005  0.84614428  0.25120016  1  0  0.127656  0  3.699912  0  0  0.096493  0  3.956935  0  0  0.103206  0  3.973068  0  0  0.047496  0.09215  0  3.945775  0
C  C97  1  0.44098318  0.65428827  0.24894017  1  0  0.123875  0  3.700697  0  0  0.092648  0  3.957729  0  0  0.099299  0  3.97384  0  0  0.045971  0.088323  0  3.946648  0
C  C98  1  0.53527704  0.15005041  0.74886472  1  0  -0.15714  0  3.687272  0  0  -0.173439  0  3.929612  0  0  -0.180716  0  3.950511  0  0  -0.078266  -0.168639  0  3.915354  0
C  C99  1  0.43468525  0.34954525  0.75076367  1  0  -0.154048  0  3.688218  0  0  -0.169948  0  3.930372  0  0  -0.177205  0  3.951279  0  0  -0.076973  -0.165108  0  3.91613  0
C  C100  1  0.46472248  0.84994824  0.25113560  1  0  -0.157183  0  3.687311  0  0  -0.173443  0  3.929678  0  0  -0.18072  0  3.950578  0  0  -0.078278  -0.16865  0  3.915426  0
C  C101  1  0.56531518  0.65045258  0.24923818  1  0  -0.153999  0  3.688129  0  0  -0.169894  0  3.930307  0  0  -0.177151  0  3.951212  0  0  -0.076988  -0.165055  0  3.916062  0
C  C102  1  0.42119445  0.24980360  0.74976469  1  0  0.107434  0  3.756238  0  0  0.120288  0  3.980666  0  0  0.124732  0  4.001194  0  0  0.016868  0.117535  0  3.966489  0
C  C103  1  0.57880519  0.75019593  0.25023793  1  0  0.107424  0  3.756295  0  0  0.120243  0  3.980752  0  0  0.124689  0  4.001278  0  0  0.016829  0.117492  0  3.966575  0
C  C104  1  0.29131892  0.24980696  0.74975953  1  0  0.084477  0  3.788914  0  0  0.098904  0  4.012993  0  0  0.101922  0  4.035215  0  0  0.008345  0.097139  0  3.997676  0
C  C105  1  0.70868006  0.75019088  0.25024378  1  0  0.084401  0  3.788987  0  0  0.098861  0  4.013045  0  0  0.101879  0  4.035266  0  0  0.008329  0.097096  0  3.997728  0
C  C106  1  0.23941945  0.16285094  0.81367222  1  0  -0.160365  0  3.702457  0  0  -0.177612  0  3.944109  0  0  -0.185365  0  3.965457  0  0  -0.085699  -0.172548  0  3.9297  0
C  C107  1  0.21649089  0.33679319  0.68589007  1  0  -0.155988  0  3.698895  0  0  -0.172993  0  3.940046  0  0  -0.180657  0  3.96144  0  0  -0.082782  -0.167973  0  3.925554  0
C  C108  1  0.76058191  0.83714854  0.18632575  1  0  -0.160279  0  3.702374  0  0  -0.177541  0  3.944034  0  0  -0.185292  0  3.96538  0  0  -0.085649  -0.172477  0  3.929624  0
C  C109  1  0.78350843  0.66320887  0.31411138  1  0  -0.155992  0  3.698864  0  0  -0.172996  0  3.940002  0  0  -0.180663  0  3.961399  0  0  -0.0828  -0.167975  0  3.925509  0
C  C110  1  0.11587395  0.16642691  0.81213556  1  0  0.145574  0  3.666742  0  0  0.114203  0  3.915634  0  0  0.121568  0  3.932979  0  0  0.052527  0.109391  0  3.903781  0
C  C111  1  0.09480036  0.33341191  0.68757862  1  0  0.144308  0  3.663785  0  0  0.112666  0  3.913279  0  0  0.119977  0  3.930568  0  0  0.051927  0.107916  0  3.901389  0
C  C112  1  0.88412386  0.83357180  0.18786940  1  0  0.14541  0  3.667024  0  0  0.114022  0  3.915917  0  0  0.121384  0  3.933265  0  0  0.052504  0.109208  0  3.904063  0
C  C113  1  0.90519637  0.66658844  0.31242255  1  0  0.144195  0  3.663665  0  0  0.112557  0  3.913121  0  0  0.119867  0  3.93041  0  0  0.051881  0.107808  0  3.901231  0
S  S114  1  0.91866561  0.37269900  0.47097602  1  0  1.24896  0  5.457717  0  0  1.161554  0  5.969665  0  0  1.20748  0  5.953506  0  0  0.544758  1.12989  0  5.979955  0
S  S115  1  0.76238763  0.12737134  0.02917826  1  0  1.248534  0  5.469333  0  0  1.160246  0  5.982096  0  0  1.206236  0  5.965859  0  0  0.54518  1.128549  0  5.992356  0
S  S116  1  0.08134138  0.62729876  0.52901924  1  0  1.248939  0  5.45784  0  0  1.161542  0  5.969796  0  0  1.207475  0  5.953627  0  0  0.544775  1.129879  0  5.98008  0
S  S117  1  0.23761150  0.87263330  0.97082869  1  0  1.248468  0  5.469341  0  0  1.160196  0  5.982082  0  0  1.206171  0  5.965867  0  0  0.545046  1.128493  0  5.992351  0
N  N118  1  0.98694135  0.09797794  0.67231183  1  0  -0.452729  0  3.147868  0  0  -0.378264  0  3.416677  0  0  -0.401522  0  3.427598  0  0  -0.330542  -0.362944  0  3.409192  0
N  N119  1  0.75733994  0.40204701  0.82776875  1  0  -0.45267  0  3.144735  0  0  -0.377883  0  3.41398  0  0  -0.401121  0  3.424928  0  0  -0.331269  -0.362534  0  3.40635  0
N  N120  1  0.01305407  0.90202578  0.32768770  1  0  -0.452794  0  3.147951  0  0  -0.378269  0  3.416742  0  0  -0.401521  0  3.42766  0  0  -0.330544  -0.362945  0  3.409252  0
N  N121  1  0.24266026  0.59795333  0.17223088  1  0  -0.452764  0  3.144725  0  0  -0.377974  0  3.413979  0  0  -0.401211  0  3.424922  0  0  -0.331285  -0.362624  0  3.406349  0
N  N122  1  0.08210771  0.11288201  0.47797811  1  0  -0.445714  0  3.050814  0  0  -0.394701  0  3.308938  0  0  -0.414171  0  3.320785  0  0  -0.322022  -0.381979  0  3.301001  0
N  N123  1  0.67278149  0.38716752  0.02211778  1  0  -0.446633  0  3.050713  0  0  -0.395137  0  3.308838  0  0  -0.414567  0  3.320675  0  0  -0.322093  -0.382431  0  3.300894  0
N  N124  1  0.91789076  0.88711918  0.52202178  1  0  -0.44569  0  3.050826  0  0  -0.394663  0  3.308981  0  0  -0.414127  0  3.320816  0  0  -0.322022  -0.38194  0  3.301045  0
N  N125  1  0.32722037  0.61283367  0.97788162  1  0  -0.446555  0  3.050805  0  0  -0.395064  0  3.308935  0  0  -0.414494  0  3.320771  0  0  -0.322062  -0.382357  0  3.300986  0
N  N126  1  0.92759350  0.26991012  0.57292439  1  0  -0.720538  0  3.122517  0  0  -0.653577  0  3.432152  0  0  -0.6838  0  3.434404  0  0  -0.403654  -0.632803  0  3.429694  0
N  N127  1  0.77037326  0.23009893  0.92715092  1  0  -0.720925  0  3.123792  0  0  -0.653509  0  3.434053  0  0  -0.683782  0  3.436497  0  0  -0.403303  -0.632695  0  3.431659  0
N  N128  1  0.07240597  0.73009023  0.42707597  1  0  -0.72054  0  3.122616  0  0  -0.65355  0  3.432273  0  0  -0.683781  0  3.43453  0  0  -0.403635  -0.632785  0  3.429828  0
N  N129  1  0.22962788  0.76990227  0.07284920  1  0  -0.721073  0  3.123874  0  0  -0.653669  0  3.434166  0  0  -0.683935  0  3.436603  0  0  -0.403361  -0.632851  0  3.431773  0
N  N130  1  0.56673132  0.35547704  0.25682536  1  0  -0.667494  0  3.166989  0  0  -0.630079  0  3.402803  0  0  -0.651625  0  3.402896  0  0  -0.586427  -0.614798  0  3.402067  0
N  N131  1  0.17919845  0.14472701  0.24334702  1  0  -0.665789  0  3.169061  0  0  -0.629275  0  3.403362  0  0  -0.650804  0  3.403492  0  0  -0.586657  -0.61398  0  3.402591  0
N  N132  1  0.43327089  0.64452330  0.74317419  1  0  -0.667502  0  3.166953  0  0  -0.630062  0  3.402766  0  0  -0.651611  0  3.402856  0  0  -0.586447  -0.614779  0  3.402028  0
N  N133  1  0.82080527  0.85527162  0.75665102  1  0  -0.665917  0  3.169185  0  0  -0.629424  0  3.403455  0  0  -0.650951  0  3.403613  0  0  -0.586708  -0.614132  0  3.402672  0
N  N134  1  0.66805872  0.24979264  0.74998843  1  0  -0.301231  0  3.293111  0  0  -0.223755  0  3.557615  0  0  -0.240855  0  3.574722  0  0  -0.320985  -0.211835  0  3.545407  0
N  N135  1  0.33194077  0.75020434  0.25001291  1  0  -0.30112  0  3.292844  0  0  -0.223669  0  3.557387  0  0  -0.240764  0  3.574489  0  0  -0.320921  -0.211746  0  3.545174  0
N  N136  1  0.04532682  0.24997956  0.74992349  1  0  -0.309842  0  3.296855  0  0  -0.22885  0  3.555613  0  0  -0.247893  0  3.574844  0  0  -0.322363  -0.215642  0  3.542066  0
N  N137  1  0.95467414  0.75002245  0.25007438  1  0  -0.309707  0  3.296897  0  0  -0.228683  0  3.55561  0  0  -0.247722  0  3.574839  0  0  -0.322334  -0.215475  0  3.542061  0
O  O138  1  0.83720251  0.47280275  0.52236722  1  0  -0.621064  0  1.880019  0  0  -0.580276  0  2.120202  0  0  -0.600419  0  2.108052  0  0  -0.33756  -0.566179  0  2.128279  0
O  O139  1  0.83260529  0.02716272  0.97792265  1  0  -0.62243  0  1.88369  0  0  -0.580806  0  2.123722  0  0  -0.600986  0  2.111606  0  0  -0.338668  -0.5666  0  2.131696  0
O  O140  1  0.16279308  0.52720015  0.47763457  1  0  -0.620965  0  1.880296  0  0  -0.580187  0  2.120499  0  0  -0.600325  0  2.108341  0  0  -0.337558  -0.566088  0  2.128574  0
O  O141  1  0.16739977  0.97283423  0.02207600  1  0  -0.622269  0  1.884071  0  0  -0.580629  0  2.12406  0  0  -0.6008  0  2.111949  0  0  -0.338564  -0.566426  0  2.132038  0
O  O142  1  0.05281366  0.36739614  0.38960101  1  0  -0.619019  0  1.907441  0  0  -0.578083  0  2.149542  0  0  -0.598197  0  2.137334  0  0  -0.330568  -0.563998  0  2.157572  0
O  O143  1  0.80967849  0.13303332  0.11052119  1  0  -0.619243  0  1.913368  0  0  -0.578072  0  2.155903  0  0  -0.598188  0  2.143677  0  0  -0.330977  -0.563942  0  2.163912  0
O  O144  1  0.94718121  0.63260677  0.61040151  1  0  -0.619092  0  1.907105  0  0  -0.578178  0  2.149218  0  0  -0.598293  0  2.137009  0  0  -0.330609  -0.564091  0  2.157248  0
O  O145  1  0.19032025  0.86696784  0.88947553  1  0  -0.61929  0  1.912824  0  0  -0.578131  0  2.155329  0  0  -0.598241  0  2.143109  0  0  -0.330973  -0.564002  0  2.16334  0
