# generated using pymatgen
data_CuH12C8N3
_symmetry_space_group_name_H-M   'P 1'
_cell_length_a   12.17180124
_cell_length_b   12.19067754
_cell_length_c   12.32400000
_cell_angle_alpha   106.27689661
_cell_angle_beta   106.30284263
_cell_angle_gamma   105.91113509
_symmetry_Int_Tables_number   1
_chemical_formula_structural   CuH12C8N3
_chemical_formula_sum   'Cu6 H72 C48 N18'
_cell_volume   1556.35252927
_cell_formula_units_Z   6
loop_
 _symmetry_equiv_pos_site_id
 _symmetry_equiv_pos_as_xyz
  1  'x, y, z'
loop_
 _atom_site_type_symbol
 _atom_site_label
 _atom_site_symmetry_multiplicity
 _atom_site_fract_x
 _atom_site_fract_y
 _atom_site_fract_z
 _atom_site_occupancy
 _atom_site_hle17_bader_spin_density
 _atom_site_hle17_ddec_charge
 _atom_site_hle17_ddec_spin_density
 _atom_site_hle17_ddec_sum_bond_order
 _atom_site_hle17_magmom
 _atom_site_hse06_10hf_bader_spin_density
 _atom_site_hse06_10hf_ddec_charge
 _atom_site_hse06_10hf_ddec_spin_density
 _atom_site_hse06_10hf_ddec_sum_bond_order
 _atom_site_hse06_10hf_magmom
 _atom_site_hse06_bader_spin_density
 _atom_site_hse06_ddec_charge
 _atom_site_hse06_ddec_spin_density
 _atom_site_hse06_ddec_sum_bond_order
 _atom_site_hse06_magmom
 _atom_site_pbe_bader_charge
 _atom_site_pbe_bader_spin_density
 _atom_site_pbe_cm5_charge
 _atom_site_pbe_ddec_charge
 _atom_site_pbe_ddec_spin_density
 _atom_site_pbe_ddec_sum_bond_order
 _atom_site_pbe_magmom
Cu  Cu0  1  0.97850146  0.60009125  0.11250195  1  0  0.416242  0  1.953158  0  0  0.292521  0  2.434023  0  0  0.297304  0  2.389245  0  0.6365  0  0.550857  0.291872  0  2.463063  0
Cu  Cu1  1  0.11155828  0.97630774  0.59880717  1  0  0.414838  0  1.948491  0  0  0.290253  0  2.429212  0  0  0.295206  0  2.384392  0  0.635905  0  0.548246  0.289405  0  2.458372  0
Cu  Cu2  1  0.60028394  0.11142396  0.97866868  1  0  0.415987  0  1.952159  0  0  0.291921  0  2.433299  0  0  0.296846  0  2.388277  0  0.636876  0  0.549619  0.291112  0  2.462571  0
Cu  Cu3  1  0.02150438  0.39991035  0.88749590  1  0  0.416237  0  1.953125  0  0  0.292522  0  2.433981  0  0  0.29729  0  2.389224  0  0.636308  0  0.550853  0.291871  0  2.463029  0
Cu  Cu4  1  0.88844116  0.02368831  0.40118899  1  0  0.414871  0  1.948404  0  0  0.290294  0  2.429109  0  0  0.295242  0  2.384284  0  0.635915  0  0.548258  0.289444  0  2.458273  0
Cu  Cu5  1  0.39971918  0.88857949  0.02133298  1  0  0.415975  0  1.952198  0  0  0.291914  0  2.433341  0  0  0.296844  0  2.388324  0  0.636716  0  0.549634  0.291113  0  2.462631  0
H  H6  1  0.16119329  0.85724916  0.24084576  1  0  0.086451  0  0.96145  0  0  0.101843  0  1.021516  0  0  0.102867  0  1.022068  0  0.060948  0  0.09663  0.101049  0  1.021211  0
H  H7  1  0.24175822  0.15996340  0.85649562  1  0  0.089039  0  0.96296  0  0  0.104547  0  1.022051  0  0  0.105516  0  1.022802  0  0.055374  0  0.098502  0.103818  0  1.021633  0
H  H8  1  0.85728951  0.24277675  0.16236086  1  0  0.086437  0  0.961961  0  0  0.101484  0  1.022623  0  0  0.102505  0  1.023165  0  0.049133  0  0.09691  0.100662  0  1.022361  0
H  H9  1  0.83880500  0.14275059  0.75914948  1  0  0.086472  0  0.961403  0  0  0.101858  0  1.021466  0  0  0.102882  0  1.022017  0  0.060871  0  0.096639  0.101065  0  1.021159  0
H  H10  1  0.75824122  0.84003265  0.14350702  1  0  0.089054  0  0.962903  0  0  0.104509  0  1.022055  0  0  0.105481  0  1.022805  0  0.055422  0  0.098481  0.103781  0  1.021636  0
H  H11  1  0.14270739  0.75723503  0.83764950  1  0  0.086458  0  0.96188  0  0  0.101523  0  1.022514  0  0  0.102572  0  1.023023  0  0.048697  0  0.096895  0.100713  0  1.022252  0
H  H12  1  0.32160954  0.91288297  0.27122304  1  0  0.084777  0  0.92104  0  0  0.107264  0  0.972403  0  0  0.107932  0  0.972728  0  0.048691  0  0.099458  0.10663  0  0.972424  0
H  H13  1  0.27232437  0.32024410  0.91173461  1  0  0.085215  0  0.922457  0  0  0.107332  0  0.974055  0  0  0.108044  0  0.974388  0  0.020186  0  0.099611  0.106716  0  0.974053  0
H  H14  1  0.91374597  0.27306360  0.32109540  1  0  0.084244  0  0.92105  0  0  0.107183  0  0.972032  0  0  0.107879  0  0.972313  0  0.05344  0  0.099748  0.106541  0  0.97204  0
H  H15  1  0.67839131  0.08711678  0.72878021  1  0  0.084751  0  0.921082  0  0  0.107246  0  0.972422  0  0  0.107911  0  0.972751  0  0.048799  0  0.099461  0.106614  0  0.972443  0
H  H16  1  0.72767799  0.67975288  0.08826423  1  0  0.08525  0  0.92248  0  0  0.107376  0  0.974048  0  0  0.108089  0  0.974386  0  0.020154  0  0.099639  0.10676  0  0.974046  0
H  H17  1  0.08625359  0.72694171  0.67891228  1  0  0.084287  0  0.921125  0  0  0.107216  0  0.972104  0  0  0.107919  0  0.97238  0  0.053313  0  0.099741  0.106581  0  0.972123  0
H  H18  1  0.23489658  0.06664124  0.23025107  1  0  0.099589  0  0.946077  0  0  0.124424  0  0.998372  0  0  0.125383  0  0.999712  0  0.023715  0  0.088812  0.123737  0  0.997449  0
H  H19  1  0.23070245  0.23492104  0.06353634  1  0  0.099654  0  0.946368  0  0  0.12434  0  0.998825  0  0  0.125295  0  1.000125  0  0.045457  0  0.088819  0.123648  0  0.997933  0
H  H20  1  0.06692542  0.23055470  0.23508761  1  0  0.099961  0  0.944243  0  0  0.124263  0  0.997272  0  0  0.125257  0  0.998517  0  0.020871  0  0.088683  0.123555  0  0.996407  0
H  H21  1  0.76510740  0.93336221  0.76975570  1  0  0.099547  0  0.946098  0  0  0.124422  0  0.998361  0  0  0.125385  0  0.999695  0  0.023817  0  0.088791  0.123736  0  0.997438  0
H  H22  1  0.76929790  0.76507964  0.93646378  1  0  0.099671  0  0.946381  0  0  0.124359  0  0.998832  0  0  0.125315  0  1.000129  0  0.04545  0  0.08882  0.123668  0  0.997939  0
H  H23  1  0.93307420  0.76945523  0.76491487  1  0  0.099926  0  0.944329  0  0  0.12426  0  0.997321  0  0  0.125257  0  0.998563  0  0.020868  0  0.088691  0.123552  0  0.996454  0
H  H24  1  0.12497267  0.95380167  0.08397639  1  0  0.086242  0  0.969097  0  0  0.107471  0  1.032049  0  0  0.108364  0  1.033207  0  -0.01464  0  0.082957  0.106763  0  1.03133  0
H  H25  1  0.08325347  0.12483473  0.95164277  1  0  0.087737  0  0.970141  0  0  0.108902  0  1.032555  0  0  0.109761  0  1.033732  0  0.044997  0  0.083703  0.10821  0  1.031818  0
H  H26  1  0.95338371  0.08375137  0.12566554  1  0  0.08742  0  0.968377  0  0  0.108805  0  1.030695  0  0  0.109668  0  1.031874  0  0.021909  0  0.083638  0.10812  0  1.029957  0
H  H27  1  0.87502946  0.04620363  0.91602388  1  0  0.086285  0  0.969144  0  0  0.107515  0  1.03209  0  0  0.108394  0  1.033261  0  -0.014699  0  0.082973  0.106806  0  1.031371  0
H  H28  1  0.91674688  0.87516595  0.04835816  1  0  0.087732  0  0.97018  0  0  0.108883  0  1.032605  0  0  0.109741  0  1.033783  0  0.044988  0  0.083703  0.108191  0  1.031866  0
H  H29  1  0.04661092  0.91625671  0.87433667  1  0  0.087398  0  0.968426  0  0  0.108749  0  1.030789  0  0  0.109613  0  1.031969  0  0.021794  0  0.083606  0.108065  0  1.030049  0
H  H30  1  0.28590088  0.00746995  0.11316855  1  0  0.082379  0  0.982518  0  0  0.097046  0  1.061053  0  0  0.101171  0  1.056845  0  0.026768  0  0.074809  0.093952  0  1.064191  0
H  H31  1  0.11179618  0.28549286  0.00476686  1  0  0.082947  0  0.981546  0  0  0.097461  0  1.060008  0  0  0.10154  0  1.05591  0  0.014293  0  0.074607  0.094398  0  1.063059  0
H  H32  1  0.00769265  0.11196791  0.28468404  1  0  0.082534  0  0.981598  0  0  0.097485  0  1.059346  0  0  0.101435  0  1.055451  0  0.024147  0  0.075278  0.094489  0  1.062283  0
H  H33  1  0.71410416  0.99253628  0.88683685  1  0  0.0823  0  0.982589  0  0  0.097004  0  1.061088  0  0  0.101127  0  1.056882  0  0.026808  0  0.074783  0.09391  0  1.064226  0
H  H34  1  0.88820418  0.71450782  0.99523326  1  0  0.082957  0  0.981555  0  0  0.097468  0  1.060018  0  0  0.101547  0  1.055917  0  0.014272  0  0.074605  0.094405  0  1.063069  0
H  H35  1  0.99230747  0.88804110  0.71531914  1  0  0.082476  0  0.981579  0  0  0.097446  0  1.05932  0  0  0.101391  0  1.05543  0  0.023865  0  0.075247  0.094451  0  1.062256  0
H  H36  1  0.27775039  0.62800529  0.80208496  1  0  0.079117  0  0.930492  0  0  0.096743  0  0.989997  0  0  0.098057  0  0.989298  0  0.019671  0  0.094736  0.09575  0  0.990565  0
H  H37  1  0.79992486  0.27938924  0.62713805  1  0  0.078927  0  0.927774  0  0  0.097342  0  0.986423  0  0  0.098701  0  0.985704  0  0.043363  0  0.094701  0.096275  0  0.987095  0
H  H38  1  0.62741850  0.80114449  0.27726571  1  0  0.079905  0  0.928584  0  0  0.097496  0  0.988083  0  0  0.098863  0  0.987401  0  0.021334  0  0.094862  0.096471  0  0.98865  0
H  H39  1  0.72225879  0.37200279  0.19791885  1  0  0.079183  0  0.93053  0  0  0.096798  0  0.990036  0  0  0.098115  0  0.98934  0  0.02002  0  0.094758  0.095804  0  0.990602  0
H  H40  1  0.20007407  0.72060774  0.37286228  1  0  0.078899  0  0.927816  0  0  0.097311  0  0.986471  0  0  0.098669  0  0.985753  0  0.043332  0  0.094692  0.09624  0  0.98714  0
H  H41  1  0.37258462  0.19885897  0.72273839  1  0  0.079901  0  0.928629  0  0  0.097503  0  0.988112  0  0  0.09887  0  0.98743  0  0.021322  0  0.094881  0.096475  0  0.988682  0
H  H42  1  0.21947265  0.48348596  0.81289421  1  0  0.086349  0  0.953297  0  0  0.098138  0  1.020118  0  0  0.100084  0  1.019425  0  0.068233  0  0.094218  0.096712  0  1.020621  0
H  H43  1  0.81190675  0.22036411  0.48444677  1  0  0.086431  0  0.95354  0  0  0.09853  0  1.020067  0  0  0.100523  0  1.019363  0  0.079486  0  0.094315  0.09708  0  1.020578  0
H  H44  1  0.48291021  0.81334341  0.21956086  1  0  0.086661  0  0.952963  0  0  0.098819  0  1.019326  0  0  0.100721  0  1.01875  0  0.063469  0  0.094449  0.097428  0  1.019757  0
H  H45  1  0.78052655  0.51651842  0.18709688  1  0  0.086351  0  0.953335  0  0  0.098167  0  1.020133  0  0  0.100117  0  1.019439  0  0.068533  0  0.094213  0.096743  0  1.020635  0
H  H46  1  0.18809546  0.77963472  0.51555335  1  0  0.086476  0  0.95347  0  0  0.098564  0  1.020012  0  0  0.10056  0  1.019305  0  0.079494  0  0.094322  0.097109  0  1.020523  0
H  H47  1  0.51708866  0.18664895  0.78043411  1  0  0.08666  0  0.952967  0  0  0.098825  0  1.019331  0  0  0.100727  0  1.018753  0  0.063484  0  0.09443  0.097431  0  1.019772  0
H  H48  1  0.44812139  0.55007817  0.86119825  1  0  0.092761  0  0.961987  0  0  0.11504  0  1.021384  0  0  0.115955  0  1.022504  0  0.014928  0  0.083428  0.114368  0  1.020612  0
H  H49  1  0.86092952  0.44890030  0.55068446  1  0  0.091877  0  0.960712  0  0  0.113819  0  1.020934  0  0  0.114735  0  1.02205  0  0.008715  0  0.083083  0.113149  0  1.020152  0
H  H50  1  0.55002235  0.86027785  0.44519006  1  0  0.093508  0  0.961437  0  0  0.115338  0  1.021235  0  0  0.116226  0  1.022369  0  0.040214  0  0.083577  0.114662  0  1.020473  0
H  H51  1  0.55187890  0.44991788  0.13880057  1  0  0.092791  0  0.961988  0  0  0.115071  0  1.021383  0  0  0.115986  0  1.022506  0  0.014964  0  0.083432  0.114399  0  1.020612  0
H  H52  1  0.13906684  0.55109668  0.44931597  1  0  0.091833  0  0.960727  0  0  0.113773  0  1.020955  0  0  0.114689  0  1.02207  0  0.008499  0  0.08307  0.113105  0  1.020172  0
H  H53  1  0.44997059  0.13971913  0.55480698  1  0  0.093493  0  0.961441  0  0  0.115305  0  1.021265  0  0  0.116191  0  1.022398  0  0.040201  0  0.083571  0.114631  0  1.0205  0
H  H54  1  0.42037380  0.54817067  0.99531660  1  0  0.092978  0  0.957642  0  0  0.113794  0  1.01953  0  0  0.114708  0  1.020644  0  0.034738  0  0.084722  0.113087  0  1.018801  0
H  H55  1  0.99647841  0.42009542  0.54944320  1  0  0.092764  0  0.957067  0  0  0.11374  0  1.019013  0  0  0.114628  0  1.020172  0  0.034519  0  0.084947  0.113032  0  1.018272  0
H  H56  1  0.54802535  0.99647986  0.41908340  1  0  0.093367  0  0.959553  0  0  0.114957  0  1.020478  0  0  0.115874  0  1.021624  0  0.031408  0  0.085407  0.114253  0  1.019716  0
H  H57  1  0.57962064  0.45182353  0.00468252  1  0  0.093004  0  0.957659  0  0  0.113816  0  1.019545  0  0  0.114731  0  1.020658  0  0.03479  0  0.084725  0.113111  0  1.018815  0
H  H58  1  0.00352123  0.57990341  0.45055783  1  0  0.092776  0  0.957068  0  0  0.113756  0  1.019006  0  0  0.114643  0  1.020165  0  0.034443  0  0.084967  0.113049  0  1.018263  0
H  H59  1  0.45196738  0.00351435  0.58091200  1  0  0.093386  0  0.95949  0  0  0.114978  0  1.020408  0  0  0.115889  0  1.021557  0  0.031318  0  0.085402  0.114272  0  1.019649  0
H  H60  1  0.47772934  0.69097770  0.97964922  1  0  0.090896  0  0.964712  0  0  0.107457  0  1.035998  0  0  0.110499  0  1.033625  0  0.021211  0  0.080794  0.10513  0  1.037848  0
H  H61  1  0.97996435  0.47820195  0.69062408  1  0  0.090421  0  0.965496  0  0  0.107428  0  1.036122  0  0  0.110458  0  1.033796  0  0.02225  0  0.080763  0.105123  0  1.037914  0
H  H62  1  0.69106804  0.97971941  0.47571851  1  0  0.090544  0  0.966455  0  0  0.10739  0  1.037527  0  0  0.110456  0  1.035131  0  0.017267  0  0.080415  0.105039  0  1.039383  0
H  H63  1  0.52226974  0.30901743  0.02035225  1  0  0.090861  0  0.964694  0  0  0.107433  0  1.036  0  0  0.110476  0  1.033628  0  0.021164  0  0.080773  0.105104  0  1.037852  0
H  H64  1  0.02003621  0.52180150  0.30937849  1  0  0.090406  0  0.965492  0  0  0.107397  0  1.036131  0  0  0.110417  0  1.033815  0  0.022298  0  0.080768  0.105093  0  1.037921  0
H  H65  1  0.30892148  0.02027757  0.52427840  1  0  0.090521  0  0.966406  0  0  0.107379  0  1.037456  0  0  0.110437  0  1.035071  0  0.017198  0  0.080408  0.105027  0  1.039311  0
H  H66  1  0.23029760  0.56813465  0.19777203  1  0  0.209987  0  0.970433  0  0  0.20567  0  1.033892  0  0  0.212077  0  1.028345  0  0.215678  0  0.133539  0.201036  0  1.038095  0
H  H67  1  0.19814203  0.23083222  0.56807601  1  0  0.210153  0  0.968387  0  0  0.206151  0  1.031154  0  0  0.212461  0  1.025806  0  0.212649  0  0.134019  0.201582  0  1.035249  0
H  H68  1  0.56819294  0.19867210  0.23156311  1  0  0.21017  0  0.9695  0  0  0.206513  0  1.031468  0  0  0.212728  0  1.026304  0  0.21435  0  0.134065  0.201997  0  1.035471  0
H  H69  1  0.76970233  0.43186048  0.80222968  1  0  0.209993  0  0.970379  0  0  0.205671  0  1.033849  0  0  0.212078  0  1.028299  0  0.215144  0  0.133526  0.201036  0  1.038053  0
H  H70  1  0.80186694  0.76917308  0.43192697  1  0  0.210111  0  0.968312  0  0  0.206101  0  1.031114  0  0  0.212414  0  1.025761  0  0.212862  0  0.133982  0.201528  0  1.035221  0
H  H71  1  0.43180534  0.80132765  0.76843700  1  0  0.210122  0  0.969433  0  0  0.206461  0  1.031433  0  0  0.212674  0  1.026273  0  0.214396  0  0.13406  0.201945  0  1.035436  0
H  H72  1  0.46979034  0.49172650  0.31170641  1  0  0.201364  0  0.975107  0  0  0.203322  0  1.029577  0  0  0.208221  0  1.026751  0  0.211497  0  0.130775  0.199904  0  1.031591  0
H  H73  1  0.31120328  0.46883930  0.49180613  1  0  0.202345  0  0.974877  0  0  0.204259  0  1.029284  0  0  0.209179  0  1.026459  0  0.215935  0  0.131457  0.200823  0  1.031308  0
H  H74  1  0.49213048  0.31103501  0.46900074  1  0  0.20216  0  0.974722  0  0  0.204182  0  1.029191  0  0  0.209058  0  1.026427  0  0.214959  0  0.13135  0.200755  0  1.0312  0
H  H75  1  0.53020625  0.50826216  0.68829177  1  0  0.201398  0  0.975116  0  0  0.20337  0  1.029562  0  0  0.20827  0  1.026734  0  0.211662  0  0.130807  0.199954  0  1.031574  0
H  H76  1  0.68880439  0.53117156  0.50820534  1  0  0.202178  0  0.974896  0  0  0.204111  0  1.029303  0  0  0.20903  0  1.02648  0  0.215656  0  0.131433  0.200675  0  1.031327  0
H  H77  1  0.50787300  0.68896937  0.53099966  1  0  0.202074  0  0.974799  0  0  0.204116  0  1.029235  0  0  0.208978  0  1.026491  0  0.215435  0  0.131341  0.200689  0  1.031247  0
C  C78  1  0.20848765  0.76327575  0.10085607  1  0  0.350436  0  3.726487  0  0  0.334181  0  3.985727  0  0  0.346422  0  4.003462  0  0.970544  0  0.205487  0.32605  0  3.973715  0
C  C79  1  0.10075537  0.20768323  0.76263897  1  0  0.351501  0  3.726663  0  0  0.334328  0  3.987096  0  0  0.346627  0  4.004832  0  0.945754  0  0.20524  0.326186  0  3.97512  0
C  C80  1  0.76345009  0.10197158  0.20895098  1  0  0.349706  0  3.730402  0  0  0.332673  0  3.990855  0  0  0.344936  0  4.008571  0  0.949612  0  0.205879  0.324534  0  3.978841  0
C  C81  1  0.79151547  0.23672770  0.89914235  1  0  0.350547  0  3.726388  0  0  0.334193  0  3.985742  0  0  0.346432  0  4.003473  0  0.970496  0  0.205498  0.326062  0  3.973729  0
C  C82  1  0.89924563  0.79231468  0.23736137  1  0  0.35154  0  3.726825  0  0  0.334306  0  3.98731  0  0  0.346608  0  4.00505  0  0.945817  0  0.20521  0.326163  0  3.975333  0
C  C83  1  0.23655039  0.89803835  0.79105823  1  0  0.349656  0  3.730474  0  0  0.332703  0  3.9908  0  0  0.344959  0  4.008524  0  0.949736  0  0.205926  0.324578  0  3.978792  0
C  C84  1  0.22857183  0.87977188  0.19922247  1  0  -0.152559  0  3.722191  0  0  -0.187313  0  3.970929  0  0  -0.188634  0  3.982013  0  -0.013039  0  -0.155295  -0.186301  0  3.963194  0
C  C85  1  0.19954039  0.22756672  0.87851421  1  0  -0.157006  0  3.725642  0  0  -0.190959  0  3.974046  0  0  -0.192435  0  3.985333  0  0.033996  0  -0.157213  -0.189979  0  3.966362  0
C  C86  1  0.88012155  0.20053797  0.22893674  1  0  -0.152774  0  3.724099  0  0  -0.187817  0  3.973855  0  0  -0.18909  0  3.984844  0  0.00236  0  -0.156342  -0.186809  0  3.96623  0
C  C87  1  0.77142887  0.12022972  0.80077639  1  0  -0.15258  0  3.722209  0  0  -0.18729  0  3.97097  0  0  -0.18861  0  3.98205  0  -0.012803  0  -0.155319  -0.18628  0  3.963237  0
C  C88  1  0.80046076  0.77242934  0.12148566  1  0  -0.157052  0  3.725658  0  0  -0.190945  0  3.974075  0  0  -0.192436  0  3.985379  0  0.033794  0  -0.157183  -0.189967  0  3.966395  0
C  C89  1  0.11987358  0.79946918  0.77106779  1  0  -0.152878  0  3.724278  0  0  -0.187927  0  3.973962  0  0  -0.189217  0  3.98493  0  0.003  0  -0.156327  -0.186969  0  3.966401  0
C  C90  1  0.21770466  0.98284892  0.15395166  1  0  -0.264476  0  3.704945  0  0  -0.335683  0  3.942731  0  0  -0.339204  0  3.952528  0  -0.002441  0  -0.241571  -0.33292  0  3.936003  0
C  C91  1  0.15346926  0.21736873  0.98041292  1  0  -0.265308  0  3.703805  0  0  -0.336105  0  3.94101  0  0  -0.339509  0  3.950781  0  -0.082007  0  -0.241745  -0.333374  0  3.934347  0
C  C92  1  0.98295070  0.15388476  0.21774328  1  0  -0.265557  0  3.703628  0  0  -0.33659  0  3.94166  0  0  -0.339983  0  3.951492  0  -0.031096  0  -0.242123  -0.333884  0  3.934926  0
C  C93  1  0.78230196  0.01715916  0.84605306  1  0  -0.264452  0  3.705094  0  0  -0.335745  0  3.942894  0  0  -0.339253  0  3.952702  0  -0.002757  0  -0.241558  -0.332981  0  3.936168  0
C  C94  1  0.84653038  0.78263010  0.01958568  1  0  -0.265344  0  3.703875  0  0  -0.33613  0  3.941057  0  0  -0.339528  0  3.95083  0  -0.081944  0  -0.241752  -0.333399  0  3.934397  0
C  C95  1  0.01704751  0.84612147  0.78225859  1  0  -0.265424  0  3.703872  0  0  -0.336496  0  3.941923  0  0  -0.339892  0  3.951764  0  -0.03076  0  -0.242092  -0.333779  0  3.935202  0
C  C96  1  0.23102755  0.63430595  0.95662777  1  0  0.342709  0  3.745675  0  0  0.328123  0  4.00351  0  0  0.340307  0  4.021004  0  0.976904  0  0.203729  0.320006  0  3.991728  0
C  C97  1  0.95618744  0.23151770  0.63446850  1  0  0.342787  0  3.751137  0  0  0.328053  0  4.008868  0  0  0.340322  0  4.026366  0  0.980063  0  0.204373  0.319918  0  3.997057  0
C  C98  1  0.63406167  0.95758984  0.23144866  1  0  0.343023  0  3.742185  0  0  0.32733  0  4.001459  0  0  0.339583  0  4.018961  0  0.955003  0  0.204028  0.319189  0  3.989654  0
C  C99  1  0.76897387  0.36569750  0.04337017  1  0  0.342753  0  3.745426  0  0  0.328119  0  4.003326  0  0  0.340304  0  4.020822  0  0.976802  0  0.203667  0.320002  0  3.991543  0
C  C100  1  0.04381185  0.76848020  0.36553219  1  0  0.342846  0  3.750948  0  0  0.327994  0  4.008843  0  0  0.340262  0  4.026345  0  0.980084  0  0.204323  0.319854  0  3.997029  0
C  C101  1  0.36594039  0.04241084  0.76855437  1  0  0.343012  0  3.742296  0  0  0.327377  0  4.001491  0  0  0.33963  0  4.018995  0  0.955006  0  0.204067  0.319237  0  3.989683  0
C  C102  1  0.28131451  0.58099222  0.86677530  1  0  -0.159159  0  3.741861  0  0  -0.195601  0  3.995126  0  0  -0.197049  0  4.005463  0  0.034962  0  -0.158414  -0.194517  0  3.988008  0
C  C103  1  0.86584675  0.28226898  0.58121070  1  0  -0.159413  0  3.74179  0  0  -0.196616  0  3.995124  0  0  -0.198215  0  4.005589  0  -0.01747  0  -0.158647  -0.195469  0  3.987962  0
C  C104  1  0.58064772  0.86707435  0.28099443  1  0  -0.158614  0  3.739596  0  0  -0.194996  0  3.993196  0  0  -0.196606  0  4.003806  0  0.041549  0  -0.157741  -0.193822  0  3.985906  0
C  C105  1  0.71868599  0.41900661  0.13322273  1  0  -0.159323  0  3.742034  0  0  -0.195759  0  3.995293  0  0  -0.197221  0  4.005651  0  0.034208  0  -0.158438  -0.194673  0  3.988171  0
C  C106  1  0.13415354  0.71772707  0.41879056  1  0  -0.15947  0  3.741794  0  0  -0.196626  0  3.995127  0  0  -0.198224  0  4.005588  0  -0.017485  0  -0.158649  -0.195461  0  3.987946  0
C  C107  1  0.41935227  0.13292541  0.71900534  1  0  -0.158655  0  3.739696  0  0  -0.19507  0  3.993267  0  0  -0.196678  0  4.003874  0  0.041576  0  -0.157761  -0.193898  0  3.985979  0
C  C108  1  0.41477622  0.59316524  0.92927405  1  0  -0.2721  0  3.705128  0  0  -0.342965  0  3.943511  0  0  -0.34581  0  3.953201  0  -0.057927  0  -0.243768  -0.340689  0  3.936845  0
C  C109  1  0.92940937  0.41519809  0.59362572  1  0  -0.270925  0  3.703  0  0  -0.342214  0  3.941499  0  0  -0.34508  0  3.951333  0  -0.03672  0  -0.244429  -0.339903  0  3.934746  0
C  C110  1  0.59309271  0.92949449  0.41303752  1  0  -0.274528  0  3.710711  0  0  -0.345965  0  3.949171  0  0  -0.348797  0  3.958962  0  -0.075085  0  -0.245393  -0.343653  0  3.942479  0
C  C111  1  0.58522236  0.40683082  0.07072430  1  0  -0.272073  0  3.705186  0  0  -0.342964  0  3.943593  0  0  -0.345802  0  3.953276  0  -0.057937  0  -0.243737  -0.340685  0  3.936929  0
C  C112  1  0.07059084  0.58480444  0.40637812  1  0  -0.270849  0  3.703101  0  0  -0.34212  0  3.941623  0  0  -0.344977  0  3.951466  0  -0.036553  0  -0.244419  -0.339814  0  3.934862  0
C  C113  1  0.40690301  0.07050527  0.58696025  1  0  -0.274476  0  3.710554  0  0  -0.3459  0  3.949022  0  0  -0.348719  0  3.958824  0  -0.074917  0  -0.245354  -0.343588  0  3.942329  0
C  C114  1  0.30689739  0.54436030  0.23628257  1  0  -0.181647  0  3.608463  0  0  -0.181534  0  3.821236  0  0  -0.185741  0  3.843381  0  -0.472849  0  -0.127421  -0.178618  0  3.806529  0
C  C115  1  0.23637730  0.30705443  0.54446016  1  0  -0.180051  0  3.604143  0  0  -0.180136  0  3.816839  0  0  -0.184245  0  3.838979  0  -0.480413  0  -0.126538  -0.177302  0  3.802177  0
C  C116  1  0.54459842  0.23670735  0.30757098  1  0  -0.18055  0  3.603982  0  0  -0.180649  0  3.816065  0  0  -0.184834  0  3.838443  0  -0.494109  0  -0.126364  -0.177761  0  3.801234  0
C  C117  1  0.69310021  0.45562650  0.76372024  1  0  -0.181533  0  3.608301  0  0  -0.181406  0  3.821071  0  0  -0.185617  0  3.843227  0  -0.471517  0  -0.127298  -0.178489  0  3.806365  0
C  C118  1  0.76363435  0.69293330  0.45552490  1  0  -0.180112  0  3.6038  0  0  -0.180197  0  3.816524  0  0  -0.184304  0  3.838649  0  -0.479676  0  -0.126514  -0.177362  0  3.80186  0
C  C119  1  0.45539959  0.76328500  0.69242537  1  0  -0.1806  0  3.604112  0  0  -0.180714  0  3.816198  0  0  -0.184899  0  3.838572  0  -0.494262  0  -0.126423  -0.177824  0  3.801368  0
C  C120  1  0.39319101  0.51665348  0.27701605  1  0  -0.229333  0  3.645063  0  0  -0.2309  0  3.854422  0  0  -0.236427  0  3.877874  0  0.039026  0  -0.1392  -0.227109  0  3.838635  0
C  C121  1  0.27670080  0.39264114  0.51655281  1  0  -0.229954  0  3.643801  0  0  -0.231314  0  3.853603  0  0  -0.236886  0  3.87697  0  0.046223  0  -0.138433  -0.227495  0  3.837863  0
C  C122  1  0.51695021  0.27691004  0.39306077  1  0  -0.228771  0  3.640796  0  0  -0.230181  0  3.850071  0  0  -0.235694  0  3.87348  0  0.05944  0  -0.138277  -0.226369  0  3.834336  0
C  C123  1  0.60680458  0.48333702  0.72298480  1  0  -0.229483  0  3.645005  0  0  -0.231075  0  3.854365  0  0  -0.236606  0  3.877821  0  0.038039  0  -0.139338  -0.22728  0  3.83857  0
C  C124  1  0.72331767  0.60735769  0.48344208  1  0  -0.229676  0  3.643498  0  0  -0.231061  0  3.853278  0  0  -0.23663  0  3.876648  0  0.045509  0  -0.138399  -0.227241  0  3.837534  0
C  C125  1  0.48305242  0.72309434  0.60694020  1  0  -0.228579  0  3.641019  0  0  -0.229995  0  3.850256  0  0  -0.235494  0  3.873686  0  0.059058  0  -0.138198  -0.226186  0  3.834522  0
N  N126  1  0.12012020  0.65227084  0.06802783  1  0  -0.331638  0  3.326405  0  0  -0.27616  0  3.651023  0  0  -0.286308  0  3.654831  0  -0.808896  0  -0.314199  -0.270068  0  3.648854  0
N  N127  1  0.06795850  0.11932038  0.65244192  1  0  -0.330952  0  3.31905  0  0  -0.275416  0  3.643827  0  0  -0.285555  0  3.647633  0  -0.779939  0  -0.312975  -0.269313  0  3.641624  0
N  N128  1  0.65250753  0.06822866  0.12019237  1  0  -0.332753  0  3.327494  0  0  -0.27734  0  3.653152  0  0  -0.287375  0  3.6567  0  -0.804175  0  -0.315339  -0.271316  0  3.65114  0
N  N129  1  0.87987879  0.34773076  0.93196812  1  0  -0.331584  0  3.326155  0  0  -0.276072  0  3.650774  0  0  -0.286218  0  3.654582  0  -0.808952  0  -0.314159  -0.269978  0  3.648608  0
N  N130  1  0.93204286  0.88067845  0.34755715  1  0  -0.331008  0  3.3191  0  0  -0.275453  0  3.643877  0  0  -0.285591  0  3.647679  0  -0.779901  0  -0.312989  -0.269349  0  3.641673  0
N  N131  1  0.34749203  0.93177664  0.87981369  1  0  -0.332636  0  3.327545  0  0  -0.277249  0  3.653182  0  0  -0.287282  0  3.656732  0  -0.804261  0  -0.315303  -0.271231  0  3.651172  0
N  N132  1  0.13502050  0.56945472  0.97537003  1  0  -0.321508  0  3.35458  0  0  -0.267159  0  3.684074  0  0  -0.276816  0  3.687479  0  -0.78879  0  -0.319601  -0.261401  0  3.682112  0
N  N133  1  0.97513013  0.13510857  0.57016898  1  0  -0.322177  0  3.357927  0  0  -0.267192  0  3.687031  0  0  -0.276917  0  3.690351  0  -0.797787  0  -0.319555  -0.261381  0  3.685073  0
N  N134  1  0.56943748  0.97550293  0.13505768  1  0  -0.321525  0  3.354157  0  0  -0.266757  0  3.683934  0  0  -0.276398  0  3.687175  0  -0.78959  0  -0.318647  -0.261004  0  3.682057  0
N  N135  1  0.86498278  0.43054688  0.02462792  1  0  -0.321444  0  3.354276  0  0  -0.267069  0  3.683757  0  0  -0.276729  0  3.687164  0  -0.788713  0  -0.319552  -0.261315  0  3.681794  0
N  N136  1  0.02486965  0.86488840  0.42983158  1  0  -0.322178  0  3.357942  0  0  -0.267155  0  3.687066  0  0  -0.276879  0  3.690389  0  -0.797769  0  -0.319539  -0.261341  0  3.685105  0
N  N137  1  0.43056208  0.02450237  0.86494837  1  0  -0.321551  0  3.354132  0  0  -0.266821  0  3.683917  0  0  -0.276463  0  3.687157  0  -0.789772  0  -0.318716  -0.261062  0  3.682027  0
N  N138  1  0.27866179  0.75567351  0.03262706  1  0  -0.490491  0  3.330223  0  0  -0.416219  0  3.630522  0  0  -0.433896  0  3.635925  0  -1.245907  0  -0.406673  -0.404862  0  3.62648  0
N  N139  1  0.03232409  0.27871948  0.75492643  1  0  -0.491272  0  3.333882  0  0  -0.417041  0  3.63488  0  0  -0.43464  0  3.640154  0  -1.245024  0  -0.406959  -0.405722  0  3.630867  0
N  N140  1  0.75552164  0.03440434  0.27949353  1  0  -0.489514  0  3.32936  0  0  -0.414546  0  3.630032  0  0  -0.432237  0  3.635439  0  -1.222305  0  -0.406377  -0.403183  0  3.625964  0
N  N141  1  0.72133699  0.24432532  0.96736725  1  0  -0.490627  0  3.330182  0  0  -0.416304  0  3.630514  0  0  -0.433976  0  3.635903  0  -1.245847  0  -0.406697  -0.404947  0  3.626462  0
N  N142  1  0.96767641  0.72127935  0.24507322  1  0  -0.491286  0  3.333881  0  0  -0.416992  0  3.634906  0  0  -0.434596  0  3.640192  0  -1.244914  0  -0.406932  -0.405674  0  3.630889  0
N  N143  1  0.24447927  0.96560004  0.72050858  1  0  -0.489529  0  3.329504  0  0  -0.414625  0  3.630171  0  0  -0.432316  0  3.635582  0  -1.222274  0  -0.406429  -0.403259  0  3.626098  0
