# generated using pymatgen
data_AgH19C21SN4O5
_symmetry_space_group_name_H-M   'P 1'
_cell_length_a   8.44077080
_cell_length_b   9.84449737
_cell_length_c   12.76972541
_cell_angle_alpha   89.13103020
_cell_angle_beta   88.45635245
_cell_angle_gamma   94.58324552
_symmetry_Int_Tables_number   1
_chemical_formula_structural   AgH19C21SN4O5
_chemical_formula_sum   'Ag2 H38 C42 S2 N8 O10'
_cell_volume   1057.16553957
_cell_formula_units_Z   2
loop_
 _symmetry_equiv_pos_site_id
 _symmetry_equiv_pos_as_xyz
  1  'x, y, z'
loop_
 _atom_site_type_symbol
 _atom_site_label
 _atom_site_symmetry_multiplicity
 _atom_site_fract_x
 _atom_site_fract_y
 _atom_site_fract_z
 _atom_site_occupancy
 _atom_site_hle17_bader_spin_density
 _atom_site_hle17_ddec_charge
 _atom_site_hle17_ddec_spin_density
 _atom_site_hle17_ddec_sum_bond_order
 _atom_site_hle17_magmom
 _atom_site_hse06_10hf_bader_spin_density
 _atom_site_hse06_10hf_ddec_charge
 _atom_site_hse06_10hf_ddec_spin_density
 _atom_site_hse06_10hf_ddec_sum_bond_order
 _atom_site_hse06_10hf_magmom
 _atom_site_hse06_bader_spin_density
 _atom_site_hse06_ddec_charge
 _atom_site_hse06_ddec_spin_density
 _atom_site_hse06_ddec_sum_bond_order
 _atom_site_hse06_magmom
 _atom_site_pbe_bader_spin_density
 _atom_site_pbe_cm5_charge
 _atom_site_pbe_ddec_charge
 _atom_site_pbe_ddec_spin_density
 _atom_site_pbe_ddec_sum_bond_order
 _atom_site_pbe_magmom
Ag  Ag0  1  0.84402197  0.87701809  0.70672503  1  0  0.497564  0  1.492429  0  0  0.351776  0  1.947705  0  0  0.377738  0  1.906049  0  0  0.50443  0.333937  0  1.975962  0
Ag  Ag1  1  0.15598567  0.12297741  0.29327792  1  0  0.497548  0  1.492472  0  0  0.351742  0  1.947731  0  0  0.377709  0  1.906059  0  0  0.5044  0.333903  0  1.975986  0
H  H2  1  0.77594122  0.91156783  0.97907778  1  0  0.429958  0  0.818233  0  0  0.404864  0  0.886441  0  0  0.4163  0  0.873484  0  0  0.320596  0.395895  0  0.89709  0
H  H3  1  0.22405263  0.08843180  0.02092371  1  0  0.429924  0  0.818294  0  0  0.40483  0  0.886497  0  0  0.416252  0  0.873564  0  0  0.320591  0.395861  0  0.897146  0
H  H4  1  0.51052079  0.96935344  0.82551155  1  0  0.118773  0  0.959918  0  0  0.130156  0  1.015681  0  0  0.132782  0  1.012958  0  0  0.124335  0.128109  0  1.01771  0
H  H5  1  0.48949079  0.03065663  0.17448369  1  0  0.118725  0  0.959701  0  0  0.130076  0  1.015538  0  0  0.132713  0  1.012797  0  0  0.124264  0.12803  0  1.017567  0
H  H6  1  0.25779058  0.78494707  0.87727047  1  0  0.146007  0  0.972788  0  0  0.153574  0  1.032289  0  0  0.156766  0  1.031602  0  0  0.112817  0.151276  0  1.03299  0
H  H7  1  0.74221077  0.21506713  0.12272330  1  0  0.145998  0  0.972837  0  0  0.153692  0  1.032159  0  0  0.156874  0  1.031504  0  0  0.112856  0.151385  0  1.032856  0
H  H8  1  0.35548170  0.54039069  0.80135693  1  0  0.108136  0  0.933915  0  0  0.127309  0  0.983622  0  0  0.129089  0  0.98235  0  0  0.12855  0.125915  0  0.984689  0
H  H9  1  0.64451645  0.45961799  0.19864777  1  0  0.10819  0  0.933896  0  0  0.127377  0  0.983574  0  0  0.129153  0  0.982308  0  0  0.128582  0.125982  0  0.984642  0
H  H10  1  0.65967074  0.47970843  0.74475897  1  0  0.09221  0  0.947466  0  0  0.106679  0  1.009892  0  0  0.106471  0  1.011688  0  0  0.113257  0.106786  0  1.008604  0
H  H11  1  0.34033052  0.52028562  0.25525496  1  0  0.092195  0  0.947658  0  0  0.10675  0  1.00995  0  0  0.106556  0  1.011732  0  0  0.113323  0.106852  0  1.008661  0
H  H12  1  0.77045169  0.62022978  0.68209068  1  0  0.07475  0  0.959526  0  0  0.084004  0  1.043961  0  0  0.086052  0  1.040687  0  0  0.104233  0.082439  0  1.046287  0
H  H13  1  0.22955836  0.37976939  0.31792248  1  0  0.074767  0  0.959503  0  0  0.083971  0  1.044027  0  0  0.086038  0  1.040692  0  0  0.104227  0.082405  0  1.046353  0
H  H14  1  0.55778976  0.74357307  0.54458765  1  0  0.085089  0  0.965542  0  0  0.092185  0  1.037264  0  0  0.094906  0  1.036224  0  0  0.094934  0.089744  0  1.039148  0
H  H15  1  0.44221358  0.25643021  0.45542480  1  0  0.085075  0  0.965501  0  0  0.092181  0  1.037245  0  0  0.094901  0  1.036208  0  0  0.094981  0.08974  0  1.03913  0
H  H16  1  0.43143203  0.68174303  0.37507801  1  0  0.107321  0  0.965254  0  0  0.117679  0  1.025917  0  0  0.120722  0  1.024339  0  0  0.099156  0.115388  0  1.027282  0
H  H17  1  0.56857051  0.31825204  0.62493593  1  0  0.107496  0  0.964969  0  0  0.117808  0  1.025673  0  0  0.120857  0  1.024081  0  0  0.099202  0.115454  0  1.027109  0
H  H18  1  0.20245452  0.01483926  0.74296782  1  0  0.129096  0  0.908324  0  0  0.145898  0  0.953206  0  0  0.147737  0  0.95177  0  0  0.137677  0.144463  0  0.954249  0
H  H19  1  0.79755363  0.98515957  0.25702811  1  0  0.129046  0  0.908369  0  0  0.145879  0  0.953222  0  0  0.147718  0  0.951788  0  0  0.137653  0.144443  0  0.954266  0
H  H20  1  0.44365022  0.02905871  0.59276681  1  0  0.126925  0  0.970966  0  0  0.142095  0  1.021043  0  0  0.143935  0  1.022472  0  0  0.110664  0.140613  0  1.020553  0
H  H21  1  0.55634942  0.97094944  0.40722534  1  0  0.126864  0  0.970965  0  0  0.142043  0  1.021053  0  0  0.143873  0  1.022474  0  0  0.110645  0.140562  0  1.020564  0
H  H22  1  0.30149905  0.89609423  0.42183838  1  0  0.119685  0  0.966591  0  0  0.128167  0  1.035027  0  0  0.131715  0  1.03053  0  0  0.124023  0.125374  0  1.038489  0
H  H23  1  0.69849678  0.10391178  0.57815611  1  0  0.11978  0  0.966589  0  0  0.128284  0  1.034972  0  0  0.131828  0  1.030484  0  0  0.124069  0.125495  0  1.038426  0
H  H24  1  0.01339348  0.81945808  0.38520315  1  0  0.112812  0  0.947186  0  0  0.125765  0  1.012258  0  0  0.127254  0  1.011332  0  0  0.118821  0.124437  0  1.012856  0
H  H25  1  0.98659761  0.18053837  0.61480146  1  0  0.112914  0  0.947177  0  0  0.125757  0  1.012313  0  0  0.127245  0  1.01138  0  0  0.118843  0.124428  0  1.01291  0
H  H26  1  0.87168072  0.82411308  0.48994260  1  0  0.072052  0  0.963027  0  0  0.080557  0  1.04821  0  0  0.082018  0  1.046254  0  0  0.106177  0.079991  0  1.048881  0
H  H27  1  0.12831629  0.17588427  0.51006512  1  0  0.072103  0  0.963112  0  0  0.080583  0  1.048226  0  0  0.082025  0  1.046286  0  0  0.106219  0.080018  0  1.048897  0
H  H28  1  0.82264526  0.59265671  0.36970115  1  0  0.088315  0  0.946206  0  0  0.103818  0  0.999278  0  0  0.106005  0  0.999037  0  0  0.100908  0.102283  0  0.999386  0
H  H29  1  0.17734820  0.40733974  0.63030344  1  0  0.088337  0  0.94624  0  0  0.103876  0  0.999272  0  0  0.106065  0  0.999029  0  0  0.100904  0.102341  0  0.999382  0
H  H30  1  0.82906675  0.34383881  0.39160565  1  0  0.094535  0  0.968238  0  0  0.100563  0  1.03732  0  0  0.102856  0  1.037644  0  0  0.099958  0.098956  0  1.037023  0
H  H31  1  0.17093394  0.65615687  0.60839264  1  0  0.094554  0  0.968203  0  0  0.100574  0  1.037296  0  0  0.102866  0  1.037622  0  0  0.099943  0.098967  0  1.036999  0
H  H32  1  0.63825571  0.57382824  0.00974509  1  0  0.096678  0  0.957533  0  0  0.106513  0  1.0223  0  0  0.109484  0  1.020565  0  0  0.104546  0.104208  0  1.023996  0
H  H33  1  0.36172547  0.42617091  0.99024236  1  0  0.096651  0  0.957609  0  0  0.106531  0  1.022332  0  0  0.109493  0  1.020608  0  0  0.104549  0.104225  0  1.024026  0
H  H34  1  0.59908140  0.32670493  0.96521479  1  0  0.107068  0  0.953565  0  0  0.115618  0  1.016023  0  0  0.118963  0  1.014216  0  0  0.107545  0.112946  0  1.017891  0
H  H35  1  0.40091272  0.67329321  0.03477258  1  0  0.107106  0  0.953573  0  0  0.115654  0  1.016027  0  0  0.119001  0  1.014218  0  0  0.107589  0.112983  0  1.017895  0
H  H36  1  0.04304280  0.35900995  0.79112709  1  0  0.104781  0  0.954249  0  0  0.113944  0  1.014917  0  0  0.117712  0  1.012575  0  0  0.104192  0.110966  0  1.016843  0
H  H37  1  0.95695538  0.64099786  0.20887368  1  0  0.104738  0  0.95426  0  0  0.11394  0  1.014886  0  0  0.117722  0  1.012514  0  0  0.104213  0.110962  0  1.016812  0
H  H38  1  0.07714737  0.60959696  0.83030568  1  0  0.095489  0  0.969656  0  0  0.104452  0  1.035101  0  0  0.107522  0  1.033505  0  0  0.104464  0.102051  0  1.036349  0
H  H39  1  0.92285092  0.39041098  0.16969195  1  0  0.095465  0  0.969761  0  0  0.104422  0  1.035212  0  0  0.107493  0  1.033614  0  0  0.104454  0.102023  0  1.036457  0
C  C40  1  0.49522266  0.86124597  0.81002222  1  0  0.073197  0  3.691571  0  0  0.026384  0  3.964831  0  0  0.035663  0  3.979286  0  0  0.022036  0.020273  0  3.955269  0
C  C41  1  0.50478375  0.13876085  0.18997772  1  0  0.073281  0  3.691683  0  0  0.02648  0  3.964954  0  0  0.035753  0  3.97941  0  0  0.022132  0.020368  0  3.955389  0
C  C42  1  0.36772051  0.76557735  0.83629065  1  0  -0.198779  0  3.763564  0  0  -0.211567  0  4.030463  0  0  -0.220929  0  4.051091  0  0  -0.10969  -0.20569  0  4.016755  0
C  C43  1  0.63228594  0.23443044  0.16371086  1  0  -0.198717  0  3.763772  0  0  -0.211586  0  4.030621  0  0  -0.220953  0  4.051244  0  0  -0.10973  -0.205694  0  4.0169  0
C  C44  1  0.41405924  0.64261746  0.79914640  1  0  -0.009215  0  3.680645  0  0  -0.066454  0  3.936076  0  0  -0.059352  0  3.952454  0  0  0.020142  -0.070608  0  3.924746  0
C  C45  1  0.58594465  0.35738829  0.20085510  1  0  -0.00933  0  3.680849  0  0  -0.066581  0  3.936334  0  0  -0.059474  0  3.952715  0  0  0.02016  -0.070737  0  3.925002  0
C  C46  1  0.64972051  0.57088254  0.69573255  1  0  -0.066169  0  3.687425  0  0  -0.144203  0  3.929537  0  0  -0.140328  0  3.940255  0  0  -0.049144  -0.146503  0  3.921981  0
C  C47  1  0.35029020  0.42910876  0.30427347  1  0  -0.066172  0  3.68763  0  0  -0.144281  0  3.929834  0  0  -0.14041  0  3.940555  0  0  -0.049183  -0.146573  0  3.92226  0
C  C48  1  0.57185380  0.53429078  0.59430034  1  0  0.065958  0  3.768019  0  0  0.087129  0  4.004819  0  0  0.086042  0  4.029704  0  0  -0.015992  0.087818  0  3.987644  0
C  C49  1  0.42814523  0.46570252  0.40570654  1  0  0.066002  0  3.768026  0  0  0.08723  0  4.004777  0  0  0.086143  0  4.029661  0  0  -0.015978  0.087913  0  3.987617  0
C  C50  1  0.53298816  0.63668792  0.52458044  1  0  -0.108166  0  3.755082  0  0  -0.129944  0  4.006896  0  0  -0.132311  0  4.028954  0  0  -0.09428  -0.128179  0  3.992738  0
C  C51  1  0.46701293  0.36331459  0.47542575  1  0  -0.10826  0  3.755224  0  0  -0.130078  0  4.006991  0  0  -0.132446  0  4.029054  0  0  -0.094418  -0.128307  0  3.992808  0
C  C52  1  0.46168453  0.60270107  0.43039251  1  0  -0.121359  0  3.749091  0  0  -0.138216  0  3.990683  0  0  -0.141265  0  4.01252  0  0  -0.093728  -0.135933  0  3.975987  0
C  C53  1  0.53833134  0.39729527  0.56961510  1  0  -0.12151  0  3.748972  0  0  -0.138298  0  3.990541  0  0  -0.141347  0  4.012376  0  0  -0.093729  -0.135965  0  3.975868  0
C  C54  1  0.20322703  0.97497525  0.66426752  1  0  0.075013  0  3.687321  0  0  0.032232  0  3.954999  0  0  0.041272  0  3.96996  0  0  0.030414  0.026686  0  3.944062  0
C  C55  1  0.79678092  0.02502244  0.33573153  1  0  0.074984  0  3.687299  0  0  0.032168  0  3.95496  0  0  0.041204  0  3.969923  0  0  0.030446  0.026625  0  3.944021  0
C  C56  1  0.32396682  0.98246053  0.58608553  1  0  -0.211233  0  3.781507  0  0  -0.223773  0  4.042639  0  0  -0.233495  0  4.064739  0  0  -0.115426  -0.217649  0  4.027961  0
C  C57  1  0.67603029  0.01754651  0.41390897  1  0  -0.210999  0  3.78136  0  0  -0.22355  0  4.042483  0  0  -0.23325  0  4.064571  0  0  -0.11539  -0.217431  0  4.027807  0
C  C58  1  0.25654086  0.91714042  0.50010117  1  0  -0.021549  0  3.68024  0  0  -0.080614  0  3.945994  0  0  -0.072145  0  3.958118  0  0  0.020432  -0.085502  0  3.937173  0
C  C59  1  0.74345479  0.08286356  0.49989331  1  0  -0.021847  0  3.680369  0  0  -0.080912  0  3.946153  0  0  -0.072445  0  3.958277  0  0  0.020317  -0.085797  0  3.937329  0
C  C60  1  0.99050392  0.79278927  0.46851492  1  0  -0.07651  0  3.679284  0  0  -0.157719  0  3.926484  0  0  -0.15463  0  3.937255  0  0  -0.050433  -0.159475  0  3.918161  0
C  C61  1  0.00949654  0.20720524  0.53148727  1  0  -0.076877  0  3.6795  0  0  -0.157819  0  3.926409  0  0  -0.154737  0  3.937239  0  0  -0.050568  -0.159576  0  3.918089  0
C  C62  1  0.99700395  0.64164148  0.48669750  1  0  0.069417  0  3.750416  0  0  0.092081  0  3.987795  0  0  0.091275  0  4.011974  0  0  -0.016194  0.092159  0  3.971544  0
C  C63  1  0.00299174  0.35835389  0.51330864  1  0  0.069506  0  3.750385  0  0  0.09219  0  3.987639  0  0  0.091385  0  4.011806  0  0  -0.016081  0.092266  0  3.971393  0
C  C64  1  0.90182262  0.55209694  0.42640364  1  0  -0.10721  0  3.759422  0  0  -0.122912  0  3.999057  0  0  -0.1262  0  4.022661  0  0  -0.092348  -0.12016  0  3.982828  0
C  C65  1  0.09817296  0.44789649  0.57360013  1  0  -0.10713  0  3.759505  0  0  -0.122901  0  3.999158  0  0  -0.126187  0  4.022755  0  0  -0.092326  -0.120147  0  3.982922  0
C  C66  1  0.90477189  0.41163662  0.43920666  1  0  -0.121025  0  3.767967  0  0  -0.143046  0  4.020702  0  0  -0.145497  0  4.042983  0  0  -0.09719  -0.141634  0  4.005389  0
C  C67  1  0.09522623  0.58835792  0.56079475  1  0  -0.121135  0  3.767993  0  0  -0.143126  0  4.020745  0  0  -0.145577  0  4.043024  0  0  -0.097158  -0.141714  0  4.005433  0
C  C68  1  0.88253864  0.75751261  0.93506761  1  0  0.63439  0  3.832022  0  0  0.581485  0  4.139452  0  0  0.614171  0  4.130574  0  0  0.222142  0.558253  0  4.146714  0
C  C69  1  0.11745029  0.24248408  0.06493075  1  0  0.634387  0  3.832105  0  0  0.581452  0  4.13959  0  0  0.614131  0  4.130724  0  0  0.222083  0.558219  0  4.146848  0
C  C70  1  0.86105747  0.60665017  0.92266396  1  0  -0.076145  0  3.764731  0  0  -0.054481  0  3.999916  0  0  -0.061492  0  4.022928  0  0  -0.019435  -0.049523  0  3.984602  0
C  C71  1  0.13892964  0.39335171  0.07733210  1  0  -0.076334  0  3.764838  0  0  -0.05465  0  4.000037  0  0  -0.061657  0  4.023046  0  0  -0.019524  -0.049693  0  3.984722  0
C  C72  1  0.72665357  0.52661881  0.96188125  1  0  -0.065324  0  3.71961  0  0  -0.093927  0  3.978145  0  0  -0.093927  0  3.99821  0  0  -0.083076  -0.094255  0  3.96555  0
C  C73  1  0.27333265  0.47337295  0.03811315  1  0  -0.065175  0  3.720009  0  0  -0.093824  0  3.978515  0  0  -0.09382  0  3.998594  0  0  -0.082995  -0.094148  0  3.965917  0
C  C74  1  0.70451592  0.38923673  0.93717296  1  0  -0.081417  0  3.743149  0  0  -0.104882  0  3.998071  0  0  -0.106064  0  4.017509  0  0  -0.084584  -0.104294  0  3.985951  0
C  C75  1  0.29548226  0.61075426  0.06281510  1  0  -0.081502  0  3.743404  0  0  -0.104982  0  3.998296  0  0  -0.106163  0  4.017734  0  0  -0.084694  -0.104393  0  3.986162  0
C  C76  1  0.81869363  0.33026520  0.87478202  1  0  -0.081245  0  3.699629  0  0  -0.056346  0  3.941777  0  0  -0.060483  0  3.96177  0  0  -0.009892  -0.053192  0  3.928094  0
C  C77  1  0.18131579  0.66973372  0.12521155  1  0  -0.08134  0  3.69972  0  0  -0.056373  0  3.941814  0  0  -0.060521  0  3.961828  0  0  -0.009918  -0.053209  0  3.928116  0
C  C78  1  0.95555909  0.40760372  0.83870994  1  0  -0.079039  0  3.755778  0  0  -0.102599  0  4.005524  0  0  -0.104326  0  4.026113  0  0  -0.087703  -0.101457  0  3.991781  0
C  C79  1  0.04444036  0.59240329  0.16128533  1  0  -0.079005  0  3.755792  0  0  -0.102628  0  4.005559  0  0  -0.104359  0  4.026133  0  0  -0.087704  -0.101489  0  3.99181  0
C  C80  1  0.97514450  0.54564782  0.86156105  1  0  -0.064012  0  3.734409  0  0  -0.085767  0  3.982119  0  0  -0.086145  0  4.003149  0  0  -0.079907  -0.08501  0  3.967688  0
C  C81  1  0.02485011  0.45435906  0.13843738  1  0  -0.063943  0  3.734496  0  0  -0.085719  0  3.982256  0  0  -0.086099  0  4.003288  0  0  -0.079906  -0.084964  0  3.967827  0
S  S82  1  0.78036849  0.15839178  0.83303308  1  0  1.272092  0  5.698997  0  0  1.177845  0  6.220909  0  0  1.225737  0  6.196963  0  0  0.489562  1.144374  0  6.23609  0
S  S83  1  0.21963729  0.84160705  0.16696286  1  0  1.272225  0  5.698882  0  0  1.177915  0  6.220788  0  0  1.225809  0  6.196843  0  0  0.489602  1.144442  0  6.235968  0
N  N84  1  0.61188286  0.80103313  0.75926459  1  0  -0.276268  0  3.245384  0  0  -0.219148  0  3.54284  0  0  -0.235333  0  3.559398  0  0  -0.276469  -0.208005  0  3.531397  0
N  N85  1  0.38812600  0.19896333  0.24073993  1  0  -0.276417  0  3.245592  0  0  -0.219272  0  3.543043  0  0  -0.235462  0  3.55961  0  0  -0.276531  -0.208131  0  3.531602  0
N  N86  1  0.56105081  0.66671421  0.75416981  1  0  0.053206  0  3.602919  0  0  0.171764  0  3.774287  0  0  0.160669  0  3.804764  0  0  -0.154263  0.178973  0  3.753485  0
N  N87  1  0.43895826  0.33328521  0.24583709  1  0  0.053404  0  3.602753  0  0  0.171907  0  3.774206  0  0  0.160809  0  3.804685  0  0  -0.154258  0.179115  0  3.753401  0
N  N88  1  0.07033843  0.90943645  0.62856326  1  0  -0.250509  0  3.219752  0  0  -0.196371  0  3.5133  0  0  -0.211279  0  3.528095  0  0  -0.27204  -0.185813  0  3.501964  0
N  N89  1  0.92966718  0.09056217  0.37143816  1  0  -0.250484  0  3.21997  0  0  -0.196277  0  3.513487  0  0  -0.211184  0  3.528289  0  0  -0.271981  -0.185718  0  3.502149  0
N  N90  1  0.10431926  0.87518985  0.52829293  1  0  0.061633  0  3.601439  0  0  0.181331  0  3.770341  0  0  0.171372  0  3.799016  0  0  -0.153114  0.186899  0  3.751657  0
N  N91  1  0.89568401  0.12480790  0.47170458  1  0  0.061754  0  3.601429  0  0  0.181332  0  3.770338  0  0  0.171372  0  3.799005  0  0  -0.153127  0.186894  0  3.751666  0
O  O92  1  0.76754102  0.81035422  0.99203686  1  0  -0.53762  0  2.037882  0  0  -0.488248  0  2.241763  0  0  -0.509237  0  2.227085  0  0  -0.330671  -0.472864  0  2.253085  0
O  O93  1  0.23245127  0.18964133  0.00796460  1  0  -0.537542  0  2.037987  0  0  -0.488179  0  2.241887  0  0  -0.509153  0  2.227234  0  0  -0.330619  -0.472797  0  2.253207  0
O  O94  1  0.99313467  0.82758887  0.89096807  1  0  -0.544538  0  1.969046  0  0  -0.50304  0  2.205596  0  0  -0.521484  0  2.194603  0  0  -0.290722  -0.491212  0  2.214347  0
O  O95  1  0.00685319  0.17240977  0.10903266  1  0  -0.54444  0  1.969201  0  0  -0.502926  0  2.205734  0  0  -0.521367  0  2.194748  0  0  -0.290632  -0.491096  0  2.214478  0
O  O96  1  0.92874199  0.12235856  0.78087311  1  0  -0.672199  0  1.99379  0  0  -0.616736  0  2.251428  0  0  -0.637845  0  2.235746  0  0  -0.350832  -0.601163  0  2.261304  0
O  O97  1  0.07126682  0.87764741  0.21912289  1  0  -0.672216  0  1.993811  0  0  -0.616776  0  2.25151  0  0  -0.637888  0  2.235831  0  0  -0.350862  -0.601204  0  2.261387  0
O  O98  1  0.73558973  0.07686245  0.92824391  1  0  -0.659734  0  1.943231  0  0  -0.608722  0  2.178235  0  0  -0.630099  0  2.164187  0  0  -0.33718  -0.59146  0  2.187416  0
O  O99  1  0.26441823  0.92313524  0.07175514  1  0  -0.659883  0  1.943295  0  0  -0.608784  0  2.178242  0  0  -0.630162  0  2.164192  0  0  -0.337211  -0.591524  0  2.187425  0
O  O100  1  0.64897582  0.16507406  0.75966523  1  0  -0.682844  0  1.89048  0  0  -0.637163  0  2.130698  0  0  -0.658372  0  2.116326  0  0  -0.36171  -0.621636  0  2.139904  0
O  O101  1  0.35103125  0.83492490  0.24032757  1  0  -0.682806  0  1.890349  0  0  -0.637109  0  2.130547  0  0  -0.658317  0  2.116172  0  0  -0.361713  -0.621588  0  2.139768  0
