# generated using pymatgen
data_Cu2H27C27S3I2N3
_symmetry_space_group_name_H-M   'P 1'
_cell_length_a   9.09143895
_cell_length_b   14.42084437
_cell_length_c   16.57441152
_cell_angle_alpha   112.79209416
_cell_angle_beta   90.28638719
_cell_angle_gamma   98.82234177
_symmetry_Int_Tables_number   1
_chemical_formula_structural   Cu2H27C27S3I2N3
_chemical_formula_sum   'Cu4 H54 C54 S6 I4 N6'
_cell_volume   1974.67611920
_cell_formula_units_Z   2
loop_
 _symmetry_equiv_pos_site_id
 _symmetry_equiv_pos_as_xyz
  1  'x, y, z'
loop_
 _atom_site_type_symbol
 _atom_site_label
 _atom_site_symmetry_multiplicity
 _atom_site_fract_x
 _atom_site_fract_y
 _atom_site_fract_z
 _atom_site_occupancy
 _atom_site_hle17_bader_spin_density
 _atom_site_hle17_ddec_charge
 _atom_site_hle17_ddec_spin_density
 _atom_site_hle17_ddec_sum_bond_order
 _atom_site_hle17_magmom
 _atom_site_hse06_10hf_bader_spin_density
 _atom_site_hse06_10hf_ddec_charge
 _atom_site_hse06_10hf_ddec_spin_density
 _atom_site_hse06_10hf_ddec_sum_bond_order
 _atom_site_hse06_10hf_magmom
 _atom_site_hse06_bader_spin_density
 _atom_site_hse06_ddec_charge
 _atom_site_hse06_ddec_spin_density
 _atom_site_hse06_ddec_sum_bond_order
 _atom_site_hse06_magmom
 _atom_site_pbe_bader_spin_density
 _atom_site_pbe_cm5_charge
 _atom_site_pbe_ddec_charge
 _atom_site_pbe_ddec_spin_density
 _atom_site_pbe_ddec_sum_bond_order
 _atom_site_pbe_magmom
Cu  Cu0  1  0.52225204  0.56102457  0.32706257  1  0  0.297361  0  2.131791  0  0  0.192236  0  2.628121  0  0  0.197449  0  2.577438  0  0  0.34972  0.192917  0  2.659158  0
Cu  Cu1  1  0.47774654  0.43897480  0.67293736  1  0  0.297332  0  2.131816  0  0  0.192208  0  2.62814  0  0  0.197394  0  2.577586  0  0  0.349709  0.192879  0  2.659154  0
Cu  Cu2  1  0.36713617  0.49330469  0.42782556  1  0  0.255468  0  2.211498  0  0  0.175586  0  2.703494  0  0  0.189367  0  2.645743  0  0  0.241416  0.168259  0  2.741179  0
Cu  Cu3  1  0.63286224  0.50669392  0.57217290  1  0  0.255491  0  2.211525  0  0  0.175624  0  2.703533  0  0  0.189396  0  2.645787  0  0  0.241409  0.168297  0  2.741211  0
H  H4  1  0.17181641  0.36489456  0.57958339  1  0  0.075135  0  0.960871  0  0  0.081811  0  1.028968  0  0  0.083913  0  1.027626  0  0  0.100603  0.080108  0  1.030186  0
H  H5  1  0.82818529  0.63509947  0.42041174  1  0  0.075078  0  0.960904  0  0  0.081757  0  1.029005  0  0  0.083859  0  1.027673  0  0  0.100577  0.080058  0  1.030222  0
H  H6  1  0.95571259  0.53478624  0.57349672  1  0  0.073718  0  0.954779  0  0  0.079038  0  1.026843  0  0  0.081922  0  1.023918  0  0  0.101048  0.076757  0  1.029245  0
H  H7  1  0.04428888  0.46521159  0.42650513  1  0  0.073727  0  0.954765  0  0  0.07901  0  1.026854  0  0  0.081894  0  1.023928  0  0  0.101036  0.076729  0  1.029257  0
H  H8  1  0.24866373  0.10994896  0.69701611  1  0  0.102134  0  0.97826  0  0  0.106526  0  1.050608  0  0  0.109964  0  1.049819  0  0  0.0952  0.1041  0  1.0513  0
H  H9  1  0.75133558  0.89005345  0.30298666  1  0  0.102114  0  0.978319  0  0  0.106516  0  1.050639  0  0  0.109954  0  1.049852  0  0  0.095205  0.104082  0  1.051357  0
H  H10  1  0.79090784  0.16929403  0.61411604  1  0  0.103206  0  0.981819  0  0  0.117928  0  1.04482  0  0  0.119252  0  1.044856  0  0  0.093566  0.116897  0  1.04489  0
H  H11  1  0.20909698  0.83070839  0.38588617  1  0  0.103211  0  0.981819  0  0  0.117917  0  1.044837  0  0  0.119241  0  1.044869  0  0  0.093558  0.116881  0  1.044921  0
H  H12  1  0.73913971  0.04748470  0.52850527  1  0  0.097393  0  0.960633  0  0  0.107708  0  1.029672  0  0  0.109396  0  1.02918  0  0  0.094027  0.106496  0  1.030112  0
H  H13  1  0.26086051  0.95251696  0.47149665  1  0  0.097497  0  0.960609  0  0  0.107786  0  1.029662  0  0  0.109472  0  1.029173  0  0  0.094055  0.106574  0  1.0301  0
H  H14  1  0.44748111  0.25327628  0.70728684  1  0  0.07055  0  0.949886  0  0  0.07552  0  1.02337  0  0  0.078306  0  1.020611  0  0  0.103915  0.073389  0  1.025533  0
H  H15  1  0.55251475  0.74672538  0.29271263  1  0  0.070519  0  0.949862  0  0  0.075472  0  1.023377  0  0  0.078273  0  1.020584  0  0  0.103895  0.073343  0  1.02554  0
H  H16  1  0.85405325  0.88323880  0.65641467  1  0  0.102473  0  0.980721  0  0  0.110736  0  1.046319  0  0  0.114437  0  1.044902  0  0  0.096336  0.108064  0  1.047562  0
H  H17  1  0.14594298  0.11675981  0.34358258  1  0  0.102476  0  0.980612  0  0  0.110695  0  1.04627  0  0  0.114398  0  1.044852  0  0  0.096317  0.108022  0  1.047514  0
H  H18  1  0.16480863  0.66879199  0.58064167  1  0  0.107108  0  1.015748  0  0  0.117565  0  1.078425  0  0  0.120326  0  1.078516  0  0  0.084013  0.115446  0  1.078656  0
H  H19  1  0.83519212  0.33120737  0.41936008  1  0  0.107111  0  1.015797  0  0  0.11755  0  1.078488  0  0  0.12031  0  1.078589  0  0  0.084004  0.115431  0  1.07872  0
H  H20  1  0.32452526  0.80954647  0.69065595  1  0  0.099393  0  0.947445  0  0  0.114611  0  1.006599  0  0  0.115771  0  1.006141  0  0  0.095504  0.11371  0  1.007009  0
H  H21  1  0.67547719  0.19045518  0.30934478  1  0  0.099394  0  0.947421  0  0  0.114612  0  1.00659  0  0  0.11577  0  1.006145  0  0  0.095495  0.113712  0  1.006999  0
H  H22  1  0.36707714  0.78874023  0.58178552  1  0  0.097352  0  0.985042  0  0  0.108913  0  1.050943  0  0  0.110625  0  1.050214  0  0  0.088604  0.10752  0  1.051666  0
H  H23  1  0.63292529  0.21126142  0.41821641  1  0  0.097407  0  0.985041  0  0  0.108973  0  1.050949  0  0  0.110687  0  1.050227  0  0  0.088639  0.107577  0  1.051673  0
H  H24  1  0.32586938  0.44104482  0.00617060  1  0  0.111778  0  0.93237  0  0  0.126069  0  0.982526  0  0  0.129516  0  0.981876  0  0  0.10799  0.12357  0  0.983239  0
H  H25  1  0.67413015  0.55895836  0.99383002  1  0  0.111826  0  0.932362  0  0  0.126113  0  0.982518  0  0  0.12956  0  0.981868  0  0  0.108012  0.123616  0  0.98323  0
H  H26  1  0.65365033  0.73552451  0.63607517  1  0  0.07635  0  0.944423  0  0  0.085766  0  1.007329  0  0  0.088558  0  1.004881  0  0  0.104226  0.083603  0  1.009264  0
H  H27  1  0.34634808  0.26447410  0.36392330  1  0  0.076362  0  0.944389  0  0  0.085792  0  1.007292  0  0  0.088585  0  1.004849  0  0  0.10423  0.083624  0  1.009225  0
H  H28  1  0.68469389  0.20930616  0.92130920  1  0  0.097716  0  0.936547  0  0  0.116358  0  0.988706  0  0  0.11748  0  0.988102  0  0  0.102824  0.11553  0  0.989191  0
H  H29  1  0.31530343  0.79069702  0.07869201  1  0  0.097698  0  0.936595  0  0  0.116326  0  0.988768  0  0  0.117449  0  0.98816  0  0  0.102798  0.1155  0  0.989251  0
H  H30  1  0.53017532  0.12693713  0.93590749  1  0  0.093989  0  0.944899  0  0  0.111636  0  1.000548  0  0  0.112662  0  1.000035  0  0  0.1007  0.110881  0  1.00095  0
H  H31  1  0.46982273  0.87306453  0.06409261  1  0  0.093995  0  0.944889  0  0  0.111622  0  1.000548  0  0  0.112647  0  1.000031  0  0  0.100711  0.110868  0  1.000947  0
H  H32  1  0.34968150  0.54848980  0.16608074  1  0  0.07331  0  0.946761  0  0  0.078797  0  1.017387  0  0  0.082247  0  1.013613  0  0  0.10694  0.076147  0  1.020282  0
H  H33  1  0.65031935  0.45151415  0.83391833  1  0  0.073301  0  0.946767  0  0  0.078792  0  1.017385  0  0  0.082243  0  1.013598  0  0  0.106934  0.076138  0  1.020289  0
H  H34  1  0.96555314  0.22268366  0.55645639  1  0  0.103004  0  0.993857  0  0  0.109247  0  1.064539  0  0  0.112504  0  1.063713  0  0  0.091827  0.106891  0  1.065326  0
H  H35  1  0.03444836  0.77730960  0.44353909  1  0  0.102938  0  0.993987  0  0  0.109285  0  1.064519  0  0  0.112544  0  1.063686  0  0  0.091823  0.106926  0  1.065309  0
H  H36  1  0.54987114  0.93090467  0.48258534  1  0  0.104197  0  0.968529  0  0  0.125743  0  1.032224  0  0  0.126472  0  1.033279  0  0  0.087964  0.125178  0  1.031558  0
H  H37  1  0.45013222  0.06909623  0.51741454  1  0  0.104176  0  0.968577  0  0  0.125724  0  1.032261  0  0  0.126453  0  1.033315  0  0  0.087953  0.125158  0  1.031596  0
H  H38  1  0.48671797  0.82413277  0.50724312  1  0  0.111737  0  0.990327  0  0  0.129553  0  1.05606  0  0  0.131523  0  1.055374  0  0  0.081062  0.127982  0  1.056696  0
H  H39  1  0.51328609  0.17586660  0.49275866  1  0  0.111733  0  0.990327  0  0  0.129533  0  1.056082  0  0  0.131502  0  1.0554  0  0  0.081039  0.12796  0  1.056715  0
H  H40  1  0.67917918  0.87245836  0.51734518  1  0  0.110648  0  0.95402  0  0  0.132202  0  1.016131  0  0  0.132234  0  1.018901  0  0  0.08849  0.132165  0  1.014232  0
H  H41  1  0.32082655  0.12754329  0.48265678  1  0  0.110603  0  0.954095  0  0  0.13218  0  1.016177  0  0  0.132213  0  1.018946  0  0  0.088484  0.13214  0  1.014276  0
H  H42  1  0.88787288  0.21278788  0.77675754  1  0  0.11273  0  0.946517  0  0  0.133529  0  1.006079  0  0  0.135204  0  1.005819  0  0  0.088417  0.13237  0  1.006201  0
H  H43  1  0.11212939  0.78721301  0.22324232  1  0  0.112725  0  0.94653  0  0  0.133524  0  1.006085  0  0  0.135202  0  1.005821  0  0  0.088414  0.132366  0  1.006207  0
H  H44  1  0.75338564  0.27752520  0.84419311  1  0  0.099841  0  0.973905  0  0  0.120404  0  1.034463  0  0  0.121763  0  1.034158  0  0  0.083982  0.119443  0  1.034666  0
H  H45  1  0.24661681  0.72247645  0.15580701  1  0  0.099906  0  0.973838  0  0  0.12043  0  1.03443  0  0  0.12179  0  1.034126  0  0  0.083988  0.119471  0  1.034634  0
H  H46  1  0.76285357  0.26919297  0.73570091  1  0  0.108885  0  0.991319  0  0  0.128114  0  1.058837  0  0  0.129896  0  1.058414  0  0  0.076883  0.126723  0  1.05918  0
H  H47  1  0.23714884  0.73080868  0.26430163  1  0  0.108881  0  0.991241  0  0  0.128117  0  1.058753  0  0  0.129897  0  1.058332  0  0  0.076899  0.126727  0  1.059099  0
H  H48  1  0.62382212  0.26079561  0.06014076  1  0  0.103713  0  0.963146  0  0  0.115941  0  1.019818  0  0  0.119348  0  1.018708  0  0  0.104214  0.113445  0  1.020899  0
H  H49  1  0.37616100  0.73919918  0.93985933  1  0  0.103803  0  0.963105  0  0  0.116006  0  1.019794  0  0  0.119411  0  1.018657  0  0  0.104245  0.113508  0  1.020877  0
H  H50  1  0.26321957  0.92316929  0.79534028  1  0  0.107316  0  0.980347  0  0  0.127693  0  1.040314  0  0  0.129408  0  1.039901  0  0  0.087977  0.126436  0  1.040624  0
H  H51  1  0.73678288  0.07683236  0.20465984  1  0  0.107321  0  0.980347  0  0  0.127696  0  1.040307  0  0  0.129411  0  1.039896  0  0  0.087983  0.12644  0  1.040618  0
H  H52  1  0.31521899  0.04830550  0.87374963  1  0  0.105151  0  0.956977  0  0  0.125116  0  1.018566  0  0  0.126738  0  1.017981  0  0  0.088109  0.123962  0  1.01898  0
H  H53  1  0.68478106  0.95169539  0.12625142  1  0  0.105142  0  0.956971  0  0  0.125087  0  1.018576  0  0  0.12671  0  1.017992  0  0  0.088099  0.123935  0  1.01899  0
H  H54  1  0.41916905  0.95249567  0.87101464  1  0  0.104523  0  0.929362  0  0  0.127225  0  0.986323  0  0  0.128093  0  0.986563  0  0  0.089537  0.126594  0  0.986167  0
H  H55  1  0.58083213  0.04750523  0.12898461  1  0  0.104505  0  0.929376  0  0  0.127202  0  0.986341  0  0  0.128069  0  0.986583  0  0  0.089525  0.126571  0  0.986185  0
H  H56  1  0.63763393  0.37741669  0.21536758  1  0  0.070633  0  0.980072  0  0  0.078487  0  1.045859  0  0  0.081922  0  1.041927  0  0  0.094694  0.075858  0  1.048809  0
H  H57  1  0.36235950  0.62257962  0.78463129  1  0  0.070627  0  0.980049  0  0  0.078462  0  1.045858  0  0  0.083797  0  1.039458  0  0  0.094692  0.075831  0  1.048808  0
C  C58  1  0.02854400  0.78920651  0.61968571  1  0  0.083411  0  3.798267  0  0  0.098016  0  4.053493  0  0  0.106065  0  4.072598  0  0  0.000306  0.092434  0  4.040695  0
C  C59  1  0.97145532  0.21079134  0.38031250  1  0  0.083395  0  3.798366  0  0  0.097994  0  4.05355  0  0  0.106036  0  4.072674  0  0  0.000297  0.092413  0  4.040748  0
C  C60  1  0.08705639  0.15370075  0.62646044  1  0  0.083148  0  3.803002  0  0  0.096673  0  4.060795  0  0  0.105746  0  4.079207  0  0  0.001542  0.090436  0  4.048406  0
C  C61  1  0.91294882  0.84629862  0.37353772  1  0  0.08313  0  3.802957  0  0  0.096642  0  4.060783  0  0  0.105711  0  4.079202  0  0  0.001521  0.090407  0  4.048393  0
C  C62  1  0.56098846  0.96593684  0.62251394  1  0  0.067266  0  3.688941  0  0  0.076903  0  3.939464  0  0  0.078098  0  3.963479  0  0  -0.010003  0.076139  0  3.92314  0
C  C63  1  0.43901689  0.03406328  0.37748750  1  0  0.067131  0  3.689009  0  0  0.076831  0  3.939483  0  0  0.078025  0  3.9635  0  0  -0.010041  0.076061  0  3.923147  0
C  C64  1  0.66359875  0.12747125  0.74449638  1  0  0.069989  0  3.712007  0  0  0.080013  0  3.961328  0  0  0.081069  0  3.986141  0  0  -0.010743  0.079309  0  3.944516  0
C  C65  1  0.33640201  0.87252811  0.25550538  1  0  0.070007  0  3.711962  0  0  0.080014  0  3.961301  0  0  0.08107  0  3.986115  0  0  -0.010751  0.079299  0  3.944488  0
C  C66  1  0.18495167  0.30602626  0.60382935  1  0  0.13317  0  3.69766  0  0  0.106801  0  3.942286  0  0  0.114801  0  3.958285  0  0  0.035889  0.101497  0  3.932065  0
C  C67  1  0.81504765  0.69397158  0.39616887  1  0  0.133336  0  3.697439  0  0  0.106948  0  3.942106  0  0  0.114945  0  3.958122  0  0  0.035983  0.101645  0  3.931896  0
C  C68  1  0.93706038  0.61283438  0.58995831  1  0  0.12767  0  3.705921  0  0  0.101117  0  3.952493  0  0  0.108828  0  3.968578  0  0  0.033265  0.095821  0  3.942305  0
C  C69  1  0.06293851  0.38716193  0.41004301  1  0  0.127615  0  3.705987  0  0  0.101102  0  3.952494  0  0  0.108806  0  3.968583  0  0  0.033253  0.095802  0  3.942307  0
C  C70  1  0.22707479  0.16379172  0.66883009  1  0  -0.18264  0  3.748531  0  0  -0.197435  0  3.994522  0  0  -0.205823  0  4.014113  0  0  -0.100701  -0.192092  0  3.981645  0
C  C71  1  0.77292857  0.83620917  0.33117039  1  0  -0.182586  0  3.7484  0  0  -0.197372  0  3.994389  0  0  -0.205762  0  4.013987  0  0  -0.100674  -0.192028  0  3.981507  0
C  C72  1  0.77246228  0.08704591  0.59856857  1  0  -0.172821  0  3.641623  0  0  -0.207664  0  3.882308  0  0  -0.206825  0  3.892073  0  0  -0.147354  -0.208254  0  3.875927  0
C  C73  1  0.22754122  0.91295574  0.40143458  1  0  -0.172751  0  3.641478  0  0  -0.207608  0  3.882299  0  0  -0.206768  0  3.892065  0  0  -0.1473  -0.208207  0  3.875916  0
C  C74  1  0.33779570  0.24449900  0.67570156  1  0  0.122745  0  3.72268  0  0  0.095922  0  3.970401  0  0  0.103885  0  3.986437  0  0  0.030814  0.090678  0  3.959941  0
C  C75  1  0.66220326  0.75550189  0.32429889  1  0  0.122759  0  3.722543  0  0  0.095943  0  3.97027  0  0  0.103908  0  3.98632  0  0  0.030822  0.090699  0  3.959816  0
C  C76  1  0.88134551  0.80686560  0.63586245  1  0  -0.179302  0  3.745832  0  0  -0.19553  0  3.990273  0  0  -0.203325  0  4.009728  0  0  -0.099065  -0.190544  0  3.977526  0
C  C77  1  0.11865695  0.19313606  0.36413768  1  0  -0.17926  0  3.745803  0  0  -0.19545  0  3.99026  0  0  -0.203248  0  4.009725  0  0  -0.099045  -0.190465  0  3.977505  0
C  C78  1  0.66119647  0.05953846  0.65604261  1  0  -0.018655  0  3.709313  0  0  -0.009996  0  3.953798  0  0  -0.013148  0  3.978806  0  0  -0.024129  -0.008046  0  3.937092  0
C  C79  1  0.33880448  0.94046167  0.34395880  1  0  -0.01871  0  3.709243  0  0  -0.010103  0  3.953783  0  0  -0.013259  0  3.978794  0  0  -0.024167  -0.008123  0  3.937039  0
C  C80  1  0.05485227  0.68903229  0.59574228  1  0  -0.176785  0  3.745297  0  0  -0.193119  0  3.986006  0  0  -0.201637  0  4.007532  0  0  -0.104128  -0.187822  0  3.972174  0
C  C81  1  0.94514464  0.31096478  0.40425686  1  0  -0.17676  0  3.745485  0  0  -0.193058  0  3.986119  0  0  -0.201577  0  4.007668  0  0  -0.104074  -0.187765  0  3.972289  0
C  C82  1  0.46006044  0.94098155  0.67854191  1  0  -0.016206  0  3.699932  0  0  -0.005417  0  3.941909  0  0  -0.008964  0  3.967444  0  0  -0.024435  -0.003182  0  3.924759  0
C  C83  1  0.53994273  0.05901858  0.32145831  1  0  -0.01616  0  3.699977  0  0  -0.005369  0  3.94195  0  0  -0.008913  0  3.967485  0  0  -0.024428  -0.003132  0  3.924795  0
C  C84  1  0.46323221  0.00756060  0.76774773  1  0  0.061528  0  3.702938  0  0  0.071747  0  3.952605  0  0  0.072372  0  3.977964  0  0  -0.013328  0.071386  0  3.935383  0
C  C85  1  0.53676804  0.99244106  0.23225299  1  0  0.06161  0  3.702987  0  0  0.071769  0  3.952686  0  0  0.072393  0  3.978045  0  0  -0.013319  0.07141  0  3.935464  0
C  C86  1  0.34234366  0.84634921  0.64387260  1  0  -0.18072  0  3.673188  0  0  -0.218339  0  3.918134  0  0  -0.217638  0  3.92879  0  0  -0.149265  -0.21879  0  3.911118  0
C  C87  1  0.65765639  0.15365168  0.35612846  1  0  -0.18079  0  3.673209  0  0  -0.218424  0  3.918145  0  0  -0.217729  0  3.928816  0  0  -0.149308  -0.218873  0  3.911126  0
C  C88  1  0.39559626  0.42349482  0.05028987  1  0  -0.178996  0  3.750149  0  0  -0.196352  0  3.999007  0  0  -0.205289  0  4.019101  0  0  -0.097857  -0.190696  0  3.985832  0
C  C89  1  0.60440254  0.57650532  0.94970851  1  0  -0.179042  0  3.750228  0  0  -0.196395  0  3.999087  0  0  -0.205334  0  4.019125  0  0  -0.097884  -0.19074  0  3.985911  0
C  C90  1  0.76961110  0.72514367  0.62577216  1  0  0.12431  0  3.704784  0  0  0.09968  0  3.9471  0  0  0.106909  0  3.963883  0  0  0.034903  0.094792  0  3.936222  0
C  C91  1  0.23038810  0.27485800  0.37422493  1  0  0.124232  0  3.704924  0  0  0.099576  0  3.947228  0  0  0.106799  0  3.964018  0  0  0.034873  0.094692  0  3.936336  0
C  C92  1  0.57116842  0.16909847  0.89565310  1  0  -0.172972  0  3.702506  0  0  -0.215858  0  3.96117  0  0  -0.214074  0  3.971586  0  0  -0.143041  -0.216896  0  3.953758  0
C  C93  1  0.42882890  0.83090471  0.10434871  1  0  -0.172961  0  3.702672  0  0  -0.215793  0  3.96119  0  0  -0.214013  0  3.97161  0  0  -0.143007  -0.216832  0  3.953783  0
C  C94  1  0.40942071  0.48416443  0.13936428  1  0  0.123698  0  3.719026  0  0  0.093808  0  3.972007  0  0  0.102139  0  3.987377  0  0  0.035817  0.088289  0  3.962141  0
C  C95  1  0.59058233  0.51583951  0.86063542  1  0  0.123635  0  3.719146  0  0  0.093728  0  3.97211  0  0  0.102059  0  3.987413  0  0  0.035758  0.088208  0  3.962234  0
C  C96  1  0.06867917  0.22637040  0.59197375  1  0  -0.174605  0  3.738864  0  0  -0.194497  0  3.990103  0  0  -0.202925  0  4.010993  0  0  -0.10114  -0.189248  0  3.976549  0
C  C97  1  0.93132330  0.77362668  0.40802182  1  0  -0.174656  0  3.73886  0  0  -0.194604  0  3.990093  0  0  -0.203033  0  4.010988  0  0  -0.101197  -0.189351  0  3.976545  0
C  C98  1  0.56815840  0.89466459  0.52833329  1  0  -0.330445  0  3.708134  0  0  -0.409631  0  3.942518  0  0  -0.412425  0  3.953116  0  0  -0.247975  -0.407411  0  3.935208  0
C  C99  1  0.43184493  0.10533629  0.47166900  1  0  -0.330344  0  3.708113  0  0  -0.409555  0  3.9425  0  0  -0.41235  0  3.953095  0  0  -0.247929  -0.407337  0  3.935187  0
C  C100  1  0.77189073  0.22655979  0.77763279  1  0  -0.340012  0  3.738312  0  0  -0.417785  0  3.97189  0  0  -0.420688  0  3.981067  0  0  -0.250215  -0.415495  0  3.965491  0
C  C101  1  0.22810877  0.77343881  0.22236629  1  0  -0.340063  0  3.738159  0  0  -0.417805  0  3.971756  0  0  -0.420709  0  3.980932  0  0  -0.250237  -0.415515  0  3.965364  0
C  C102  1  0.47206443  0.33983575  0.01799860  1  0  0.078564  0  3.828757  0  0  0.09111  0  4.089967  0  0  0.100293  0  4.110169  0  0  -0.002084  0.084844  0  4.076232  0
C  C103  1  0.52793585  0.66016591  0.98199971  1  0  0.078558  0  3.828788  0  0  0.091096  0  4.090007  0  0  0.100284  0  4.110133  0  0  -0.002098  0.08483  0  4.076272  0
C  C104  1  0.56100219  0.32350758  0.07913867  1  0  -0.190168  0  3.77106  0  0  -0.20601  0  4.013013  0  0  -0.215075  0  4.033491  0  0  -0.103821  -0.200371  0  3.999764  0
C  C105  1  0.43898901  0.67648874  0.92086199  1  0  -0.190332  0  3.771143  0  0  -0.206157  0  4.013098  0  0  -0.215331  0  4.034193  0  0  -0.103878  -0.200519  0  3.99985  0
C  C106  1  0.56631083  0.09953393  0.80018675  1  0  -0.027753  0  3.725358  0  0  -0.017862  0  3.969185  0  0  -0.022077  0  3.995427  0  0  -0.028816  -0.015088  0  3.951468  0
C  C107  1  0.43368757  0.90046925  0.19981567  1  0  -0.02784  0  3.725547  0  0  -0.017876  0  3.969309  0  0  -0.022091  0  3.995549  0  0  -0.028834  -0.015101  0  3.951596  0
C  C108  1  0.35968411  0.98125181  0.82973759  1  0  -0.331591  0  3.753957  0  0  -0.410902  0  3.992654  0  0  -0.412724  0  4.001708  0  0  -0.244228  -0.409405  0  3.986234  0
C  C109  1  0.64031722  0.01874985  0.17026373  1  0  -0.331571  0  3.753965  0  0  -0.410846  0  3.992674  0  0  -0.41267  0  4.001732  0  0  -0.244201  -0.409356  0  3.986256  0
C  C110  1  0.56940568  0.38897066  0.16679566  1  0  0.133682  0  3.718793  0  0  0.108668  0  3.957864  0  0  0.11695  0  3.973142  0  0  0.033679  0.103067  0  3.948282  0
C  C111  1  0.43058831  0.61102795  0.83320398  1  0  0.133735  0  3.718828  0  0  0.108726  0  3.957876  0  0  0.115811  0  3.972873  0  0  0.033723  0.103124  0  3.948288  0
S  S112  1  0.94960751  0.05225450  0.62059604  1  0  -0.009476  0  2.477141  0  0  -0.007443  0  2.823449  0  0  -0.014375  0  2.826103  0  0  0.021761  -0.002276  0  2.821537  0
S  S113  1  0.05039418  0.94774411  0.37940366  1  0  -0.009485  0  2.477155  0  0  -0.007423  0  2.823458  0  0  -0.014353  0  2.826113  0  0  0.021786  -0.002252  0  2.821545  0
S  S114  1  0.16956973  0.89022674  0.62812382  1  0  -0.004158  0  2.457884  0  0  0.002966  0  2.800651  0  0  -0.003085  0  2.802645  0  0  0.025303  0.007439  0  2.799271  0
S  S115  1  0.83043086  0.10977187  0.37187647  1  0  -0.004184  0  2.457932  0  0  0.002939  0  2.800698  0  0  -0.003105  0  2.802697  0  0  0.025291  0.007412  0  2.799318  0
S  S116  1  0.45161716  0.26352197  0.90589179  1  0  0.004232  0  2.366156  0  0  0.008631  0  2.680777  0  0  0.001611  0  2.682888  0  0  0.026137  0.013553  0  2.679278  0
S  S117  1  0.54837962  0.73647893  0.09410683  1  0  0.004281  0  2.366174  0  0  0.008675  0  2.680761  0  0  0.001652  0  2.68286  0  0  0.026167  0.013598  0  2.679265  0
I  I118  1  0.27133663  0.62850926  0.38180306  1  0  -0.467057  0  1.423725  0  0  -0.417325  0  1.820925  0  0  -0.433455  0  1.78472  0  0  -0.228099  -0.405101  0  1.844199  0
I  I119  1  0.72865849  0.37148935  0.61819478  1  0  -0.467047  0  1.423752  0  0  -0.417316  0  1.820961  0  0  -0.433441  0  1.784769  0  0  -0.228092  -0.405094  0  1.844224  0
I  I120  1  0.62551622  0.43671823  0.39403313  1  0  -0.40636  0  1.755945  0  0  -0.359539  0  2.22097  0  0  -0.373095  0  2.173415  0  0  -0.176604  -0.349568  0  2.252106  0
I  I121  1  0.37448731  0.56327885  0.60596486  1  0  -0.406314  0  1.755969  0  0  -0.359497  0  2.221001  0  0  -0.373511  0  2.173837  0  0  -0.176587  -0.349527  0  2.252132  0
N  N122  1  0.31855807  0.31666004  0.64515523  1  0  -0.284573  0  3.367389  0  0  -0.210259  0  3.65317  0  0  -0.222406  0  3.660755  0  0  -0.370908  -0.203281  0  3.648264  0
N  N123  1  0.68144034  0.68333857  0.35484263  1  0  -0.284624  0  3.367309  0  0  -0.210297  0  3.653081  0  0  -0.22245  0  3.660689  0  0  -0.37092  -0.203318  0  3.648192  0
N  N124  1  0.79524637  0.62879298  0.60319928  1  0  -0.272389  0  3.374499  0  0  -0.20016  0  3.654677  0  0  -0.213909  0  3.664708  0  0  -0.368352  -0.191748  0  3.648326  0
N  N125  1  0.20475004  0.37120640  0.39679883  1  0  -0.272291  0  3.37451  0  0  -0.200039  0  3.654631  0  0  -0.213781  0  3.664661  0  0  -0.368329  -0.191626  0  3.648272  0
N  N126  1  0.49496844  0.46830208  0.19832895  1  0  -0.272576  0  3.339051  0  0  -0.201055  0  3.625899  0  0  -0.212142  0  3.63247  0  0  -0.362926  -0.194862  0  3.621761  0
N  N127  1  0.50502521  0.53169958  0.80167112  1  0  -0.272512  0  3.339101  0  0  -0.200945  0  3.62589  0  0  -0.212155  0  3.63313  0  0  -0.36289  -0.194748  0  3.621737  0
