# generated using pymatgen
data_Zn8H48C73O31
_symmetry_space_group_name_H-M   'P 1'
_cell_length_a   18.38950515
_cell_length_b   18.44384317
_cell_length_c   18.46019974
_cell_angle_alpha   60.24462703
_cell_angle_beta   60.16398147
_cell_angle_gamma   59.81843683
_symmetry_Int_Tables_number   1
_chemical_formula_structural   Zn8H48C73O31
_chemical_formula_sum   'Zn8 H48 C73 O31'
_cell_volume   4434.79521330
_cell_formula_units_Z   1
loop_
 _symmetry_equiv_pos_site_id
 _symmetry_equiv_pos_as_xyz
  1  'x, y, z'
loop_
 _atom_site_type_symbol
 _atom_site_label
 _atom_site_symmetry_multiplicity
 _atom_site_fract_x
 _atom_site_fract_y
 _atom_site_fract_z
 _atom_site_occupancy
 _atom_site_pbe_bader_charge
 _atom_site_pbe_bader_spin_density
 _atom_site_pbe_cm5_charge
 _atom_site_pbe_ddec_charge
 _atom_site_pbe_ddec_spin_density
 _atom_site_pbe_ddec_sum_bond_order
 _atom_site_pbe_magmom
Zn  Zn0  1  0.95337498  0.45691160  0.45964035  1  1.321189  0  0.678745  0.969769  0  2.363228  0
Zn  Zn1  1  0.13200907  0.45486016  0.45630187  1  1.317535  0  0.667354  0.95435  0  2.376934  0
Zn  Zn2  1  0.95876179  0.45879970  0.62807186  1  1.313663  0  0.669204  0.955389  0  2.415455  0
Zn  Zn3  1  0.95849821  0.63083253  0.45475710  1  1.302942  0  0.673084  0.96016  0  2.383522  0
Zn  Zn4  1  0.54046721  0.04246087  0.04781906  1  1.308586  0  0.675314  0.954561  0  2.403629  0
Zn  Zn5  1  0.54646226  0.04451139  0.87209356  1  1.310715  0  0.675698  0.957707  0  2.382436  0
Zn  Zn6  1  0.36919175  0.04000684  0.04471287  1  1.298214  0  0.668444  0.958948  0  2.376303  0
Zn  Zn7  1  0.54553444  0.86860278  0.04428820  1  1.312252  0  0.668639  0.959374  0  2.391696  0
H  H8  1  0.06826034  0.37307118  0.15785538  1  0.051557  0  0.098113  0.094313  0  1.006981  0
H  H9  1  0.11206143  0.48469562  0.15062737  1  0.057803  0  0.098901  0.094481  0  0.997047  0
H  H10  1  0.70784519  0.68306271  0.91015018  1  0.084959  0  0.106374  0.113621  0  0.995932  0
H  H11  1  0.64438595  0.97264374  0.63199238  1  0.116091  0  0.096961  0.116631  0  0.995685  0
H  H12  1  0.74342419  0.97256366  0.62726977  1  0.060538  0  0.097399  0.107785  0  0.98131  0
H  H13  1  0.73754480  0.87635562  0.53393008  1  0.035102  0  0.096382  0.10516  0  0.984822  0
H  H14  1  0.83636109  0.87825098  0.52792570  1  0.045715  0  0.099439  0.112452  0  0.980887  0
H  H15  1  0.31884720  0.58999147  0.33982407  1  0.110503  0  0.106644  0.113339  0  0.9955  0
H  H16  1  0.41199353  0.68705457  0.24005932  1  0.094142  0  0.108336  0.114573  0  0.992586  0
H  H17  1  0.11721664  0.96660993  0.19542668  1  0.068439  0  0.103339  0.12822  0  0.974596  0
H  H18  1  0.15631718  0.93725202  0.10003800  1  0.063902  0  0.095132  0.1138  0  0.98897  0
H  H19  1  0.43951930  0.12675245  0.34895212  1  0.021559  0  0.099351  0.093313  0  1.005343  0
H  H20  1  0.99630340  0.62076703  0.18682036  1  0.033739  0  0.098157  0.096479  0  1.000617  0
H  H21  1  0.07263146  0.82893253  0.19067676  1  0.046027  0  0.100827  0.04209  0  0.966796  0
H  H22  1  0.08947811  0.30933410  0.81464720  1  0.117944  0  0.10936  0.115814  0  0.992579  0
H  H23  1  0.18442950  0.21719202  0.91091573  1  0.115262  0  0.108368  0.115639  0  0.994797  0
H  H24  1  0.37793008  0.32555402  0.52631454  1  0.055413  0  0.103614  0.137434  0  0.975781  0
H  H25  1  0.36917317  0.22792220  0.53777280  1  0.042432  0  0.096565  0.123059  0  0.989392  0
H  H26  1  0.08851754  0.25668129  0.34294284  1  0.093955  0  0.107718  0.114916  0  0.993656  0
H  H27  1  0.18236003  0.15837319  0.25006641  1  0.098963  0  0.106205  0.113397  0  0.994093  0
H  H28  1  0.47141678  0.21830764  0.17939278  1  0.071281  0  0.095729  0.108587  0  1.007237  0
H  H29  1  0.79168611  0.53492485  0.23758778  1  0.065161  0  0.103214  0.104679  0  0.991885  0
H  H30  1  0.39253903  0.01808654  0.35505010  1  0.074462  0  0.10075  0.096786  0  0.994986  0
H  H31  1  0.43146751  0.30766174  0.09229872  1  0.043999  0  0.099989  0.112614  0  0.973197  0
H  H32  1  0.37700987  0.31551424  0.27650891  1  0.053182  0  0.095787  0.104838  0  0.986225  0
H  H33  1  0.33852905  0.40480758  0.18857479  1  0.057907  0  0.098032  0.10858  0  0.979113  0
H  H34  1  0.90744546  0.39922878  0.20049693  1  0.052225  0  0.099725  0.093951  0  0.997209  0
H  H35  1  0.75787294  0.70432751  0.14184606  1  0.091306  0  0.108644  0.117046  0  0.999333  0
H  H36  1  0.74512979  0.79716013  0.35826975  1  0.091662  0  0.10699  0.11453  0  1.00414  0
H  H37  1  0.71479584  0.96474809  0.26190440  1  0.068538  0  0.098366  0.095817  0  1.008901  0
H  H38  1  0.60141617  0.09960194  0.30211113  1  0.055077  0  0.09931  0.094171  0  0.997087  0
H  H39  1  0.77621415  0.03987390  0.95025727  1  0.051644  0  0.094219  0.095166  0  1.011611  0
H  H40  1  0.77366259  0.06319251  0.03466597  1  0.047398  0  0.107479  0.116163  0  0.972444  0
H  H41  1  0.50598442  0.88320367  0.31531271  1  0.065552  0  0.101083  0.100714  0  0.993442  0
H  H42  1  0.86276391  0.07387367  0.93029336  1  0.03522  0  0.090973  0.082372  0  0.995153  0
H  H43  1  0.64765842  0.43110362  0.58484626  1  0.555842  0  0.31931  0.344365  0  0.907459  0
H  H44  1  0.92062907  0.88913847  0.24406901  1  0.025376  0  0.089243  0.07971  0  1.007245  0
H  H45  1  0.93845239  0.98879062  0.21570089  1  0.031663  0  0.087836  0.078906  0  0.99729  0
H  H46  1  0.87297154  0.94061983  0.32582575  1  0.056492  0  0.103439  0.107751  0  0.983188  0
H  H47  1  0.53361911  0.27888579  0.48264447  1  0.037281  0  0.091662  0.08311  0  1.005439  0
H  H48  1  0.60766602  0.18050844  0.53696537  1  0.066039  0  0.095236  0.095194  0  0.999506  0
H  H49  1  0.58961622  0.28758302  0.53284470  1  0.060565  0  0.105074  0.111577  0  0.989793  0
H  H50  1  0.44531900  0.09095349  0.63263989  1  0.602418  0  0.326317  0.361879  0  0.892735  0
H  H51  1  0.82561920  0.27734167  0.81723811  1  0.098479  0  0.112503  0.135781  0  0.990983  0
H  H52  1  0.69631120  0.19092033  0.64195968  1  0.054937  0  0.099102  0.122151  0  0.982668  0
H  H53  1  0.60537579  0.28642607  0.66576045  1  0.052826  0  0.102526  0.126443  0  0.978536  0
H  H54  1  0.79507700  0.28461428  0.53950465  1  0.077356  0  0.112262  0.068498  0  0.937672  0
H  H55  1  0.80170981  0.58943362  0.81287237  1  0.079731  0  0.106687  0.113913  0  0.99642  0
C  C56  1  0.14458628  0.63115332  0.36647616  1  1.566757  0  0.227584  0.605432  0  4.178471  0
C  C57  1  0.81662816  0.66871949  0.23593720  1  -0.058894  0  0.005324  0.06227  0  3.960621  0
C  C58  1  0.64401750  0.97621484  0.28288436  1  -0.059331  0  -0.093446  -0.135518  0  3.983581  0
C  C59  1  0.85846424  0.36631337  0.64144427  1  1.52141  0  0.227028  0.60412  0  4.177357  0
C  C60  1  0.58018011  0.05214698  0.30535881  1  -0.065493  0  -0.09707  -0.090768  0  4.05545  0
C  C61  1  0.48957724  0.06750926  0.33138065  1  -0.004561  0  -0.095566  -0.091839  0  4.03931  0
C  C62  1  0.46319135  0.00655669  0.33464901  1  -0.064187  0  -0.093906  -0.080233  0  4.034566  0
C  C63  1  0.52697304  0.93099342  0.31184240  1  -0.040743  0  -0.091203  -0.125658  0  3.975817  0
C  C64  1  0.61832465  0.91495020  0.28520504  1  -0.011817  0  -0.007445  0.077687  0  3.998656  0
C  C65  1  0.75602029  0.29396526  0.66974055  1  0.003711  0  -0.022247  -0.062691  0  3.903147  0
C  C66  1  0.80097517  0.30994039  0.69999451  1  -0.028768  0  -0.009923  -0.029094  0  3.994147  0
C  C67  1  0.86203779  0.52442793  0.21743499  1  -0.05629  0  -0.089099  -0.127268  0  3.96919  0
C  C68  1  0.79236335  0.26675909  0.79004869  1  0.043937  0  -0.091588  -0.217128  0  3.945406  0
C  C69  1  0.74325999  0.20908857  0.84708454  1  0.506578  0  0.095767  0.2517  0  4.009448  0
C  C70  1  0.69829564  0.19197860  0.81581640  1  0.020807  0  -0.019486  -0.184917  0  3.927941  0
C  C71  1  0.13496184  0.36266468  0.36260630  1  1.542559  0  0.226709  0.606754  0  4.181435  0
C  C72  1  0.70641330  0.23732631  0.72640018  1  -0.069692  0  -0.003142  0.096628  0  3.935725  0
C  C73  1  0.67697521  0.25072678  0.65592997  1  -0.013253  0  -0.160718  -0.296102  0  3.874471  0
C  C74  1  0.73631179  0.31247100  0.58965428  1  0.51532  0  0.007682  0.196804  0  3.891873  0
C  C75  1  0.77211191  0.79189229  0.65681682  1  -0.030939  0  -0.002304  0.064731  0  3.87749  0
C  C76  1  0.80345142  0.69943966  0.69106921  1  0.053752  0  -0.014216  -0.081706  0  3.980001  0
C  C77  1  0.77843772  0.66153290  0.78413525  1  -0.009149  0  -0.085047  -0.099629  0  3.985318  0
C  C78  1  0.92724108  0.44784204  0.19709376  1  -0.007311  0  -0.095943  -0.086649  0  4.048484  0
C  C79  1  0.72597436  0.71393339  0.83857377  1  -0.066912  0  -0.084907  -0.10127  0  3.989547  0
C  C80  1  0.69550702  0.80756552  0.80333979  1  0.019725  0  -0.014429  -0.080427  0  3.981439  0
C  C81  1  0.71975344  0.84455898  0.71146266  1  -0.039961  0  -0.001657  0.065959  0  3.873305  0
C  C82  1  0.71221071  0.93080846  0.63447213  1  -0.070998  0  -0.151911  -0.202991  0  3.873944  0
C  C83  1  0.86130973  0.64205153  0.63438370  1  1.511986  0  0.227761  0.610349  0  4.173133  0
C  C84  1  0.77098560  0.87118591  0.57262463  1  -0.00141  0  -0.151957  -0.202249  0  3.886182  0
C  C85  1  0.16557931  0.77779463  0.26007505  1  0.015322  0  -0.005953  -0.010194  0  3.861722  0
C  C86  1  0.19971814  0.68968655  0.30987457  1  -0.0098  0  -0.007562  -0.050303  0  3.964162  0
C  C87  1  0.29007550  0.65841766  0.30152696  1  -0.043205  0  -0.082361  -0.103234  0  3.977955  0
C  C88  1  0.34228185  0.71274603  0.24540962  1  -0.041858  0  -0.079195  -0.090262  0  3.970431  0
C  C89  1  0.01727618  0.43308442  0.17324359  1  -0.09589  0  -0.095837  -0.089295  0  4.033076  0
C  C90  1  0.30735057  0.80150086  0.19448123  1  0.074337  0  -0.012428  -0.077347  0  3.96544  0
C  C91  1  0.21746516  0.83240147  0.20427764  1  -0.08695  0  0.001264  0.084378  0  3.899075  0
C  C92  1  0.14325103  0.91129356  0.17168165  1  -0.060379  0  -0.158247  -0.288863  0  3.869066  0
C  C93  1  0.08544275  0.84726284  0.23094194  1  0.530825  0  0.014326  0.147503  0  3.868939  0
C  C94  1  0.29145675  0.26722543  0.65874491  1  -0.02551  0  -0.001812  0.096405  0  3.924896  0
C  C95  1  0.14112931  0.35762529  0.63666716  1  1.548904  0  0.226612  0.607015  0  4.177682  0
C  C96  1  0.19882844  0.30215855  0.69323537  1  0.009407  0  -0.012614  -0.075434  0  3.961003  0
C  C97  1  0.16164099  0.28295088  0.78570530  1  -0.037144  0  -0.077454  -0.087015  0  3.970133  0
C  C98  1  0.21477843  0.23160171  0.83957677  1  -0.069592  0  -0.081483  -0.102153  0  3.969444  0
C  C99  1  0.30838004  0.19698750  0.80425505  1  -0.036074  0  -0.005378  -0.029395  0  3.947283  0
C  C100  1  0.75495585  0.72338840  0.19069943  1  0.068654  0  -0.078266  -0.136752  0  3.940691  0
C  C101  1  0.34463524  0.21685678  0.71257576  1  0.011035  0  -0.011733  -0.083808  0  3.852487  0
C  C102  1  0.43090130  0.20332664  0.63364998  1  1.056528  0  0.165197  0.453281  0  3.887242  0
C  C103  1  0.36823897  0.26192685  0.57325679  1  -0.019497  0  -0.165172  -0.36347  0  3.869984  0
C  C104  1  0.27938713  0.29915741  0.25359664  1  -0.057114  0  -0.00522  0.055993  0  3.889682  0
C  C105  1  0.19121920  0.30500696  0.30612309  1  -0.013816  0  -0.013547  -0.080622  0  3.984194  0
C  C106  1  0.15743346  0.25297417  0.30311768  1  -0.036839  0  -0.083111  -0.09941  0  3.986834  0
C  C107  1  0.86635329  0.64051349  0.35702249  1  1.576339  0  0.228837  0.606731  0  4.176059  0
C  C108  1  0.20990143  0.19817994  0.25089630  1  -0.03602  0  -0.085262  -0.10661  0  3.988056  0
C  C109  1  0.29925251  0.19243865  0.19817584  1  -0.019579  0  -0.013069  -0.077891  0  3.982747  0
C  C110  1  0.33177429  0.24466921  0.20083836  1  0.017606  0  -0.002327  0.064566  0  3.88587  0
C  C111  1  0.69140790  0.80421124  0.20303222  1  -0.058138  0  -0.011031  -0.067809  0  3.937767  0
C  C112  1  0.41186137  0.27204904  0.16376440  1  -0.001841  0  -0.152501  -0.201741  0  3.877125  0
C  C113  1  0.35295950  0.33316800  0.22406765  1  -0.053409  0  -0.151817  -0.199659  0  3.889143  0
C  C114  1  0.64087608  0.86273217  0.86215208  1  1.543404  0  0.226738  0.607567  0  4.180399  0
C  C115  1  0.35603848  0.13377303  0.14278585  1  1.583512  0  0.225012  0.603088  0  4.181978  0
C  C116  1  0.64129048  0.13526020  0.87117454  1  1.579645  0  0.225931  0.616077  0  4.179882  0
C  C117  1  0.36396861  0.85852212  0.13515020  1  1.547393  0  0.226654  0.608255  0  4.176765  0
C  C118  1  0.36374551  0.14138087  0.86328011  1  1.599776  0  0.228528  0.60465  0  4.176881  0
C  C119  1  0.04181405  0.49563479  0.16956602  1  -0.0284  0  -0.096207  -0.080849  0  4.040889  0
C  C120  1  0.63536206  0.86042444  0.14420028  1  1.589319  0  0.227668  0.605748  0  4.175918  0
C  C121  1  0.97675656  0.57191732  0.19022332  1  -0.052184  0  -0.094616  -0.132285  0  3.989001  0
C  C122  1  0.68666267  0.83311974  0.26377673  1  -0.002882  0  0.002946  0.057065  0  3.965659  0
C  C123  1  0.88593690  0.58705036  0.21500315  1  0.043546  0  -0.00872  0.072531  0  4.003993  0
C  C124  1  0.79124615  0.08218003  0.96311902  1  0.41996  0  -0.137291  -0.160045  0  3.927216  0
C  C125  1  0.93115100  0.92579734  0.26861954  1  0.415985  0  -0.143635  -0.171054  0  3.98924  0
C  C126  1  0.55849666  0.24671409  0.53860161  1  0.375246  0  -0.143142  -0.163749  0  3.9389  0
C  C127  1  0.74816017  0.77828147  0.30920780  1  -0.013719  0  -0.081212  -0.143408  0  3.953018  0
C  C128  1  0.81137964  0.69729521  0.29712570  1  -0.025814  0  -0.009177  -0.064301  0  3.933458  0
O  O129  1  0.00129505  0.50039355  0.49890246  1  -1.227169  0  -0.57398  -1.031631  0  2.547822  0
O  O130  1  0.32361496  0.94127892  0.10257899  1  -1.16976  0  -0.312929  -0.540376  0  2.317828  0
O  O131  1  0.44764528  0.11567655  0.82498449  1  -1.166042  0  -0.302774  -0.521645  0  2.363923  0
O  O132  1  0.06218897  0.66912942  0.37435660  1  -1.167525  0  -0.308281  -0.53597  0  2.368355  0
O  O133  1  0.61645994  0.81941159  0.12049264  1  -1.175021  0  -0.31516  -0.543594  0  2.333034  0
O  O134  1  0.32224085  0.12414430  0.94648655  1  -1.175387  0  -0.31703  -0.550297  0  2.332956  0
O  O135  1  0.61373781  0.94423737  0.12050780  1  -1.178644  0  -0.307602  -0.540728  0  2.385959  0
O  O136  1  0.62004367  0.10927155  0.95483691  1  -1.174627  0  -0.307728  -0.53328  0  2.385699  0
O  O137  1  0.44754725  0.82042448  0.12203376  1  -1.181406  0  -0.314808  -0.546142  0  2.338382  0
O  O138  1  0.62255570  0.94649832  0.82382768  1  -1.164538  0  -0.308205  -0.53319  0  2.336738  0
O  O139  1  0.31855597  0.09849338  0.13266414  1  -1.176893  0  -0.316743  -0.548448  0  2.319987  0
O  O140  1  0.05226263  0.37207610  0.39919721  1  -1.168257  0  -0.312226  -0.543844  0  2.342097  0
O  O141  1  0.87256093  0.39322647  0.55881855  1  -1.150698  0  -0.305442  -0.529478  0  2.335584  0
O  O142  1  0.17497316  0.39788197  0.36963746  1  -1.172544  0  -0.314636  -0.544528  0  2.32153  0
O  O143  1  0.88219631  0.55829124  0.67384304  1  -1.167785  0  -0.316671  -0.547809  0  2.348696  0
O  O144  1  0.18016028  0.36856478  0.55401078  1  -1.169453  0  -0.312456  -0.538804  0  2.318586  0
O  O145  1  0.88769867  0.68155948  0.37835593  1  -1.180049  0  -0.315348  -0.544815  0  2.336962  0
O  O146  1  0.05779212  0.38972122  0.67540383  1  -1.176921  0  -0.313946  -0.543726  0  2.341381  0
O  O147  1  0.88419186  0.55708249  0.38389585  1  -1.166301  0  -0.303765  -0.533909  0  2.375165  0
O  O148  1  0.73863406  0.17410969  0.93395747  1  -1.078373  0  -0.212512  -0.197922  0  2.534033  0
O  O149  1  0.69464500  0.40093069  0.54227432  1  -1.076483  0  -0.409894  -0.496389  0  2.187211  0
O  O150  1  0.00622983  0.87302746  0.29836178  1  -1.059384  0  -0.234545  -0.204388  0  2.500557  0
O  O151  1  0.88559144  0.68158407  0.55078978  1  -1.159599  0  -0.309906  -0.53818  0  2.321793  0
O  O152  1  0.48688700  0.24123298  0.62137846  1  -1.059846  0  -0.219694  -0.236471  0  2.468951  0
O  O153  1  0.48224610  0.11488748  0.63214770  1  -1.112506  0  -0.390768  -0.546116  0  2.188827  0
O  O154  1  0.18382266  0.54855792  0.40099696  1  -1.175128  0  -0.317635  -0.547612  0  2.316937  0
O  O155  1  0.88937367  0.38170543  0.67891939  1  -1.168571  0  -0.3156  -0.543703  0  2.342529  0
O  O156  1  0.49982378  0.99862666  0.00206184  1  -1.204805  0  -0.573866  -1.030369  0  2.549507  0
O  O157  1  0.61717538  0.82202200  0.94548518  1  -1.170451  0  -0.317799  -0.550039  0  2.339074  0
O  O158  1  0.43886219  0.12397524  0.10967343  1  -1.172772  0  -0.307051  -0.532432  0  2.348482  0
O  O159  1  0.61703765  0.11839450  0.82877111  1  -1.163751  0  -0.309134  -0.536421  0  2.339341  0
