# generated using pymatgen
data_ZnH15C10N2ClO4
_symmetry_space_group_name_H-M   'P 1'
_cell_length_a   6.20294898
_cell_length_b   11.53450228
_cell_length_c   17.57942615
_cell_angle_alpha   90.00015746
_cell_angle_beta   89.99954916
_cell_angle_gamma   89.99976554
_symmetry_Int_Tables_number   1
_chemical_formula_structural   ZnH15C10N2ClO4
_chemical_formula_sum   'Zn4 H60 C40 N8 Cl4 O16'
_cell_volume   1257.77153532
_cell_formula_units_Z   4
loop_
 _symmetry_equiv_pos_site_id
 _symmetry_equiv_pos_as_xyz
  1  'x, y, z'
loop_
 _atom_site_type_symbol
 _atom_site_label
 _atom_site_symmetry_multiplicity
 _atom_site_fract_x
 _atom_site_fract_y
 _atom_site_fract_z
 _atom_site_occupancy
 _atom_site_pbe_bader_spin_density
 _atom_site_pbe_cm5_charge
 _atom_site_pbe_ddec_charge
 _atom_site_pbe_ddec_spin_density
 _atom_site_pbe_ddec_sum_bond_order
 _atom_site_pbe_magmom
Zn  Zn0  1  0.73514253  0.58071600  0.78777095  1  0  0.632563  0.776362  0  2.362791  0
Zn  Zn1  1  0.76485235  0.41928531  0.28777094  1  0  0.632536  0.776333  0  2.362766  0
Zn  Zn2  1  0.26485284  0.08071733  0.71222830  1  0  0.632586  0.77645  0  2.362689  0
Zn  Zn3  1  0.23514518  0.91928130  0.21222983  1  0  0.632566  0.77642  0  2.362707  0
H  H4  1  0.60383453  0.69217716  0.27209398  1  0  0.264663  0.318632  0  1.027378  0
H  H5  1  0.89616715  0.30782062  0.77209306  1  0  0.264633  0.318605  0  1.02746  0
H  H6  1  0.39616796  0.19217913  0.22790695  1  0  0.264628  0.318599  0  1.027459  0
H  H7  1  0.10383132  0.80782130  0.72790772  1  0  0.26463  0.318619  0  1.027423  0
H  H8  1  0.36970515  0.68807421  0.74243559  1  0  0.287274  0.376987  0  0.965431  0
H  H9  1  0.13029541  0.31192714  0.24243691  1  0  0.287285  0.376989  0  0.965436  0
H  H10  1  0.63028778  0.18807406  0.75756441  1  0  0.287279  0.37698  0  0.965442  0
H  H11  1  0.86970939  0.81192453  0.25756594  1  0  0.2873  0.377029  0  0.965401  0
H  H12  1  0.28012342  0.58031944  0.79185248  1  0  0.28467  0.386666  0  0.957205  0
H  H13  1  0.21987281  0.41968212  0.29185373  1  0  0.284705  0.386692  0  0.957158  0
H  H14  1  0.71987355  0.08032061  0.70814733  1  0  0.284713  0.386724  0  0.957122  0
H  H15  1  0.78012956  0.91968036  0.20814987  1  0  0.284699  0.386741  0  0.957089  0
H  H16  1  0.98004673  0.53210249  0.39678738  1  0  0.292556  0.261753  0  0.986646  0
H  H17  1  0.51995376  0.46789323  0.89678494  1  0  0.292519  0.261789  0  0.986607  0
H  H18  1  0.01996503  0.03210388  0.10321441  1  0  0.29253  0.261717  0  0.986678  0
H  H19  1  0.48004671  0.96789428  0.60321442  1  0  0.292522  0.261794  0  0.986611  0
H  H20  1  0.08883995  0.57801067  0.67206044  1  0  0.119009  0.088174  0  1.026619  0
H  H21  1  0.41114768  0.42199125  0.17206174  1  0  0.119021  0.08822  0  1.026579  0
H  H22  1  0.91115866  0.07800933  0.82793937  1  0  0.119004  0.088176  0  1.026603  0
H  H23  1  0.58884983  0.92199302  0.32793676  1  0  0.119034  0.088228  0  1.026611  0
H  H24  1  0.13478759  0.51811091  0.53590400  1  0  0.109942  0.130734  0  1.027011  0
H  H25  1  0.36519664  0.48188609  0.03590610  1  0  0.109933  0.130697  0  1.027048  0
H  H26  1  0.86520664  0.01811285  0.96409514  1  0  0.109961  0.130754  0  1.026998  0
H  H27  1  0.63480042  0.98188835  0.46409079  1  0  0.109923  0.130728  0  1.027026  0
H  H28  1  0.51416566  0.35013969  0.55263823  1  0  0.107485  0.116588  0  1.007246  0
H  H29  1  0.98581675  0.64985802  0.05263460  1  0  0.107508  0.116612  0  1.007175  0
H  H30  1  0.48583088  0.85014133  0.94736263  1  0  0.107474  0.116549  0  1.007253  0
H  H31  1  0.01417800  0.14986263  0.44736511  1  0  0.107487  0.116569  0  1.007195  0
H  H32  1  0.48786673  0.42201567  0.68541343  1  0  0.109069  0.09416  0  1.037288  0
H  H33  1  0.01211899  0.57798458  0.18541041  1  0  0.109074  0.094124  0  1.037303  0
H  H34  1  0.51213248  0.92201408  0.81458642  1  0  0.109058  0.094147  0  1.037291  0
H  H35  1  0.98787792  0.07798648  0.31458975  1  0  0.109073  0.094152  0  1.037333  0
H  H36  1  0.99307464  0.34903701  0.43839493  1  0  0.113362  0.103022  0  0.9761  0
H  H37  1  0.50691042  0.65095801  0.93839342  1  0  0.113364  0.10299  0  0.976153  0
H  H38  1  0.00692343  0.84904153  0.06160571  1  0  0.113345  0.103012  0  0.976089  0
H  H39  1  0.49309408  0.15095559  0.56160538  1  0  0.113365  0.103006  0  0.976215  0
H  H40  1  0.70867773  0.33264650  0.43683041  1  0  0.10002  0.082888  0  1.007186  0
H  H41  1  0.79130575  0.66735372  0.93683099  1  0  0.10003  0.082901  0  1.007127  0
H  H42  1  0.29131885  0.83264259  0.06316849  1  0  0.100016  0.082873  0  1.007185  0
H  H43  1  0.20870024  0.16735800  0.56316898  1  0  0.100041  0.082956  0  1.00712  0
H  H44  1  0.64092145  0.58865857  0.47597649  1  0  0.110388  0.083232  0  1.004721  0
H  H45  1  0.85907889  0.41134268  0.97597700  1  0  0.11034  0.083187  0  1.00472  0
H  H46  1  0.35908827  0.08865541  0.02402426  1  0  0.110349  0.083193  0  1.004723  0
H  H47  1  0.14092041  0.91134241  0.52402397  1  0  0.110335  0.083198  0  1.0047  0
H  H48  1  0.54947660  0.74649884  0.38944890  1  0  0.098998  0.029356  0  1.003778  0
H  H49  1  0.95052567  0.25349944  0.88945001  1  0  0.099019  0.029378  0  1.003722  0
H  H50  1  0.45052869  0.24650106  0.11054985  1  0  0.09901  0.029357  0  1.003746  0
H  H51  1  0.04946999  0.75350147  0.61055068  1  0  0.099007  0.02936  0  1.003755  0
H  H52  1  0.03885968  0.71347159  0.41095426  1  0  0.091467  0.144846  0  1.029198  0
H  H53  1  0.46114195  0.28652789  0.91095540  1  0  0.091464  0.144814  0  1.029206  0
H  H54  1  0.96114426  0.21346825  0.08904500  1  0  0.091469  0.144801  0  1.029245  0
H  H55  1  0.53885507  0.78652788  0.58904591  1  0  0.091475  0.144827  0  1.029211  0
H  H56  1  0.85360665  0.76885337  0.48018810  1  0  0.089241  0.130614  0  1.02844  0
H  H57  1  0.64639198  0.23114616  0.98018944  1  0  0.089224  0.130581  0  1.028419  0
H  H58  1  0.14639525  0.26885067  0.01981012  1  0  0.089244  0.130602  0  1.028391  0
H  H59  1  0.35360869  0.73114454  0.51981121  1  0  0.089229  0.130595  0  1.02841  0
H  H60  1  0.90369800  0.84689638  0.39505847  1  0  0.087585  0.127564  0  1.024853  0
H  H61  1  0.59630254  0.15310279  0.89505924  1  0  0.087585  0.127541  0  1.024854  0
H  H62  1  0.09629686  0.34689502  0.10493875  1  0  0.087571  0.127501  0  1.024916  0
H  H63  1  0.40370033  0.65310228  0.60494127  1  0  0.087584  0.127535  0  1.024843  0
C  C64  1  0.96385492  0.52939463  0.64247289  1  0  0.049954  0.103306  0  3.938642  0
C  C65  1  0.53613032  0.47060520  0.14247532  1  0  0.049985  0.103426  0  3.938493  0
C  C66  1  0.03614083  0.02939448  0.85752626  1  0  0.049936  0.103293  0  3.93866  0
C  C67  1  0.46387005  0.97060564  0.35752213  1  0  0.049908  0.103314  0  3.938339  0
C  C68  1  0.99066089  0.49353247  0.56762681  1  0  -0.083687  -0.174555  0  3.902947  0
C  C69  1  0.50932280  0.50646791  0.06762652  1  0  -0.083736  -0.17469  0  3.90275  0
C  C70  1  0.00933617  0.99353336  0.93237260  1  0  -0.083716  -0.174648  0  3.902898  0
C  C71  1  0.49067143  0.00647054  0.43237123  1  0  -0.083705  -0.174684  0  3.902869  0
C  C72  1  0.82732147  0.42854408  0.53286817  1  0  0.007758  0.137561  0  3.9484  0
C  C73  1  0.67265977  0.57145442  0.03286811  1  0  0.007759  0.137631  0  3.948183  0
C  C74  1  0.17267608  0.92854476  0.96713283  1  0  0.007761  0.137648  0  3.948262  0
C  C75  1  0.32733719  0.07145756  0.46713033  1  0  0.007762  0.137636  0  3.948317  0
C  C76  1  0.64605247  0.40083793  0.57655070  1  0  -0.083698  -0.182895  0  3.941722  0
C  C77  1  0.85393263  0.59916075  0.07654735  1  0  -0.083583  -0.182742  0  3.941327  0
C  C78  1  0.35394368  0.90083802  0.92345025  1  0  -0.08362  -0.182762  0  3.941565  0
C  C79  1  0.14607056  0.09916584  0.42345227  1  0  -0.083602  -0.182712  0  3.941463  0
C  C80  1  0.62896929  0.44131666  0.65076707  1  0  0.050929  0.109803  0  3.925659  0
C  C81  1  0.87101899  0.55868320  0.15076644  1  0  0.050819  0.109714  0  3.925609  0
C  C82  1  0.37102817  0.94131467  0.84923339  1  0  0.050886  0.109707  0  3.925612  0
C  C83  1  0.12897645  0.05868714  0.34923255  1  0  0.050838  0.109686  0  3.925659  0
C  C84  1  0.83990687  0.39339369  0.45025848  1  0  -0.069438  -0.097625  0  3.90402  0
C  C85  1  0.66007954  0.60660398  0.95025704  1  0  -0.069485  -0.097582  0  3.90403  0
C  C86  1  0.16009247  0.89339435  0.04974167  1  0  -0.069415  -0.097564  0  3.903981  0
C  C87  1  0.33992208  0.10660618  0.54974169  1  0  -0.069475  -0.097674  0  3.904117  0
C  C88  1  0.65631164  0.57593312  0.41420197  1  0  -0.010653  -0.091899  0  3.842191  0
C  C89  1  0.84369814  0.42406960  0.91420197  1  0  -0.010523  -0.09167  0  3.842014  0
C  C90  1  0.34370301  0.07593113  0.08579989  1  0  -0.010537  -0.091635  0  3.842087  0
C  C91  1  0.15630428  0.92406956  0.58579902  1  0  -0.010521  -0.091648  0  3.842044  0
C  C92  1  0.69981990  0.69731665  0.38029363  1  0  -0.00083  0.24322  0  3.85728  0
C  C93  1  0.80018258  0.30268246  0.88029468  1  0  -0.000868  0.24314  0  3.857458  0
C  C94  1  0.30018900  0.19731750  0.11970674  1  0  -0.000884  0.243124  0  3.857459  0
C  C95  1  0.19981593  0.80268333  0.61970667  1  0  -0.00089  0.243141  0  3.85739  0
C  C96  1  0.88577433  0.75956109  0.41907911  1  0  -0.256222  -0.441138  0  3.882298  0
C  C97  1  0.61422728  0.24043819  0.91907999  1  0  -0.256202  -0.441035  0  3.882266  0
C  C98  1  0.11422764  0.25956044  0.08091853  1  0  -0.256227  -0.441005  0  3.882268  0
C  C99  1  0.38577492  0.74043849  0.58092011  1  0  -0.256222  -0.441064  0  3.882272  0
C  C100  1  0.43754361  0.53059801  0.38607902  1  0  0.204046  0.570317  0  4.186069  0
C  C101  1  0.06246180  0.46940222  0.88607760  1  0  0.204025  0.570275  0  4.186273  0
C  C102  1  0.56246817  0.03059566  0.11392219  1  0  0.204143  0.570318  0  4.186189  0
C  C103  1  0.93753866  0.96940492  0.61392290  1  0  0.204042  0.570303  0  4.186193  0
N  N104  1  0.78445601  0.50630939  0.68286181  1  0  -0.330411  -0.229221  0  3.574488  0
N  N105  1  0.71552993  0.49369061  0.18286037  1  0  -0.330408  -0.229335  0  3.574696  0
N  N106  1  0.21553992  0.00630867  0.81713730  1  0  -0.330389  -0.229208  0  3.574503  0
N  N107  1  0.28446381  0.99369300  0.31713712  1  0  -0.330375  -0.229273  0  3.574494  0
N  N108  1  0.82950882  0.49270260  0.39609470  1  0  -0.471742  -0.322882  0  3.451724  0
N  N109  1  0.67049170  0.50729918  0.89609419  1  0  -0.471741  -0.323076  0  3.45186  0
N  N110  1  0.17050267  0.99270000  0.10390620  1  0  -0.471726  -0.323006  0  3.451878  0
N  N111  1  0.32950906  0.00729990  0.60390493  1  0  -0.471728  -0.32308  0  3.451902  0
Cl  Cl112  1  0.82169741  0.77543692  0.78564863  1  0  -0.293002  -0.500014  0  1.194109  0
Cl  Cl113  1  0.67829429  0.22456439  0.28564909  1  0  -0.293007  -0.500002  0  1.194077  0
Cl  Cl114  1  0.17829808  0.27543844  0.71434868  1  0  -0.293021  -0.500042  0  1.194094  0
Cl  Cl115  1  0.32169344  0.72456193  0.21435247  1  0  -0.293021  -0.500032  0  1.194076  0
O  O116  1  0.74375799  0.69065554  0.30013395  1  0  -0.390907  -0.501547  0  2.314097  0
O  O117  1  0.75624306  0.30934149  0.80013570  1  0  -0.390884  -0.501557  0  2.314306  0
O  O118  1  0.25624290  0.19066550  0.19986470  1  0  -0.390842  -0.501519  0  2.314331  0
O  O119  1  0.24375701  0.80933827  0.69986566  1  0  -0.390851  -0.501547  0  2.314226  0
O  O120  1  0.44210364  0.46396475  0.32760890  1  0  -0.313596  -0.552486  0  2.369943  0
O  O121  1  0.05789502  0.53603437  0.82760875  1  0  -0.313609  -0.552517  0  2.370128  0
O  O122  1  0.55790484  0.96395986  0.17239081  1  0  -0.313621  -0.55255  0  2.370025  0
O  O123  1  0.94210229  0.03603750  0.67239155  1  0  -0.313617  -0.552534  0  2.37005  0
O  O124  1  0.27095298  0.56312589  0.42044104  1  0  -0.317286  -0.550499  0  2.207191  0
O  O125  1  0.22905005  0.43687969  0.92044081  1  0  -0.317278  -0.550484  0  2.207276  0
O  O126  1  0.72906177  0.06311869  0.07955796  1  0  -0.317411  -0.550579  0  2.207311  0
O  O127  1  0.77095228  0.93688260  0.57955850  1  0  -0.317302  -0.550537  0  2.207238  0
O  O128  1  0.40899943  0.61053381  0.76282237  1  0  -0.589485  -0.77096  0  2.187501  0
O  O129  1  0.09099745  0.38946590  0.26282450  1  0  -0.589539  -0.770997  0  2.187451  0
O  O130  1  0.59099570  0.11053539  0.73717636  1  0  -0.589524  -0.770998  0  2.187447  0
O  O131  1  0.90900353  0.88946832  0.23718475  1  0  -0.58953  -0.771083  0  2.18727  0
