# generated using pymatgen
data_Al2H30C38N3O19F7
_symmetry_space_group_name_H-M   'P 1'
_cell_length_a   6.61062007
_cell_length_b   22.66036373
_cell_length_c   25.43426558
_cell_angle_alpha   90.57592605
_cell_angle_beta   89.27609789
_cell_angle_gamma   90.17691099
_symmetry_Int_Tables_number   1
_chemical_formula_structural   Al2H30C38N3O19F7
_chemical_formula_sum   'Al4 H60 C76 N6 O38 F14'
_cell_volume   3809.51569678
_cell_formula_units_Z   2
loop_
 _symmetry_equiv_pos_site_id
 _symmetry_equiv_pos_as_xyz
  1  'x, y, z'
loop_
 _atom_site_type_symbol
 _atom_site_label
 _atom_site_symmetry_multiplicity
 _atom_site_fract_x
 _atom_site_fract_y
 _atom_site_fract_z
 _atom_site_occupancy
 _atom_site_pbe_bader_charge
 _atom_site_pbe_bader_spin_density
 _atom_site_pbe_cm5_charge
 _atom_site_pbe_ddec_charge
 _atom_site_pbe_ddec_spin_density
 _atom_site_pbe_ddec_sum_bond_order
 _atom_site_pbe_magmom
Al  Al0  1  0.28285509  0.25242383  0.74810361  1  2.502658  0  0.400423  1.638377  0  2.57891  0
Al  Al1  1  0.71390870  0.74932667  0.25170751  1  2.499201  0  0.399576  1.635997  0  2.584736  0
Al  Al2  1  0.78206814  0.25329958  0.74705802  1  2.49799  0  0.396712  1.639254  0  2.582363  0
Al  Al3  1  0.21378792  0.74626979  0.25261141  1  2.498845  0  0.398477  1.638274  0  2.581599  0
H  H4  1  0.68753747  0.51139540  0.08315508  1  0.125981  0  0.117091  0.140896  0  0.999692  0
H  H5  1  0.31241073  0.49316780  0.91239094  1  0.131784  0  0.118458  0.142401  0  0.996182  0
H  H6  1  0.00562351  0.58045397  0.19939574  1  0.048938  0  0.105642  0.112598  0  0.977705  0
H  H7  1  0.93310162  0.64250278  0.16153778  1  0.103435  0  0.102001  0.115286  0  1.018351  0
H  H8  1  0.99865758  0.57362416  0.12901689  1  0.063615  0  0.086455  0.080846  0  1.013265  0
H  H9  1  0.05970910  0.36515485  0.83159382  1  0.086275  0  0.100701  0.114031  0  1.020712  0
H  H10  1  0.99934170  0.43166439  0.79779132  1  0.065099  0  0.103529  0.108824  0  0.982597  0
H  H11  1  0.01155670  0.43266316  0.86812984  1  0.036612  0  0.087794  0.08177  0  1.011533  0
H  H12  1  0.78406134  0.53226069  0.26401010  1  0.063131  0  0.105438  0.115049  0  0.997038  0
H  H13  1  0.52322615  0.54680857  0.27725255  1  0.052063  0  0.094409  0.094749  0  0.987641  0
H  H14  1  0.65681425  0.49413898  0.31673253  1  0.05112  0  0.093032  0.089797  0  1.016502  0
H  H15  1  0.99726548  0.42382258  0.70281862  1  0.055788  0  0.106071  0.109987  0  0.98797  0
H  H16  1  0.04618624  0.37054246  0.65110649  1  0.102463  0  0.102118  0.106655  0  1.015101  0
H  H17  1  0.03058472  0.44775647  0.63627144  1  0.08977  0  0.098013  0.102162  0  1.00379  0
H  H18  1  0.02028805  0.47500024  0.42781578  1  0.085337  0  0.101926  0.11  0  0.98104  0
H  H19  1  0.93336443  0.53001663  0.47354323  1  0.098038  0  0.092616  0.089813  0  1.043613  0
H  H20  1  0.01791440  0.55114366  0.40847568  1  0.026368  0  0.092946  0.096803  0  1.007982  0
H  H21  1  0.54637544  0.55974526  0.64173124  1  0.050656  0  0.09427  0.091953  0  0.988433  0
H  H22  1  0.38391723  0.51683177  0.68416677  1  0.084632  0  0.102786  0.108785  0  1.021334  0
H  H23  1  0.28726293  0.58088248  0.65227188  1  0.052715  0  0.10425  0.108083  0  0.988415  0
H  H24  1  0.61628055  0.41401656  0.44087371  1  0.094842  0  0.098411  0.102711  0  1.035828  0
H  H25  1  0.60672084  0.33636736  0.45647201  1  0.013994  0  0.087495  0.074485  0  1.019529  0
H  H26  1  0.82784021  0.36783096  0.42581875  1  0.036044  0  0.105649  0.111355  0  0.97198  0
H  H27  1  0.40248022  0.60592950  0.55926073  1  0.089975  0  0.09871  0.097145  0  1.044574  0
H  H28  1  0.15404928  0.63130167  0.57594868  1  0.056838  0  0.106731  0.114281  0  0.972838  0
H  H29  1  0.33522149  0.68172690  0.54781725  1  0.028689  0  0.086219  0.072991  0  1.023616  0
H  H30  1  0.94106484  0.29314084  0.51518876  1  0.056426  0  0.099167  0.101871  0  1.009366  0
H  H31  1  0.68583961  0.26506140  0.51757164  1  0.039071  0  0.095896  0.091047  0  1.006003  0
H  H32  1  0.88060452  0.22901102  0.55339949  1  0.049037  0  0.103318  0.108785  0  1.009922  0
H  H33  1  0.08910436  0.77219636  0.43968927  1  0.105717  0  0.102029  0.106736  0  1.020778  0
H  H34  1  0.27493464  0.73991244  0.48100856  1  0.048466  0  0.094579  0.087732  0  1.013334  0
H  H35  1  0.02425203  0.70862963  0.47803514  1  0.074604  0  0.099575  0.10311  0  1.002325  0
H  H36  1  0.53430102  0.96653819  0.12911921  1  0.07134  0  0.095959  0.099079  0  1.006668  0
H  H37  1  0.32884903  0.01454914  0.14765296  1  0.07407  0  0.100444  0.100959  0  0.985106  0
H  H38  1  0.50322941  0.03552415  0.09631200  1  0.08019  0  0.110187  0.120654  0  0.971883  0
H  H39  1  0.66320002  0.20540482  0.98758231  1  0.083512  0  0.096938  0.101982  0  1.01213  0
H  H40  1  0.80737447  0.17132975  0.03869471  1  0.06114  0  0.095386  0.095348  0  0.994014  0
H  H41  1  0.53789365  0.16122908  0.03633150  1  0.077001  0  0.109076  0.118258  0  0.97029  0
H  H42  1  0.99876174  0.93333199  0.61790149  1  0.043689  0  0.094565  0.09106  0  0.990619  0
H  H43  1  0.73513222  0.91817367  0.62988660  1  0.060436  0  0.107204  0.113725  0  0.979354  0
H  H44  1  0.86544557  0.97070177  0.67061401  1  0.081916  0  0.095616  0.095533  0  1.004499  0
H  H45  1  0.25707363  0.08474296  0.37049258  1  0.048159  0  0.105734  0.111621  0  0.981115  0
H  H46  1  0.99544544  0.06854486  0.38423063  1  0.050838  0  0.09425  0.091014  0  0.991376  0
H  H47  1  0.12352397  0.03284291  0.32975496  1  0.035704  0  0.09242  0.090142  0  1.00817  0
H  H48  1  0.88149721  0.84471712  0.54283754  1  0.023406  0  0.092037  0.086587  0  0.99714  0
H  H49  1  0.72438675  0.79854607  0.50199423  1  0.074868  0  0.093656  0.089671  0  1.034761  0
H  H50  1  0.61418960  0.84051745  0.55545938  1  0.045846  0  0.104164  0.10745  0  0.981129  0
H  H51  1  0.27459698  0.20343966  0.49804278  1  0.083771  0  0.093314  0.088744  0  1.036411  0
H  H52  1  0.12018581  0.15709404  0.45667633  1  0.023809  0  0.091143  0.084869  0  0.999865  0
H  H53  1  0.38791931  0.16182755  0.44479187  1  0.039957  0  0.103457  0.106492  0  0.980851  0
H  H54  1  0.50062790  0.84003217  0.35290625  1  0.112057  0  0.100151  0.113502  0  1.017017  0
H  H55  1  0.42641338  0.85330053  0.42067767  1  0.034394  0  0.089665  0.088198  0  1.018618  0
H  H56  1  0.41656896  0.78018293  0.39236625  1  0.082495  0  0.102718  0.112767  0  1.029703  0
H  H57  1  0.49372697  0.16034263  0.64798702  1  0.091134  0  0.099539  0.111391  0  1.018508  0
H  H58  1  0.58300028  0.22051623  0.60966940  1  0.085878  0  0.102232  0.111682  0  1.031804  0
H  H59  1  0.57245032  0.14781385  0.58050275  1  0.035181  0  0.089393  0.087141  0  1.019931  0
H  H60  1  0.53370823  0.17893758  0.76765592  1  0.636792  0  0.35835  0.441754  0  0.838299  0
H  H61  1  0.45760130  0.82022617  0.22960574  1  0.641481  0  0.354069  0.435583  0  0.848342  0
H  H62  1  0.03666808  0.32501071  0.72555776  1  0.628747  0  0.346979  0.418847  0  0.886249  0
H  H63  1  0.95409043  0.67852022  0.27924706  1  0.628741  0  0.355933  0.436227  0  0.849488  0
C  C64  1  0.53612231  0.32486208  0.81882192  1  1.635637  0  0.272415  0.675056  0  4.08527  0
C  C65  1  0.46504590  0.67724343  0.17976128  1  1.624624  0  0.272342  0.672166  0  4.092847  0
C  C66  1  0.53078780  0.32065544  0.67487015  1  1.612612  0  0.27992  0.690434  0  4.060429  0
C  C67  1  0.46650578  0.68058170  0.32502445  1  1.603367  0  0.278429  0.688022  0  4.070376  0
C  C68  1  0.02845148  0.17913454  0.67869759  1  1.61652  0  0.274728  0.683659  0  4.078929  0
C  C69  1  0.96745623  0.82247012  0.32083039  1  1.641716  0  0.273123  0.68168  0  4.08197  0
C  C70  1  0.03096790  0.18539817  0.82024030  1  1.641556  0  0.276565  0.687699  0  4.077368  0
C  C71  1  0.96729458  0.81501042  0.17858113  1  1.638582  0  0.274967  0.685108  0  4.080004  0
C  C72  1  0.02110636  0.14428445  0.86583871  1  0.086108  0  -0.022057  -0.224311  0  3.997013  0
C  C73  1  0.97638135  0.85587771  0.13269614  1  0.071725  0  -0.023485  -0.225521  0  3.996208  0
C  C74  1  0.86249123  0.14704015  0.90290210  1  0.497047  0  0.101175  0.179408  0  4.040357  0
C  C75  1  0.13430372  0.89701811  0.12637928  1  0.479979  0  0.094133  0.16427  0  4.02318  0
C  C76  1  0.85435478  0.11099416  0.94719579  1  0.581399  0  0.07805  0.11522  0  4.073854  0
C  C77  1  0.14874971  0.93547140  0.08352874  1  0.648474  0  0.085208  0.121699  0  4.074045  0
C  C78  1  0.00654614  0.06818969  0.95371968  1  0.102547  0  -0.023529  -0.138554  0  4.094444  0
C  C79  1  0.99595851  0.93208427  0.04500012  1  0.090242  0  -0.025527  -0.144541  0  4.089315  0
C  C80  1  0.16140399  0.06344628  0.91576826  1  0.530054  0  0.095435  0.147297  0  4.08103  0
C  C81  1  0.83985472  0.89079265  0.05066328  1  0.515413  0  0.093073  0.145413  0  4.093304  0
C  C82  1  0.17027017  0.10147752  0.87315909  1  0.562123  0  0.099672  0.174942  0  4.071649  0
C  C83  1  0.82836374  0.85344033  0.09362350  1  0.569257  0  0.09505  0.1651  0  4.087397  0
C  C84  1  0.00054130  0.02980416  0.99948226  1  0.477863  0  0.082472  0.136177  0  4.06251  0
C  C85  1  0.99966025  0.97058125  0.99919305  1  0.672252  0  0.086182  0.144824  0  4.060003  0
C  C86  1  0.96194881  0.86569260  0.36575040  1  0.02237  0  -0.026731  -0.229219  0  4.009203  0
C  C87  1  0.03621490  0.13602183  0.63378253  1  0.058543  0  -0.026454  -0.22741  0  4.009798  0
C  C88  1  0.08721105  0.91530864  0.36636693  1  0.469982  0  0.091842  0.168405  0  4.07539  0
C  C89  1  0.91080465  0.08646516  0.63297583  1  0.470557  0  0.092363  0.167415  0  4.075944  0
C  C90  1  0.08559951  0.95689417  0.40738187  1  0.636948  0  0.074624  0.070141  0  4.070933  0
C  C91  1  0.91321360  0.04489505  0.59194704  1  0.618274  0  0.075448  0.070372  0  4.073955  0
C  C92  1  0.95115680  0.94758025  0.45040247  1  0.363785  0  0.082523  0.000849  0  4.055021  0
C  C93  1  0.04836090  0.05442039  0.54908042  1  0.349926  0  0.083194  0.002142  0  4.056707  0
C  C94  1  0.82294198  0.89753126  0.45066728  1  0.542409  0  0.078256  0.081247  0  4.039056  0
C  C95  1  0.17661312  0.10446295  0.54905410  1  0.560963  0  0.07808  0.081797  0  4.041368  0
C  C96  1  0.82647708  0.85747100  0.40823545  1  0.568324  0  0.07834  0.14031  0  4.079246  0
C  C97  1  0.17224396  0.14444687  0.59151038  1  0.534585  0  0.077423  0.140136  0  4.083208  0
C  C98  1  0.53272919  0.36580878  0.86551494  1  0.021556  0  -0.014427  -0.21368  0  3.907577  0
C  C99  1  0.47007297  0.63810622  0.13187749  1  0.066419  0  -0.012659  -0.212286  0  3.913995  0
C  C100  1  0.40465445  0.41603002  0.86809763  1  0.584761  0  0.091467  0.260921  0  4.048125  0
C  C101  1  0.59827670  0.58802345  0.12836733  1  0.529815  0  0.090653  0.260746  0  4.050629  0
C  C102  1  0.40790995  0.45405370  0.91125760  1  -0.008825  0  -0.092681  -0.259107  0  3.947816  0
C  C103  1  0.59179718  0.55041280  0.08506517  1  -0.004265  0  -0.093491  -0.258418  0  3.954789  0
C  C104  1  0.53619660  0.44360570  0.95383089  1  0.410943  0  0.083359  0.099296  0  4.100991  0
C  C105  1  0.46053421  0.56133940  0.04319055  1  0.420327  0  0.082256  0.094296  0  4.097712  0
C  C106  1  0.66193142  0.39376178  0.95176853  1  0.498363  0  0.095345  0.101586  0  4.057676  0
C  C107  1  0.33621334  0.61150884  0.04586120  1  0.561418  0  0.10092  0.109491  0  4.047112  0
C  C108  1  0.66063525  0.35618317  0.90804273  1  0.562901  0  0.099848  0.174531  0  4.083878  0
C  C109  1  0.34150390  0.64887214  0.08978456  1  0.493309  0  0.102288  0.176788  0  4.078242  0
C  C110  1  0.53708415  0.36347551  0.63044553  1  -0.008958  0  -0.024339  -0.217607  0  3.973536  0
C  C111  1  0.46824655  0.64014702  0.37107720  1  0.013797  0  -0.022351  -0.218156  0  3.963216  0
C  C112  1  0.41537316  0.41386433  0.63375762  1  0.577923  0  0.074066  0.134826  0  4.067904  0
C  C113  1  0.60448961  0.59267460  0.37168386  1  0.547156  0  0.078776  0.143339  0  4.061417  0
C  C114  1  0.42673513  0.45792799  0.59516620  1  0.536303  0  0.073186  0.076181  0  4.03498  0
C  C115  1  0.61427367  0.55502545  0.41519380  1  0.540272  0  0.076222  0.085685  0  4.031918  0
C  C116  1  0.55105757  0.44848740  0.55005335  1  0.3497  0  0.078107  -0.006356  0  4.058233  0
C  C117  1  0.47937779  0.56404657  0.45844766  1  0.408099  0  0.074834  -0.010881  0  4.049206  0
C  C118  1  0.66864692  0.39614428  0.54585422  1  0.501005  0  0.071732  0.071857  0  4.037441  0
C  C119  1  0.34228409  0.61223911  0.45769134  1  0.537908  0  0.072889  0.069621  0  4.044739  0
C  C120  1  0.66639327  0.35437631  0.58638972  1  0.584246  0  0.080617  0.135684  0  4.068369  0
C  C121  1  0.33643902  0.65040292  0.41448357  1  0.557162  0  0.083466  0.139937  0  4.068634  0
C  C122  1  0.92698157  0.59426229  0.16392556  1  0.3437  0  -0.141891  -0.165533  0  3.886933  0
C  C123  1  0.07672331  0.41335738  0.83178097  1  0.377956  0  -0.140813  -0.162587  0  3.883604  0
C  C124  1  0.66905952  0.53586754  0.29517793  1  0.393316  0  -0.139412  -0.165976  0  3.902091  0
C  C125  1  0.07850359  0.41547924  0.66561500  1  0.307669  0  -0.138425  -0.177109  0  3.871568  0
C  C126  1  0.94055146  0.51713570  0.43187724  1  0.357266  0  -0.143216  -0.170534  0  3.891913  0
C  C127  1  0.39100541  0.54344661  0.64838416  1  0.355455  0  -0.140584  -0.181943  0  3.9008  0
C  C128  1  0.70364212  0.37594030  0.45393583  1  0.394511  0  -0.141148  -0.173094  0  3.913581  0
C  C129  1  0.28050190  0.63565956  0.54797487  1  0.368748  0  -0.139795  -0.17496  0  3.926544  0
C  C130  1  0.82588902  0.27179507  0.53989151  1  0.416386  0  -0.137365  -0.170197  0  3.894752  0
C  C131  1  0.14474655  0.73063465  0.45559902  1  0.336055  0  -0.138258  -0.169617  0  3.898219  0
C  C132  1  0.42389082  0.99847014  0.11480885  1  0.364094  0  -0.133433  -0.16819  0  3.894861  0
C  C133  1  0.67634045  0.16649608  0.01270843  1  0.342151  0  -0.136501  -0.176787  0  3.901164  0
C  C134  1  0.85258328  0.95236541  0.63058245  1  0.362785  0  -0.136471  -0.170828  0  3.908806  0
C  C135  1  0.14074333  0.05020819  0.37003335  1  0.413596  0  -0.137931  -0.171454  0  3.918221  0
C  C136  1  0.73166567  0.84009185  0.52465126  1  0.401699  0  -0.139844  -0.173903  0  3.924821  0
C  C137  1  0.26919791  0.16192835  0.47528457  1  0.397547  0  -0.140137  -0.173095  0  3.930025  0
C  C138  1  0.49811384  0.82214472  0.39276804  1  0.333477  0  -0.14849  -0.174691  0  3.844763  0
C  C139  1  0.49986467  0.17884207  0.60837286  1  0.353022  0  -0.148912  -0.174152  0  3.848073  0
N  N140  1  0.91996899  0.99002503  0.49045210  1  -0.442942  0  -0.126446  -0.063674  0  3.261486  0
N  N141  1  0.07996728  0.01210422  0.50896506  1  -0.396003  0  -0.127334  -0.065712  0  3.262499  0
N  N142  1  0.55049910  0.47923546  0.99913585  1  -0.487242  0  -0.147728  -0.11018  0  3.260929  0
N  N143  1  0.44427494  0.52580319  0.99784472  1  -0.425671  0  -0.145161  -0.103774  0  3.250835  0
N  N144  1  0.59230769  0.49136357  0.51166401  1  -0.43444  0  -0.134053  -0.074756  0  3.2902  0
N  N145  1  0.44262795  0.52261161  0.49835719  1  -0.450276  0  -0.137085  -0.078656  0  3.282779  0
O  O146  1  0.69826950  0.31001108  0.69690938  1  -1.257189  0  -0.229026  -0.596726  0  2.361262  0
O  O147  1  0.29726743  0.69061303  0.30365877  1  -1.25215  0  -0.229958  -0.594684  0  2.347465  0
O  O148  1  0.36788301  0.31237908  0.79800969  1  -1.239504  0  -0.222975  -0.572764  0  2.360783  0
O  O149  1  0.63349596  0.69114658  0.19971127  1  -1.238496  0  -0.222236  -0.570627  0  2.364225  0
O  O150  1  0.20355540  0.20602902  0.80815480  1  -1.244802  0  -0.226881  -0.576403  0  2.332937  0
O  O151  1  0.79289217  0.79852823  0.19382952  1  -1.239375  0  -0.228745  -0.581795  0  2.35453  0
O  O152  1  0.36065417  0.29906827  0.68835628  1  -1.251635  0  -0.224309  -0.578144  0  2.337508  0
O  O153  1  0.63509880  0.70208378  0.31024082  1  -1.253649  0  -0.224982  -0.581229  0  2.35136  0
O  O154  1  0.19366960  0.18974420  0.70199229  1  -1.246773  0  -0.228851  -0.585579  0  2.352138  0
O  O155  1  0.79984386  0.81118895  0.29902751  1  -1.251092  0  -0.22911  -0.584363  0  2.356829  0
O  O156  1  0.70911002  0.30649719  0.80390861  1  -1.23904  0  -0.231008  -0.58543  0  2.356617  0
O  O157  1  0.29071040  0.69220320  0.19654901  1  -1.236372  0  -0.229415  -0.583299  0  2.354985  0
O  O158  1  0.53209708  0.21638116  0.74952266  1  -1.434212  0  -0.445556  -0.991714  0  2.207563  0
O  O159  1  0.46230364  0.78427824  0.24993937  1  -1.439686  0  -0.447171  -0.987982  0  2.203635  0
O  O160  1  0.85663103  0.20088784  0.69007321  1  -1.237998  0  -0.226046  -0.57811  0  2.355135  0
O  O161  1  0.13900271  0.80137422  0.30809912  1  -1.240174  0  -0.226652  -0.579063  0  2.347509  0
O  O162  1  0.86584323  0.19609836  0.79744754  1  -1.245857  0  -0.226918  -0.584684  0  2.349932  0
O  O163  1  0.13345825  0.80013370  0.19874525  1  -1.244038  0  -0.227176  -0.584952  0  2.372978  0
O  O164  1  0.03416826  0.28919901  0.74611007  1  -1.433097  0  -0.447823  -0.984589  0  2.215363  0
O  O165  1  0.96116441  0.71116479  0.25471004  1  -1.426926  0  -0.445509  -0.984935  0  2.185855  0
O  O166  1  0.72031680  0.57408538  0.16977834  1  -1.081587  0  -0.211817  -0.209559  0  2.534142  0
O  O167  1  0.28683907  0.42977386  0.82589963  1  -1.07712  0  -0.213306  -0.198554  0  2.508064  0
O  O168  1  0.73348343  0.58312065  0.32956264  1  -1.079444  0  -0.204479  -0.176273  0  2.53368  0
O  O169  1  0.29089481  0.42169596  0.67712700  1  -1.079294  0  -0.20396  -0.176725  0  2.547833  0
O  O170  1  0.73960689  0.50710806  0.41172469  1  -1.089821  0  -0.201593  -0.184176  0  2.619589  0
O  O171  1  0.32516537  0.51015659  0.60284244  1  -1.055292  0  -0.195077  -0.165163  0  2.582336  0
O  O172  1  0.79787079  0.38772374  0.50372265  1  -1.055681  0  -0.199504  -0.165654  0  2.569197  0
O  O173  1  0.20208866  0.61962797  0.49749906  1  -1.066244  0  -0.193565  -0.159942  0  2.605364  0
O  O174  1  0.78550757  0.30527532  0.58722508  1  -1.069144  0  -0.184321  -0.145218  0  2.596934  0
O  O175  1  0.20569964  0.69638022  0.41027213  1  -1.077252  0  -0.181436  -0.136673  0  2.598219  0
O  O176  1  0.30235818  0.97357732  0.07351402  1  -1.072029  0  -0.181307  -0.141804  0  2.618522  0
O  O177  1  0.69498179  0.11283354  0.98191153  1  -1.053185  0  -0.20101  -0.167851  0  2.55377  0
O  O178  1  0.78973480  0.99642936  0.59386644  1  -1.046618  0  -0.194058  -0.15307  0  2.567828  0
O  O179  1  0.20946368  0.00535940  0.40513311  1  -1.049357  0  -0.195361  -0.153127  0  2.565348  0
O  O180  1  0.69091842  0.89004340  0.49213269  1  -1.071415  0  -0.197223  -0.154146  0  2.553058  0
O  O181  1  0.30967599  0.11200446  0.50780292  1  -1.07262  0  -0.197468  -0.155173  0  2.55273  0
O  O182  1  0.70245687  0.80883286  0.40906798  1  -1.080966  0  -0.208756  -0.188655  0  2.538584  0
O  O183  1  0.29717609  0.19290667  0.59119401  1  -1.077171  0  -0.209935  -0.189235  0  2.532889  0
F  F184  1  0.70976218  0.18579407  0.89652221  1  -0.621726  0  -0.076179  -0.099599  0  1.415128  0
F  F185  1  0.28139584  0.90010361  0.16327035  1  -0.634115  0  -0.081869  -0.110082  0  1.404087  0
F  F186  1  0.78783929  0.38137062  0.99155226  1  -0.62009  0  -0.097389  -0.116356  0  1.370964  0
F  F187  1  0.20809838  0.62418218  0.00677552  1  -0.616594  0  -0.092037  -0.110073  0  1.370663  0
F  F188  1  0.78554998  0.30909825  0.90908911  1  -0.620778  0  -0.086085  -0.109408  0  1.405779  0
F  F189  1  0.21943627  0.69660096  0.08981820  1  -0.618164  0  -0.084659  -0.10312  0  1.369302  0
F  F190  1  0.67340673  0.81461737  0.09559199  1  -0.617086  0  -0.083927  -0.097393  0  1.378941  0
F  F191  1  0.32407478  0.09486429  0.83809916  1  -0.613395  0  -0.086064  -0.104765  0  1.360936  0
F  F192  1  0.99392014  0.94220896  0.95167129  1  -0.60553  0  -0.097533  -0.118098  0  1.345344  0
F  F193  1  0.99144511  0.05849061  0.04716546  1  -0.618535  0  -0.102932  -0.13129  0  1.354722  0
F  F194  1  0.30816242  0.02268541  0.92052029  1  -0.611351  0  -0.086695  -0.102771  0  1.376227  0
F  F195  1  0.69259330  0.88783590  0.01438711  1  -0.600992  0  -0.087571  -0.101641  0  1.361694  0
F  F196  1  0.78255747  0.07668484  0.67437422  1  -0.62777  0  -0.091312  -0.117951  0  1.362424  0
F  F197  1  0.21412402  0.92533786  0.32470261  1  -0.630294  0  -0.09521  -0.122625  0  1.361522  0
