# generated using pymatgen
data_BiH11C9S2NCl
_symmetry_space_group_name_H-M   'P 1'
_cell_length_a   8.27125482
_cell_length_b   8.54639515
_cell_length_c   17.33705722
_cell_angle_alpha   102.49889548
_cell_angle_beta   90.00030648
_cell_angle_gamma   90.00009817
_symmetry_Int_Tables_number   1
_chemical_formula_structural   BiH11C9S2NCl
_chemical_formula_sum   'Bi4 H44 C36 S8 N4 Cl4'
_cell_volume   1196.50115151
_cell_formula_units_Z   4
loop_
 _symmetry_equiv_pos_site_id
 _symmetry_equiv_pos_as_xyz
  1  'x, y, z'
loop_
 _atom_site_type_symbol
 _atom_site_label
 _atom_site_symmetry_multiplicity
 _atom_site_fract_x
 _atom_site_fract_y
 _atom_site_fract_z
 _atom_site_occupancy
 _atom_site_hle17_bader_spin_density
 _atom_site_hle17_ddec_charge
 _atom_site_hle17_ddec_spin_density
 _atom_site_hle17_ddec_sum_bond_order
 _atom_site_hle17_magmom
 _atom_site_hse06_10hf_bader_spin_density
 _atom_site_hse06_10hf_ddec_charge
 _atom_site_hse06_10hf_ddec_spin_density
 _atom_site_hse06_10hf_ddec_sum_bond_order
 _atom_site_hse06_10hf_magmom
 _atom_site_hse06_bader_spin_density
 _atom_site_hse06_ddec_charge
 _atom_site_hse06_ddec_spin_density
 _atom_site_hse06_ddec_sum_bond_order
 _atom_site_hse06_magmom
 _atom_site_pbe_bader_spin_density
 _atom_site_pbe_cm5_charge
 _atom_site_pbe_ddec_charge
 _atom_site_pbe_ddec_spin_density
 _atom_site_pbe_ddec_sum_bond_order
 _atom_site_pbe_magmom
Bi  Bi0  1  0.67173351  0.24499730  0.80510835  1  0  0.999573  0  2.422286  0  0  0.829258  0  2.888545  0  0  0.867872  0  2.875301  0  0  0.508437  0.802261  0  2.897578  0
Bi  Bi1  1  0.17172413  0.25501068  0.69488784  1  0  0.999544  0  2.422341  0  0  0.82922  0  2.888616  0  0  0.867832  0  2.875366  0  0  0.508423  0.802223  0  2.89765  0
Bi  Bi2  1  0.32826876  0.75501458  0.19489154  1  0  0.999526  0  2.422407  0  0  0.829199  0  2.888696  0  0  0.867808  0  2.875451  0  0  0.508436  0.802203  0  2.897728  0
Bi  Bi3  1  0.82826243  0.74498681  0.30511109  1  0  0.999493  0  2.422455  0  0  0.829165  0  2.888748  0  0  0.867774  0  2.875502  0  0  0.508406  0.802167  0  2.897783  0
H  H4  1  0.10217736  0.17260337  0.08007237  1  0  0.09545  0  0.954564  0  0  0.11468  0  1.021861  0  0  0.115307  0  1.021948  0  0  0.095329  0.114097  0  1.021908  0
H  H5  1  0.60218092  0.32739927  0.41992892  1  0  0.095417  0  0.95454  0  0  0.114648  0  1.021874  0  0  0.115275  0  1.021962  0  0  0.095323  0.114075  0  1.02191  0
H  H6  1  0.89782612  0.82739651  0.91992912  1  0  0.095472  0  0.954564  0  0  0.114672  0  1.021904  0  0  0.115299  0  1.02199  0  0  0.095327  0.114104  0  1.021937  0
H  H7  1  0.39781894  0.67260062  0.58007199  1  0  0.095419  0  0.954539  0  0  0.114663  0  1.021847  0  0  0.11529  0  1.021933  0  0  0.095317  0.114079  0  1.021895  0
H  H8  1  0.96148151  0.31006254  0.13648150  1  0  0.115214  0  0.942207  0  0  0.134437  0  1.004895  0  0  0.135518  0  1.005166  0  0  0.100763  0.133527  0  1.004871  0
H  H9  1  0.46148115  0.18993635  0.36351973  1  0  0.115166  0  0.942247  0  0  0.134415  0  1.004929  0  0  0.135495  0  1.005202  0  0  0.100774  0.133505  0  1.004905  0
H  H10  1  0.03852076  0.68993735  0.86351999  1  0  0.115219  0  0.942181  0  0  0.134435  0  1.004891  0  0  0.135515  0  1.005163  0  0  0.100768  0.133525  0  1.004868  0
H  H11  1  0.53851991  0.81006353  0.63648175  1  0  0.115229  0  0.942121  0  0  0.134442  0  1.004832  0  0  0.135523  0  1.005104  0  0  0.100772  0.133532  0  1.004807  0
H  H12  1  0.03716905  0.34558294  0.04571209  1  0  0.107396  0  0.981167  0  0  0.123544  0  1.050417  0  0  0.125153  0  1.049586  0  0  0.092038  0.122321  0  1.05105  0
H  H13  1  0.53716785  0.15441831  0.45428946  1  0  0.107356  0  0.981203  0  0  0.123516  0  1.050461  0  0  0.125124  0  1.049629  0  0  0.092036  0.122293  0  1.051095  0
H  H14  1  0.96283202  0.65441575  0.95428869  1  0  0.107358  0  0.981201  0  0  0.123519  0  1.050444  0  0  0.125128  0  1.049613  0  0  0.092022  0.122297  0  1.05108  0
H  H15  1  0.46283201  0.84558158  0.54571203  1  0  0.10739  0  0.981148  0  0  0.123549  0  1.050403  0  0  0.125157  0  1.049572  0  0  0.092045  0.122326  0  1.051036  0
H  H16  1  0.67422325  0.00535139  0.04879957  1  0  0.104736  0  0.990661  0  0  0.12047  0  1.062245  0  0  0.122104  0  1.061152  0  0  0.092285  0.119217  0  1.063112  0
H  H17  1  0.17422199  0.49465026  0.45120123  1  0  0.104733  0  0.990623  0  0  0.120472  0  1.062209  0  0  0.122107  0  1.061116  0  0  0.092287  0.119202  0  1.063094  0
H  H18  1  0.32577902  0.99464849  0.95120192  1  0  0.104727  0  0.990652  0  0  0.120472  0  1.062236  0  0  0.122106  0  1.061143  0  0  0.092277  0.119208  0  1.063113  0
H  H19  1  0.82577665  0.50535203  0.54879937  1  0  0.104757  0  0.990625  0  0  0.120477  0  1.06223  0  0  0.12211  0  1.061139  0  0  0.092269  0.119214  0  1.063106  0
H  H20  1  0.75796568  0.11810010  0.13816495  1  0  0.114486  0  0.941482  0  0  0.135698  0  1.001191  0  0  0.136403  0  1.002021  0  0  0.101786  0.13508  0  1.000713  0
H  H21  1  0.25796685  0.38190060  0.36183480  1  0  0.114508  0  0.941438  0  0  0.135726  0  1.00115  0  0  0.13643  0  1.00198  0  0  0.101793  0.135108  0  1.00067  0
H  H22  1  0.24203418  0.88189859  0.86183526  1  0  0.114516  0  0.941434  0  0  0.135731  0  1.001151  0  0  0.136436  0  1.001981  0  0  0.101789  0.135112  0  1.000672  0
H  H23  1  0.74203542  0.61810049  0.63816566  1  0  0.114529  0  0.941441  0  0  0.135757  0  1.001139  0  0  0.136462  0  1.001968  0  0  0.101803  0.135137  0  1.000659  0
H  H24  1  0.86779467  0.95264573  0.08190032  1  0  0.094626  0  0.960358  0  0  0.112777  0  1.031194  0  0  0.113395  0  1.031282  0  0  0.093618  0.112221  0  1.031224  0
H  H25  1  0.36779587  0.54735459  0.41810057  1  0  0.094631  0  0.96038  0  0  0.112777  0  1.031225  0  0  0.113396  0  1.031314  0  0  0.09364  0.112222  0  1.03125  0
H  H26  1  0.13220640  0.04735296  0.91810104  1  0  0.094612  0  0.960421  0  0  0.112778  0  1.031247  0  0  0.113399  0  1.031336  0  0  0.093611  0.112221  0  1.031276  0
H  H27  1  0.63220519  0.45264650  0.58189990  1  0  0.094631  0  0.960398  0  0  0.112792  0  1.03123  0  0  0.113412  0  1.031321  0  0  0.093614  0.112235  0  1.031258  0
H  H28  1  0.93199576  0.94851353  0.80867982  1  0  0.073595  0  0.99366  0  0  0.081964  0  1.06629  0  0  0.084162  0  1.066004  0  0  0.085423  0.080351  0  1.066612  0
H  H29  1  0.43198960  0.55148252  0.69131837  1  0  0.073604  0  0.993652  0  0  0.081984  0  1.06627  0  0  0.084181  0  1.065985  0  0  0.085434  0.08037  0  1.06659  0
H  H30  1  0.06800893  0.05148277  0.19131897  1  0  0.073624  0  0.993651  0  0  0.081999  0  1.066271  0  0  0.084196  0  1.065987  0  0  0.085448  0.080388  0  1.066591  0
H  H31  1  0.56800421  0.44851617  0.30868126  1  0  0.073628  0  0.993615  0  0  0.081995  0  1.066255  0  0  0.084192  0  1.06597  0  0  0.085436  0.080381  0  1.066576  0
H  H32  1  0.10234463  0.76271871  0.71137356  1  0  0.093396  0  0.947514  0  0  0.103054  0  1.01083  0  0  0.106306  0  1.009014  0  0  0.093151  0.10069  0  1.012247  0
H  H33  1  0.60233810  0.73727638  0.78862310  1  0  0.09337  0  0.947591  0  0  0.103013  0  1.01091  0  0  0.106276  0  1.009082  0  0  0.093144  0.100647  0  1.012334  0
H  H34  1  0.89766369  0.23727879  0.28862478  1  0  0.093378  0  0.947551  0  0  0.103029  0  1.010876  0  0  0.106279  0  1.009062  0  0  0.093136  0.100663  0  1.012301  0
H  H35  1  0.39765813  0.26271992  0.21137511  1  0  0.093377  0  0.947557  0  0  0.103041  0  1.010858  0  0  0.106292  0  1.009043  0  0  0.093157  0.100677  0  1.012283  0
H  H36  1  0.08264428  0.76396832  0.56831267  1  0  0.082791  0  0.969327  0  0  0.092081  0  1.033438  0  0  0.095107  0  1.032222  0  0  0.089584  0.089913  0  1.034379  0
H  H37  1  0.58264297  0.73603630  0.93168324  1  0  0.082756  0  0.969312  0  0  0.092064  0  1.033417  0  0  0.095092  0  1.032197  0  0  0.089575  0.089896  0  1.034358  0
H  H38  1  0.91735557  0.23603277  0.43168491  1  0  0.082779  0  0.969304  0  0  0.092097  0  1.033402  0  0  0.095126  0  1.032182  0  0  0.089585  0.089928  0  1.034344  0
H  H39  1  0.41735567  0.26396479  0.06831492  1  0  0.082781  0  0.96936  0  0  0.092103  0  1.033455  0  0  0.095134  0  1.032232  0  0  0.089581  0.089936  0  1.034397  0
H  H40  1  0.88964025  0.94907139  0.52263194  1  0  0.07854  0  0.978083  0  0  0.088528  0  1.043994  0  0  0.090678  0  1.043812  0  0  0.090863  0.086987  0  1.04417  0
H  H41  1  0.38964091  0.55093652  0.97736626  1  0  0.078622  0  0.978047  0  0  0.088564  0  1.043999  0  0  0.09071  0  1.043817  0  0  0.090895  0.087024  0  1.044175  0
H  H42  1  0.11035477  0.05092971  0.47736448  1  0  0.078603  0  0.978047  0  0  0.088555  0  1.043993  0  0  0.0907  0  1.043813  0  0  0.090881  0.087015  0  1.044169  0
H  H43  1  0.61035894  0.44906577  0.02263260  1  0  0.078606  0  0.978015  0  0  0.088549  0  1.043963  0  0  0.090699  0  1.043781  0  0  0.090876  0.08701  0  1.04414  0
H  H44  1  0.72339201  0.13625154  0.61890196  1  0  0.080943  0  0.979852  0  0  0.092695  0  1.044336  0  0  0.095684  0  1.042506  0  0  0.082932  0.090496  0  1.045797  0
H  H45  1  0.22339094  0.36375298  0.88109860  1  0  0.080919  0  0.979929  0  0  0.092678  0  1.044394  0  0  0.095668  0  1.042565  0  0  0.082944  0.090485  0  1.045851  0
H  H46  1  0.27660543  0.86374834  0.38109953  1  0  0.080947  0  0.979852  0  0  0.092699  0  1.044331  0  0  0.095691  0  1.042497  0  0  0.082936  0.090496  0  1.045796  0
H  H47  1  0.77660649  0.63625050  0.11890212  1  0  0.080955  0  0.979888  0  0  0.092699  0  1.044376  0  0  0.095691  0  1.042542  0  0  0.082943  0.090489  0  1.045849  0
C  C48  1  0.81466912  0.17707984  0.96377900  1  0  0.206116  0  3.790591  0  0  0.174021  0  4.093541  0  0  0.197195  0  4.1035  0  0  0.130336  0.158635  0  4.086074  0
C  C49  1  0.31467017  0.32291896  0.53622176  1  0  0.2061  0  3.790568  0  0  0.174016  0  4.093487  0  0  0.197189  0  4.103447  0  0  0.130338  0.15863  0  4.086017  0
C  C50  1  0.18533316  0.82291765  0.03622281  1  0  0.206083  0  3.790605  0  0  0.174017  0  4.093495  0  0  0.197191  0  4.103453  0  0  0.130353  0.158631  0  4.086024  0
C  C51  1  0.68533089  0.67708213  0.46377813  1  0  0.20616  0  3.790557  0  0  0.174083  0  4.093461  0  0  0.197257  0  4.103418  0  0  0.130383  0.158697  0  4.085992  0
C  C52  1  0.99943184  0.25248572  0.07637088  1  0  -0.173011  0  3.604326  0  0  -0.269842  0  3.841962  0  0  -0.26712  0  3.850854  0  0  -0.139042  -0.271348  0  3.835984  0
C  C53  1  0.49943104  0.24751687  0.42363085  1  0  -0.172834  0  3.604315  0  0  -0.269759  0  3.842075  0  0  -0.267033  0  3.850968  0  0  -0.139043  -0.271275  0  3.836089  0
C  C54  1  0.00057165  0.74751416  0.92363061  1  0  -0.1729  0  3.604257  0  0  -0.26977  0  3.842014  0  0  -0.267046  0  3.850906  0  0  -0.139017  -0.27129  0  3.836028  0
C  C55  1  0.50057002  0.75248421  0.57637076  1  0  -0.172903  0  3.604168  0  0  -0.269794  0  3.841898  0  0  -0.267069  0  3.850789  0  0  -0.139046  -0.2713  0  3.835919  0
C  C56  1  0.78655708  0.05262813  0.07807703  1  0  -0.17905  0  3.620251  0  0  -0.27898  0  3.861597  0  0  -0.276153  0  3.870765  0  0  -0.143464  -0.280547  0  3.855359  0
C  C57  1  0.28655783  0.44737265  0.42192454  1  0  -0.179103  0  3.620326  0  0  -0.279048  0  3.861695  0  0  -0.276226  0  3.870873  0  0  -0.143518  -0.280599  0  3.85547  0
C  C58  1  0.21344399  0.94737296  0.92192459  1  0  -0.179059  0  3.62033  0  0  -0.279032  0  3.861691  0  0  -0.27621  0  3.870866  0  0  -0.143491  -0.28059  0  3.855459  0
C  C59  1  0.71344445  0.55262844  0.57807593  1  0  -0.179113  0  3.620319  0  0  -0.279078  0  3.86169  0  0  -0.276257  0  3.870863  0  0  -0.14351  -0.280634  0  3.855457  0
C  C60  1  0.81648962  0.05487605  0.72079436  1  0  -0.289131  0  3.741214  0  0  -0.224131  0  3.973858  0  0  -0.235858  0  4.008521  0  0  -0.121262  -0.216143  0  3.950314  0
C  C61  1  0.31648757  0.44512395  0.77920595  1  0  -0.289112  0  3.741037  0  0  -0.224103  0  3.973675  0  0  -0.23583  0  4.008339  0  0  -0.121268  -0.216117  0  3.950131  0
C  C62  1  0.18350660  0.94512144  0.27920629  1  0  -0.289014  0  3.741161  0  0  -0.223997  0  3.973781  0  0  -0.235724  0  4.008446  0  0  -0.121201  -0.216011  0  3.950234  0
C  C63  1  0.68350624  0.55487714  0.22079336  1  0  -0.289003  0  3.74116  0  0  -0.223983  0  3.973765  0  0  -0.235709  0  4.00843  0  0  -0.121196  -0.215996  0  3.950214  0
C  C64  1  0.92284081  0.94895213  0.74597862  1  0  -0.082075  0  3.855995  0  0  -0.100796  0  4.098537  0  0  -0.10201  0  4.123961  0  0  -0.108213  -0.099869  0  4.081273  0
C  C65  1  0.42283898  0.55104989  0.75401961  1  0  -0.082167  0  3.856073  0  0  -0.100905  0  4.098624  0  0  -0.102121  0  4.124054  0  0  -0.108224  -0.099975  0  4.081357  0
C  C66  1  0.07716025  0.05104777  0.25401941  1  0  -0.082186  0  3.856084  0  0  -0.100922  0  4.098628  0  0  -0.102137  0  4.124053  0  0  -0.108235  -0.099994  0  4.081365  0
C  C67  1  0.57715967  0.44895360  0.24598053  1  0  -0.082173  0  3.855991  0  0  -0.100903  0  4.098525  0  0  -0.102117  0  4.123948  0  0  -0.108226  -0.099972  0  4.081259  0
C  C68  1  0.01907307  0.84453079  0.69132355  1  0  -0.066009  0  3.763044  0  0  -0.075994  0  4.007119  0  0  -0.077011  0  4.026501  0  0  -0.097346  -0.075286  0  3.993998  0
C  C69  1  0.51907145  0.65546885  0.80867340  1  0  -0.065884  0  3.762967  0  0  -0.075836  0  4.00705  0  0  -0.076862  0  4.026425  0  0  -0.097328  -0.07513  0  3.993926  0
C  C70  1  0.98092921  0.15546431  0.30867396  1  0  -0.065959  0  3.762981  0  0  -0.075932  0  4.007063  0  0  -0.076949  0  4.026445  0  0  -0.097353  -0.075225  0  3.993941  0
C  C71  1  0.48092720  0.34453224  0.19132591  1  0  -0.065982  0  3.762947  0  0  -0.075965  0  4.00704  0  0  -0.076982  0  4.02642  0  0  -0.097376  -0.075258  0  3.993919  0
C  C72  1  0.00855064  0.84575042  0.61102797  1  0  -0.082024  0  3.777632  0  0  -0.091919  0  4.021071  0  0  -0.094072  0  4.042401  0  0  -0.098538  -0.090329  0  4.006478  0
C  C73  1  0.50854387  0.65425159  0.88896920  1  0  -0.08211  0  3.777402  0  0  -0.092032  0  4.020855  0  0  -0.094189  0  4.042195  0  0  -0.098582  -0.090442  0  4.006268  0
C  C74  1  0.99145043  0.15424827  0.38897166  1  0  -0.082066  0  3.777577  0  0  -0.091996  0  4.021009  0  0  -0.094146  0  4.042332  0  0  -0.098556  -0.090405  0  4.00642  0
C  C75  1  0.49145357  0.34574710  0.11102928  1  0  -0.08208  0  3.77755  0  0  -0.092018  0  4.020985  0  0  -0.094175  0  4.042325  0  0  -0.098554  -0.090427  0  4.006398  0
C  C76  1  0.90046725  0.94970326  0.58538767  1  0  -0.082053  0  3.783968  0  0  -0.08998  0  4.024028  0  0  -0.092474  0  4.046681  0  0  -0.101913  -0.08822  0  4.008604  0
C  C77  1  0.40046479  0.55029749  0.91461037  1  0  -0.082086  0  3.783941  0  0  -0.089967  0  4.023994  0  0  -0.092458  0  4.046646  0  0  -0.101944  -0.088209  0  4.008576  0
C  C78  1  0.09952777  0.05029544  0.41461196  1  0  -0.082032  0  3.783976  0  0  -0.089938  0  4.024059  0  0  -0.092423  0  4.0467  0  0  -0.101903  -0.088181  0  4.008634  0
C  C79  1  0.59953023  0.44970359  0.08538952  1  0  -0.082049  0  3.784022  0  0  -0.089935  0  4.024086  0  0  -0.092426  0  4.046733  0  0  -0.101906  -0.088175  0  4.008657  0
C  C80  1  0.80516199  0.05439237  0.64005148  1  0  -0.079763  0  3.843022  0  0  -0.094338  0  4.076972  0  0  -0.095467  0  4.101169  0  0  -0.110406  -0.093469  0  4.060558  0
C  C81  1  0.30515842  0.44560879  0.85994950  1  0  -0.079698  0  3.84303  0  0  -0.094279  0  4.076962  0  0  -0.095404  0  4.101147  0  0  -0.110363  -0.093413  0  4.060549  0
C  C82  1  0.19483424  0.94560512  0.35994917  1  0  -0.079839  0  3.842944  0  0  -0.09442  0  4.076893  0  0  -0.09555  0  4.101089  0  0  -0.11046  -0.093545  0  4.060478  0
C  C83  1  0.69483539  0.55439229  0.14005096  1  0  -0.079817  0  3.843198  0  0  -0.094391  0  4.077125  0  0  -0.095521  0  4.101323  0  0  -0.110445  -0.093511  0  4.060716  0
S  S84  1  0.65155687  0.07011275  0.91725457  1  0  -0.309451  0  2.105259  0  0  -0.278261  0  2.445656  0  0  -0.292977  0  2.443343  0  0  -0.100084  -0.268166  0  2.447016  0
S  S85  1  0.15155501  0.42988558  0.58274514  1  0  -0.309387  0  2.105278  0  0  -0.27819  0  2.445673  0  0  -0.292905  0  2.443358  0  0  -0.100042  -0.268094  0  2.447026  0
S  S86  1  0.34844782  0.92988114  0.08274685  1  0  -0.30938  0  2.1053  0  0  -0.278171  0  2.445656  0  0  -0.292885  0  2.443341  0  0  -0.100068  -0.268079  0  2.447015  0
S  S87  1  0.84844726  0.57012151  0.41725424  1  0  -0.309391  0  2.105328  0  0  -0.278178  0  2.445686  0  0  -0.292891  0  2.443371  0  0  -0.10006  -0.268085  0  2.447042  0
S  S88  1  0.91025663  0.30665980  0.91475639  1  0  -0.339407  0  2.131437  0  0  -0.307051  0  2.469952  0  0  -0.322168  0  2.467096  0  0  -0.112259  -0.296628  0  2.47166  0
S  S89  1  0.41025800  0.19333927  0.58524407  1  0  -0.339388  0  2.131429  0  0  -0.307042  0  2.469945  0  0  -0.322148  0  2.467069  0  0  -0.112266  -0.296618  0  2.471649  0
S  S90  1  0.08974322  0.69333649  0.08524356  1  0  -0.339345  0  2.131453  0  0  -0.307016  0  2.469989  0  0  -0.322126  0  2.467118  0  0  -0.112263  -0.296593  0  2.471691  0
S  S91  1  0.58974427  0.80666541  0.41475563  1  0  -0.339379  0  2.131425  0  0  -0.307029  0  2.469936  0  0  -0.32215  0  2.467086  0  0  -0.112274  -0.296607  0  2.471639  0
N  N92  1  0.86458862  0.16075486  0.03488654  1  0  -0.031332  0  3.475563  0  0  0.075555  0  3.696967  0  0  0.05832  0  3.723178  0  0  -0.263251  0.086867  0  3.679076  0
N  N93  1  0.36458966  0.33924614  0.46511410  1  0  -0.031387  0  3.475687  0  0  0.075548  0  3.697073  0  0  0.058311  0  3.723287  0  0  -0.263232  0.086861  0  3.679179  0
N  N94  1  0.13541365  0.83924622  0.96511565  1  0  -0.031491  0  3.475719  0  0  0.075428  0  3.697102  0  0  0.058189  0  3.723317  0  0  -0.263264  0.086742  0  3.679209  0
N  N95  1  0.63541140  0.66075615  0.53488534  1  0  -0.031487  0  3.475752  0  0  0.075442  0  3.697145  0  0  0.058205  0  3.723358  0  0  -0.263223  0.086756  0  3.679249  0
Cl  Cl96  1  0.39313808  0.04547263  0.75521277  1  0  -0.533602  0  0.909222  0  0  -0.467493  0  1.154992  0  0  -0.48792  0  1.146097  0  0  -0.260796  -0.452679  0  1.160877  0
Cl  Cl97  1  0.89313870  0.45452160  0.74478770  1  0  -0.533551  0  0.909346  0  0  -0.467443  0  1.155144  0  0  -0.487869  0  1.146252  0  0  -0.260751  -0.45263  0  1.161029  0
Cl  Cl98  1  0.60686177  0.95452606  0.24478859  1  0  -0.533551  0  0.909277  0  0  -0.467457  0  1.155096  0  0  -0.487882  0  1.146202  0  0  -0.26077  -0.452644  0  1.160981  0
Cl  Cl99  1  0.10685994  0.54547469  0.25521168  1  0  -0.533572  0  0.909226  0  0  -0.467478  0  1.155037  0  0  -0.487902  0  1.14614  0  0  -0.260786  -0.452665  0  1.160922  0
