# generated using pymatgen
data_SrH14(CO)11
_symmetry_space_group_name_H-M   'P 1'
_cell_length_a   6.73441940
_cell_length_b   13.68407160
_cell_length_c   15.81440000
_cell_angle_alpha   104.74322717
_cell_angle_beta   90.00000000
_cell_angle_gamma   90.00000000
_symmetry_Int_Tables_number   1
_chemical_formula_structural   SrH14(CO)11
_chemical_formula_sum   'Sr4 H56 C44 O44'
_cell_volume   1409.38237108
_cell_formula_units_Z   4
loop_
 _symmetry_equiv_pos_site_id
 _symmetry_equiv_pos_as_xyz
  1  'x, y, z'
loop_
 _atom_site_type_symbol
 _atom_site_label
 _atom_site_symmetry_multiplicity
 _atom_site_fract_x
 _atom_site_fract_y
 _atom_site_fract_z
 _atom_site_occupancy
 _atom_site_hle17_bader_spin_density
 _atom_site_hle17_ddec_charge
 _atom_site_hle17_ddec_spin_density
 _atom_site_hle17_ddec_sum_bond_order
 _atom_site_hle17_magmom
 _atom_site_hse06_10hf_bader_spin_density
 _atom_site_hse06_10hf_ddec_charge
 _atom_site_hse06_10hf_ddec_spin_density
 _atom_site_hse06_10hf_ddec_sum_bond_order
 _atom_site_hse06_10hf_magmom
 _atom_site_hse06_bader_spin_density
 _atom_site_hse06_ddec_charge
 _atom_site_hse06_ddec_spin_density
 _atom_site_hse06_ddec_sum_bond_order
 _atom_site_hse06_magmom
 _atom_site_pbe_bader_charge
 _atom_site_pbe_bader_spin_density
 _atom_site_pbe_cm5_charge
 _atom_site_pbe_ddec_charge
 _atom_site_pbe_ddec_spin_density
 _atom_site_pbe_ddec_sum_bond_order
 _atom_site_pbe_magmom
Sr  Sr0  1  0.25868897  0.26175389  0.39836977  1  0  1.609382  0  1.103221  0  0  1.453649  0  1.479803  0  0  1.490662  0  1.436494  0  1.68934  0  0.939184  1.426601  0  1.510333  0
Sr  Sr1  1  0.75868307  0.23824771  0.60162954  1  0  1.60937  0  1.103285  0  0  1.453719  0  1.479708  0  0  1.49073  0  1.436395  0  1.68932  0  0.939179  1.426612  0  1.510336  0
Sr  Sr2  1  0.74131112  0.73824478  0.60163102  1  0  1.609323  0  1.103346  0  0  1.453657  0  1.479825  0  0  1.49066  0  1.436518  0  1.689315  0  0.939178  1.42659  0  1.510383  0
Sr  Sr3  1  0.24131256  0.76175323  0.39837111  1  0  1.609351  0  1.103251  0  0  1.453644  0  1.479791  0  0  1.490657  0  1.436476  0  1.689339  0  0.939184  1.426582  0  1.510348  0
H  H4  1  0.45625760  0.08968426  0.43924075  1  0  0.411698  0  0.898057  0  0  0.378987  0  0.966651  0  0  0.39044  0  0.949694  0  0.636158  0  0.301168  0.370869  0  0.978671  0
H  H5  1  0.95625022  0.41031961  0.56075843  1  0  0.411743  0  0.897966  0  0  0.379075  0  0.966498  0  0  0.390526  0  0.949545  0  0.636163  0  0.301214  0.370959  0  0.978516  0
H  H6  1  0.54375289  0.91031592  0.56075973  1  0  0.41173  0  0.897999  0  0  0.379043  0  0.966575  0  0  0.390497  0  0.949615  0  0.6362  0  0.301205  0.370926  0  0.978595  0
H  H7  1  0.04374839  0.58968208  0.43924239  1  0  0.411711  0  0.898021  0  0  0.37904  0  0.966561  0  0  0.390492  0  0.949605  0  0.636153  0  0.301206  0.370923  0  0.97858  0
H  H8  1  0.56606068  0.06636018  0.34673238  1  0  0.421341  0  0.864962  0  0  0.386736  0  0.943465  0  0  0.397556  0  0.927344  0  0.64137  0  0.302012  0.378998  0  0.955005  0
H  H9  1  0.06604875  0.43364066  0.65326677  1  0  0.421456  0  0.864896  0  0  0.38686  0  0.943313  0  0  0.39768  0  0.927191  0  0.641495  0  0.302068  0.379119  0  0.954858  0
H  H10  1  0.43394684  0.93364000  0.65326811  1  0  0.421382  0  0.864962  0  0  0.386775  0  0.943423  0  0  0.397595  0  0.927301  0  0.641447  0  0.302025  0.379035  0  0.954965  0
H  H11  1  0.93394985  0.56635876  0.34673165  1  0  0.421427  0  0.864923  0  0  0.386824  0  0.943362  0  0  0.397644  0  0.92724  0  0.641458  0  0.302044  0.379084  0  0.954905  0
H  H12  1  0.16571436  0.45489499  0.33335875  1  0  0.428875  0  0.870976  0  0  0.403049  0  0.925966  0  0  0.413736  0  0.910445  0  0.647266  0  0.291116  0.395488  0  0.936952  0
H  H13  1  0.66570995  0.04510434  0.66664069  1  0  0.428949  0  0.870863  0  0  0.403074  0  0.925926  0  0  0.413761  0  0.910404  0  0.647235  0  0.291115  0.395515  0  0.936907  0
H  H14  1  0.83428573  0.54510443  0.66664473  1  0  0.428915  0  0.870913  0  0  0.403034  0  0.925983  0  0  0.413721  0  0.910461  0  0.647229  0  0.29112  0.395475  0  0.936963  0
H  H15  1  0.33429905  0.95489357  0.33335676  1  0  0.42907  0  0.870688  0  0  0.403107  0  0.925883  0  0  0.413794  0  0.910362  0  0.647206  0  0.291133  0.39555  0  0.936861  0
H  H16  1  0.16758535  0.37988784  0.24103359  1  0  0.428903  0  0.866426  0  0  0.401416  0  0.925308  0  0  0.410745  0  0.911347  0  0.646741  0  0.293811  0.394807  0  0.935209  0
H  H17  1  0.66758539  0.12011225  0.75896538  1  0  0.428976  0  0.866352  0  0  0.401484  0  0.925243  0  0  0.410814  0  0.91128  0  0.646826  0  0.29382  0.394876  0  0.935144  0
H  H18  1  0.83241623  0.62011007  0.75896702  1  0  0.428978  0  0.866345  0  0  0.401506  0  0.925195  0  0  0.410835  0  0.911234  0  0.646725  0  0.293852  0.394898  0  0.935095  0
H  H19  1  0.33242509  0.87988793  0.24103447  1  0  0.429032  0  0.866274  0  0  0.401558  0  0.925129  0  0  0.410888  0  0.911166  0  0.646732  0  0.293867  0.394951  0  0.935027  0
H  H20  1  0.24336025  0.49439237  0.52364967  1  0  0.425054  0  0.855372  0  0  0.401499  0  0.913449  0  0  0.409755  0  0.901353  0  0.62905  0  0.310903  0.39563  0  0.922066  0
H  H21  1  0.74336624  0.00560772  0.47634994  1  0  0.425065  0  0.855348  0  0  0.40151  0  0.913435  0  0  0.409765  0  0.901339  0  0.629106  0  0.310901  0.39564  0  0.922052  0
H  H22  1  0.75663538  0.50560857  0.47635161  1  0  0.425029  0  0.855367  0  0  0.401465  0  0.913485  0  0  0.409719  0  0.901392  0  0.629124  0  0.310881  0.395596  0  0.922102  0
H  H23  1  0.25663237  0.99439019  0.52364751  1  0  0.425016  0  0.855294  0  0  0.401453  0  0.913479  0  0  0.409708  0  0.901384  0  0.629154  0  0.310887  0.395583  0  0.922096  0
H  H24  1  0.38427069  0.42159248  0.56102318  1  0  0.425688  0  0.87507  0  0  0.392944  0  0.94191  0  0  0.404163  0  0.92538  0  0.648657  0  0.301502  0.384973  0  0.953657  0
H  H25  1  0.88427222  0.07840987  0.43897756  1  0  0.425642  0  0.875129  0  0  0.392906  0  0.941961  0  0  0.404129  0  0.925425  0  0.648659  0  0.301493  0.384935  0  0.953706  0
H  H26  1  0.61572643  0.57840921  0.43897890  1  0  0.425658  0  0.875113  0  0  0.392923  0  0.941942  0  0  0.404144  0  0.92541  0  0.648669  0  0.301505  0.384952  0  0.953689  0
H  H27  1  0.11572193  0.92159031  0.56102166  1  0  0.425662  0  0.875099  0  0  0.392947  0  0.941895  0  0  0.404165  0  0.925366  0  0.648651  0  0.301504  0.384975  0  0.953644  0
H  H28  1  0.27028165  0.01911356  0.82959275  1  0  0.393847  0  0.906691  0  0  0.359641  0  0.989811  0  0  0.372769  0  0.975612  0  0.64174  0  0.296711  0.350493  0  0.998934  0
H  H29  1  0.77028170  0.48088502  0.17040273  1  0  0.393956  0  0.906584  0  0  0.359706  0  0.989766  0  0  0.37284  0  0.975528  0  0.641748  0  0.296695  0.350559  0  0.998889  0
H  H30  1  0.72972586  0.98088662  0.17040204  1  0  0.393891  0  0.90668  0  0  0.359682  0  0.989806  0  0  0.372811  0  0.975567  0  0.641771  0  0.296708  0.350536  0  0.998929  0
H  H31  1  0.22971988  0.51911743  0.82960078  1  0  0.394013  0  0.906527  0  0  0.359764  0  0.98971  0  0  0.372897  0  0.975454  0  0.641771  0  0.296709  0.350617  0  0.998834  0
H  H32  1  0.76227210  0.20093796  0.99875251  1  0  0.10245  0  0.95841  0  0  0.110556  0  1.022131  0  0  0.113529  0  1.020572  0  0.099446  0  0.102788  0.108395  0  1.023337  0
H  H33  1  0.26227205  0.29906289  0.00124031  1  0  0.102382  0  0.958527  0  0  0.110501  0  1.022229  0  0  0.113474  0  1.02067  0  0.099555  0  0.102785  0.108339  0  1.023436  0
H  H34  1  0.23772502  0.79906751  0.00124407  1  0  0.102365  0  0.958496  0  0  0.110476  0  1.022217  0  0  0.113448  0  1.020659  0  0.099304  0  0.102784  0.108315  0  1.02342  0
H  H35  1  0.73772210  0.70093654  0.99876001  1  0  0.102387  0  0.958492  0  0  0.11051  0  1.022188  0  0  0.113482  0  1.020631  0  0.099456  0  0.102791  0.108349  0  1.023393  0
H  H36  1  0.81467305  0.27174593  0.15791591  1  0  0.110646  0  0.983315  0  0  0.119251  0  1.046316  0  0  0.12243  0  1.044945  0  0.089273  0  0.105651  0.116961  0  1.047462  0
H  H37  1  0.31467598  0.22826247  0.84207794  1  0  0.110644  0  0.983315  0  0  0.119267  0  1.046286  0  0  0.122446  0  1.044917  0  0.089399  0  0.105687  0.116983  0  1.047426  0
H  H38  1  0.18532555  0.72825727  0.84208144  1  0  0.11063  0  0.983367  0  0  0.119265  0  1.046322  0  0  0.122444  0  1.044953  0  0.089383  0  0.105668  0.116986  0  1.047456  0
H  H39  1  0.68532411  0.77174300  0.15792307  1  0  0.110593  0  0.983387  0  0  0.119226  0  1.046355  0  0  0.122404  0  1.044988  0  0.089494  0  0.10566  0.116957  0  1.047475  0
H  H40  1  0.20456403  0.07526408  0.04937473  1  0  0.122008  0  0.949338  0  0  0.134307  0  1.007278  0  0  0.137775  0  1.004736  0  0.10093  0  0.112503  0.131767  0  1.009293  0
H  H41  1  0.70455962  0.42472694  0.95062289  1  0  0.122007  0  0.949429  0  0  0.134382  0  1.007284  0  0  0.137853  0  1.004739  0  0.100864  0  0.112532  0.131842  0  1.0093  0
H  H42  1  0.79543309  0.92473384  0.95062273  1  0  0.121989  0  0.949412  0  0  0.134329  0  1.007303  0  0  0.137796  0  1.004766  0  0.100942  0  0.112516  0.131789  0  1.009317  0
H  H43  1  0.29542562  0.57526492  0.04937893  1  0  0.121957  0  0.949475  0  0  0.134312  0  1.007341  0  0  0.137779  0  1.004806  0  0.100981  0  0.112496  0.131772  0  1.009355  0
H  H44  1  0.13286372  0.99974326  0.17442349  1  0  0.114028  0  0.916873  0  0  0.125023  0  0.976106  0  0  0.126974  0  0.97439  0  0.136232  0  0.120708  0.123678  0  0.977431  0
H  H45  1  0.63286673  0.50025550  0.82557437  1  0  0.114035  0  0.916869  0  0  0.125023  0  0.976131  0  0  0.126966  0  0.974412  0  0.136243  0  0.120716  0.123676  0  0.977458  0
H  H46  1  0.86713637  0.00025466  0.82557396  1  0  0.114044  0  0.91689  0  0  0.125032  0  0.976144  0  0  0.126977  0  0.974432  0  0.136263  0  0.120731  0.123686  0  0.977468  0
H  H47  1  0.36713930  0.49974468  0.17442738  1  0  0.114014  0  0.916936  0  0  0.125002  0  0.976181  0  0  0.126945  0  0.974467  0  0.136286  0  0.120717  0.123656  0  0.977504  0
H  H48  1  0.97995382  0.09640128  0.15065829  1  0  0.090522  0  0.943371  0  0  0.10089  0  1.008601  0  0  0.102068  0  1.007794  0  0.091434  0  0.111359  0.10004  0  1.009357  0
H  H49  1  0.47994486  0.40359881  0.84934575  1  0  0.090447  0  0.94333  0  0  0.100842  0  1.008558  0  0  0.102037  0  1.007721  0  0.091624  0  0.111309  0.099992  0  1.009313  0
H  H50  1  0.02005667  0.90359814  0.84934329  1  0  0.090502  0  0.94332  0  0  0.100867  0  1.008564  0  0  0.102072  0  1.007721  0  0.091633  0  0.111346  0.100018  0  1.009318  0
H  H51  1  0.52005374  0.59640440  0.15065856  1  0  0.090526  0  0.943279  0  0  0.100899  0  1.008501  0  0  0.102097  0  1.007664  0  0.091503  0  0.111354  0.100049  0  1.009254  0
H  H52  1  0.71193220  0.38227722  0.30420392  1  0  0.11356  0  0.942316  0  0  0.121518  0  1.005756  0  0  0.124164  0  1.003428  0  0.159338  0  0.118954  0.11963  0  1.007541  0
H  H53  1  0.21192918  0.11773118  0.69579309  1  0  0.113653  0  0.942328  0  0  0.121544  0  1.005792  0  0  0.124208  0  1.003464  0  0.159462  0  0.118932  0.119651  0  1.007578  0
H  H54  1  0.28807383  0.61772447  0.69579183  1  0  0.113515  0  0.942419  0  0  0.121482  0  1.005833  0  0  0.12413  0  1.003513  0  0.159373  0  0.118934  0.119595  0  1.00762  0
H  H55  1  0.78806645  0.88227127  0.30421042  1  0  0.113633  0  0.942356  0  0  0.121527  0  1.005827  0  0  0.12419  0  1.003504  0  0.159432  0  0.118932  0.119634  0  1.007609  0
H  H56  1  0.86584599  0.27347789  0.28392458  1  0  0.083633  0  0.958059  0  0  0.092272  0  1.028651  0  0  0.093746  0  1.026906  0  0.071184  0  0.120033  0.091202  0  1.030031  0
H  H57  1  0.36585040  0.22652824  0.71607194  1  0  0.083677  0  0.958055  0  0  0.092291  0  1.028638  0  0  0.093771  0  1.026899  0  0.071404  0  0.120051  0.091216  0  1.030016  0
H  H58  1  0.13415707  0.72652002  0.71607351  1  0  0.083641  0  0.958114  0  0  0.092289  0  1.028679  0  0  0.093763  0  1.026939  0  0.071209  0  0.120042  0.091221  0  1.03006  0
H  H59  1  0.63415415  0.77347345  0.28392951  1  0  0.083693  0  0.958022  0  0  0.092286  0  1.028649  0  0  0.093766  0  1.026914  0  0.071337  0  0.120074  0.091211  0  1.030027  0
C  C60  1  0.45347785  0.09556326  0.91956015  1  0  0.652756  0  3.849086  0  0  0.603337  0  4.148977  0  0  0.636205  0  4.14125  0  1.523403  0  0.225489  0.581029  0  4.153734  0
C  C61  1  0.95349125  0.40443305  0.08043609  1  0  0.652938  0  3.848873  0  0  0.603422  0  4.148893  0  0  0.636302  0  4.141151  0  1.522532  0  0.225533  0.581102  0  4.153671  0
C  C62  1  0.54651333  0.90443768  0.08043923  1  0  0.652911  0  3.848919  0  0  0.603396  0  4.148958  0  0  0.636274  0  4.141215  0  1.523305  0  0.225543  0.581096  0  4.153706  0
C  C63  1  0.04651180  0.59556864  0.91956662  1  0  0.653054  0  3.848846  0  0  0.603529  0  4.148872  0  0  0.636394  0  4.141151  0  1.522603  0  0.225495  0.581209  0  4.153652  0
C  C64  1  0.48148471  0.13389541  0.01506798  1  0  -0.088211  0  3.827514  0  0  -0.067035  0  4.068347  0  0  -0.076817  0  4.093403  0  0.027337  0  -0.031362  -0.060642  0  4.05139  0
C  C65  1  0.98148624  0.36610543  0.98492674  1  0  -0.08812  0  3.827342  0  0  -0.066951  0  4.068285  0  0  -0.076732  0  4.093332  0  0.026997  0  -0.031376  -0.060555  0  4.05133  0
C  C66  1  0.51851389  0.86610779  0.98493001  1  0  -0.088193  0  3.827231  0  0  -0.067013  0  4.068168  0  0  -0.076799  0  4.09322  0  0.027438  0  -0.031427  -0.060625  0  4.051208  0
C  C67  1  0.01850791  0.63389475  0.01507248  1  0  -0.088245  0  3.827497  0  0  -0.067034  0  4.068381  0  0  -0.076813  0  4.093427  0  0.027403  0  -0.031356  -0.060639  0  4.051426  0
C  C68  1  0.65257593  0.18885880  0.04561773  1  0  -0.047297  0  3.750264  0  0  -0.077146  0  4.00508  0  0  -0.074112  0  4.023023  0  0.033695  0  -0.089706  -0.07893  0  3.992901  0
C  C69  1  0.15257589  0.31113751  0.95437599  1  0  -0.047347  0  3.750472  0  0  -0.077207  0  4.005291  0  0  -0.074176  0  4.023234  0  0.033971  0  -0.08977  -0.07899  0  3.993114  0
C  C70  1  0.34742564  0.81114365  0.95437946  1  0  -0.047202  0  3.750326  0  0  -0.077062  0  4.005169  0  0  -0.074026  0  4.02311  0  0.03376  0  -0.089692  -0.078844  0  3.992992  0
C  C71  1  0.84742420  0.68886115  0.04562163  1  0  -0.047269  0  3.750419  0  0  -0.077147  0  4.005243  0  0  -0.074112  0  4.023185  0  0.033608  0  -0.089755  -0.07893  0  3.993067  0
C  C72  1  0.68154650  0.22813854  0.13502541  1  0  -0.189336  0  3.77035  0  0  -0.211376  0  4.031861  0  0  -0.216799  0  4.050462  0  -0.093791  0  -0.11053  -0.207842  0  4.019516  0
C  C73  1  0.18154200  0.27186759  0.86496984  1  0  -0.189485  0  3.770625  0  0  -0.211549  0  4.032113  0  0  -0.216969  0  4.050718  0  -0.094064  0  -0.110686  -0.208017  0  4.019762  0
C  C74  1  0.31844913  0.77186844  0.86497278  1  0  -0.18937  0  3.770477  0  0  -0.21141  0  4.032005  0  0  -0.216823  0  4.050617  0  -0.094064  0  -0.110534  -0.207891  0  4.01964  0
C  C75  1  0.81844769  0.72812881  0.13503107  1  0  -0.18942  0  3.770506  0  0  -0.211471  0  4.032  0  0  -0.216899  0  4.050597  0  -0.094187  0  -0.110606  -0.207948  0  4.019635  0
C  C76  1  0.54005250  0.21205063  0.19453162  1  0  0.211111  0  3.742972  0  0  0.193293  0  4.00594  0  0  0.204413  0  4.020002  0  0.52045  0  0.093665  0.185656  0  3.9966  0
C  C77  1  0.04005691  0.28795173  0.80546406  1  0  0.211199  0  3.742992  0  0  0.193443  0  4.005841  0  0  0.204559  0  4.019919  0  0.520521  0  0.093762  0.185806  0  3.9965  0
C  C78  1  0.45994611  0.78794728  0.80546583  1  0  0.211123  0  3.742843  0  0  0.193208  0  4.005847  0  0  0.204287  0  4.019962  0  0.520597  0  0.093642  0.185601  0  3.996459  0
C  C79  1  0.95994170  0.71205072  0.19453945  1  0  0.211257  0  3.742866  0  0  0.193417  0  4.00578  0  0  0.20456  0  4.01983  0  0.520649  0  0.09372  0.185779  0  3.996436  0
C  C80  1  0.36462089  0.15698750  0.16380435  1  0  0.180197  0  3.75435  0  0  0.167927  0  4.018776  0  0  0.174449  0  4.033826  0  0.48661  0  0.084344  0.163127  0  4.008795  0
C  C81  1  0.86462094  0.34301259  0.83619336  1  0  0.180228  0  3.754385  0  0  0.16806  0  4.018595  0  0  0.174569  0  4.03367  0  0.486793  0  0.084422  0.16326  0  4.008609  0
C  C82  1  0.63538217  0.84301344  0.83619187  1  0  0.180261  0  3.75449  0  0  0.168171  0  4.018682  0  0  0.174686  0  4.033764  0  0.487155  0  0.084416  0.163369  0  4.008674  0
C  C83  1  0.13538212  0.65698457  0.16380835  1  0  0.180187  0  3.75446  0  0  0.167964  0  4.018784  0  0  0.174463  0  4.033858  0  0.487062  0  0.084373  0.163176  0  4.00878  0
C  C84  1  0.33708177  0.11810296  0.07462597  1  0  -0.169442  0  3.734305  0  0  -0.207099  0  3.992989  0  0  -0.207609  0  4.011504  0  -0.05378  0  -0.097367  -0.20651  0  3.980543  0
C  C85  1  0.83707439  0.38189108  0.92537231  1  0  -0.169545  0  3.734336  0  0  -0.207319  0  3.992999  0  0  -0.207825  0  4.011513  0  -0.053949  0  -0.097463  -0.206735  0  3.980569  0
C  C86  1  0.66292278  0.88189646  0.92536739  1  0  -0.169496  0  3.734268  0  0  -0.20724  0  3.992927  0  0  -0.207748  0  4.011447  0  -0.054305  0  -0.097398  -0.206672  0  3.980521  0
C  C87  1  0.16290937  0.61809852  0.07463217  1  0  -0.169425  0  3.734398  0  0  -0.207167  0  3.993078  0  0  -0.207678  0  4.011609  0  -0.054244  0  -0.097376  -0.206596  0  3.980666  0
C  C88  1  0.07218885  0.07625474  0.20118004  1  0  -0.083357  0  3.600311  0  0  -0.138546  0  3.857441  0  0  -0.13566  0  3.858708  0  0.345439  0  -0.060597  -0.140762  0  3.856808  0
C  C89  1  0.57218890  0.42374459  0.79882257  1  0  -0.083123  0  3.600204  0  0  -0.138415  0  3.857384  0  0  -0.135512  0  3.858606  0  0.345235  0  -0.060518  -0.14063  0  3.856742  0
C  C90  1  0.92781272  0.92374619  0.79882061  1  0  -0.08328  0  3.600176  0  0  -0.138507  0  3.857363  0  0  -0.135625  0  3.858597  0  0.34522  0  -0.060589  -0.140722  0  3.856721  0
C  C91  1  0.42780674  0.57625181  0.20118151  1  0  -0.083362  0  3.600222  0  0  -0.138603  0  3.857372  0  0  -0.135709  0  3.858599  0  0.34539  0  -0.060606  -0.140809  0  3.856727  0
C  C92  1  0.94187184  0.07584140  0.28015746  1  0  0.691403  0  3.839029  0  0  0.633821  0  4.151817  0  0  0.666869  0  4.14352  0  1.617438  0  0.228187  0.611428  0  4.156847  0
C  C93  1  0.44186734  0.42415869  0.71984468  1  0  0.69129  0  3.839193  0  0  0.63379  0  4.15187  0  0  0.666819  0  4.143584  0  1.617516  0  0.228225  0.611397  0  4.156897  0
C  C94  1  0.05813122  0.92415727  0.71984206  1  0  0.691416  0  3.838842  0  0  0.633849  0  4.151649  0  0  0.666878  0  4.143364  0  1.617464  0  0.228179  0.611453  0  4.156679  0
C  C95  1  0.55813275  0.57584451  0.28015837  1  0  0.691389  0  3.838969  0  0  0.633886  0  4.151657  0  0  0.666921  0  4.143366  0  1.617442  0  0.228227  0.61149  0  4.156685  0
C  C96  1  0.72882452  0.30692095  0.31642679  1  0  -0.081039  0  3.604073  0  0  -0.138603  0  3.865411  0  0  -0.135038  0  3.864852  0  0.340394  0  -0.058595  -0.141166  0  3.865963  0
C  C97  1  0.22882151  0.19308291  0.68356922  1  0  -0.081192  0  3.604287  0  0  -0.138598  0  3.865441  0  0  -0.135077  0  3.864936  0  0.339825  0  -0.058515  -0.141142  0  3.865972  0
C  C98  1  0.27117705  0.69308074  0.68356960  1  0  -0.081023  0  3.604214  0  0  -0.138596  0  3.865542  0  0  -0.135054  0  3.865002  0  0.340067  0  -0.05853  -0.141172  0  3.866108  0
C  C99  1  0.77117561  0.80691953  0.31643302  1  0  -0.081164  0  3.604315  0  0  -0.138614  0  3.865457  0  0  -0.135106  0  3.864983  0  0.339953  0  -0.058573  -0.141159  0  3.866001  0
C  C100  1  0.75362250  0.31667118  0.41378265  1  0  0.688276  0  3.900076  0  0  0.634748  0  4.207176  0  0  0.668134  0  4.197969  0  1.617982  0  0.227562  0.612057  0  4.212809  0
C  C101  1  0.25361949  0.18333420  0.58621370  1  0  0.688395  0  3.900361  0  0  0.634919  0  4.207299  0  0  0.668318  0  4.198092  0  1.618122  0  0.227646  0.612221  0  4.212935  0
C  C102  1  0.24637610  0.68333202  0.58621471  1  0  0.68833  0  3.900198  0  0  0.634827  0  4.207251  0  0  0.668217  0  4.198045  0  1.618359  0  0.227599  0.612137  0  4.21289  0
C  C103  1  0.74638060  0.81666674  0.41379011  1  0  0.688394  0  3.900448  0  0  0.634895  0  4.207427  0  0  0.668296  0  4.198221  0  1.6182  0  0.227651  0.612193  0  4.213059  0
O  O104  1  0.23131318  0.14742014  0.22725869  1  0  -0.29003  0  2.412745  0  0  -0.213764  0  2.646179  0  0  -0.230765  0  2.649832  0  -1.087813  0  -0.192856  -0.201577  0  2.643411  0
O  O105  1  0.73130729  0.35257617  0.77274135  1  0  -0.290051  0  2.412932  0  0  -0.213787  0  2.64635  0  0  -0.230795  0  2.650006  0  -1.087813  0  -0.192811  -0.201594  0  2.643576  0
O  O106  1  0.76869581  0.85257777  0.77274066  1  0  -0.290089  0  2.412912  0  0  -0.21385  0  2.64629  0  0  -0.230855  0  2.649952  0  -1.087853  0  -0.192841  -0.201657  0  2.643512  0
O  O107  1  0.26868834  0.64741948  0.22726003  1  0  -0.28998  0  2.412899  0  0  -0.213689  0  2.646298  0  0  -0.230691  0  2.649957  0  -1.08788  0  -0.192841  -0.201511  0  2.643528  0
O  O108  1  0.43443240  0.07401951  0.37508521  1  0  -0.850675  0  1.893648  0  0  -0.798363  0  2.080723  0  0  -0.817608  0  2.047539  0  -1.279795  0  -0.586733  -0.784687  0  2.103999  0
O  O109  1  0.93442354  0.42598058  0.62491377  1  0  -0.850803  0  1.893603  0  0  -0.798573  0  2.080541  0  0  -0.817821  0  2.047357  0  -1.279897  0  -0.586836  -0.784888  0  2.103826  0
O  O110  1  0.56557363  0.92598142  0.62491544  1  0  -0.850695  0  1.893658  0  0  -0.798472  0  2.080619  0  0  -0.817715  0  2.047436  0  -1.279901  0  -0.586777  -0.78479  0  2.103901  0
O  O111  1  0.06557507  0.57401809  0.37508638  1  0  -0.850733  0  1.893643  0  0  -0.798512  0  2.080598  0  0  -0.817756  0  2.047412  0  -1.279866  0  -0.586808  -0.78483  0  2.103882  0
O  O112  1  0.99433665  0.12559831  0.35535758  1  0  -0.667459  0  2.03589  0  0  -0.603155  0  2.274365  0  0  -0.628623  0  2.264787  0  -1.204139  0  -0.344916  -0.585446  0  2.280631  0
O  O113  1  0.49431581  0.37440480  0.64464143  1  0  -0.667499  0  2.035844  0  0  -0.603187  0  2.274229  0  0  -0.628621  0  2.264631  0  -1.20409  0  -0.344931  -0.585468  0  2.280494  0
O  O114  1  0.00567087  0.87440036  0.64463877  1  0  -0.667459  0  2.035738  0  0  -0.603182  0  2.274169  0  0  -0.628608  0  2.264565  0  -1.204184  0  -0.344895  -0.585461  0  2.28043  0
O  O115  1  0.50567240  0.62559463  0.35536142  1  0  -0.667403  0  2.035815  0  0  -0.603122  0  2.274222  0  0  -0.628566  0  2.264631  0  -1.204169  0  -0.344902  -0.585402  0  2.280481  0
O  O116  1  0.21488415  0.38679075  0.30110473  1  0  -0.894294  0  1.77314  0  0  -0.845706  0  1.944691  0  0  -0.864103  0  1.914789  0  -1.314725  0  -0.641542  -0.832559  0  1.965526  0
O  O117  1  0.71487826  0.11321160  0.69889412  1  0  -0.894434  0  1.773015  0  0  -0.845797  0  1.944587  0  0  -0.864205  0  1.91471  0  -1.314724  0  -0.641551  -0.832644  0  1.965425  0
O  O118  1  0.78511742  0.61321018  0.69889845  1  0  -0.894379  0  1.773026  0  0  -0.845781  0  1.944685  0  0  -0.864157  0  1.914742  0  -1.314627  0  -0.641591  -0.832634  0  1.965519  0
O  O119  1  0.28513371  0.88678782  0.30110493  1  0  -0.894576  0  1.772794  0  0  -0.845919  0  1.944548  0  0  -0.864299  0  1.914611  0  -1.314663  0  -0.641609  -0.832771  0  1.965382  0
O  O120  1  0.78217730  0.02409862  0.26472276  1  0  -0.621311  0  2.009881  0  0  -0.557012  0  2.230734  0  0  -0.583313  0  2.220254  0  -1.195485  0  -0.302108  -0.538671  0  2.237301  0
O  O121  1  0.28216983  0.47590147  0.73527937  1  0  -0.621294  0  2.009944  0  0  -0.557054  0  2.230787  0  0  -0.583359  0  2.220308  0  -1.19557  0  -0.30217  -0.538714  0  2.237363  0
O  O122  1  0.21782279  0.97589929  0.73527595  1  0  -0.621325  0  2.009971  0  0  -0.557014  0  2.230799  0  0  -0.583312  0  2.220326  0  -1.195498  0  -0.302116  -0.538681  0  2.237387  0
O  O123  1  0.71782877  0.52410098  0.26472287  1  0  -0.621342  0  2.009835  0  0  -0.557077  0  2.230673  0  0  -0.583375  0  2.220183  0  -1.195499  0  -0.302147  -0.538741  0  2.237257  0
O  O124  1  0.31533082  0.43048202  0.50800677  1  0  -0.871588  0  1.825383  0  0  -0.814338  0  2.005736  0  0  -0.833112  0  1.97593  0  -1.291353  0  -0.635398  -0.801012  0  2.026676  0
O  O125  1  0.81533235  0.06952034  0.49199461  1  0  -0.871553  0  1.825406  0  0  -0.814329  0  2.005731  0  0  -0.833099  0  1.975915  0  -1.291392  0  -0.635394  -0.800995  0  2.02667  0
O  O126  1  0.68466036  0.56951816  0.49199625  1  0  -0.871552  0  1.825407  0  0  -0.814319  0  2.0058  0  0  -0.833098  0  1.976003  0  -1.291461  0  -0.635399  -0.80099  0  2.026741  0
O  O127  1  0.18465289  0.93048060  0.50800288  1  0  -0.871516  0  1.825312  0  0  -0.814287  0  2.005742  0  0  -0.833066  0  1.975945  0  -1.29146  0  -0.635396  -0.80096  0  2.026685  0
O  O128  1  0.28717992  0.04372074  0.89719333  1  0  -0.566969  0  2.133432  0  0  -0.515351  0  2.362388  0  0  -0.539305  0  2.350691  0  -1.176981  0  -0.335715  -0.498703  0  2.369475  0
O  O129  1  0.78717996  0.45627558  0.10280291  1  0  -0.567208  0  2.133138  0  0  -0.515503  0  2.362103  0  0  -0.539472  0  2.350378  0  -1.176777  0  -0.335776  -0.498851  0  2.369194  0
O  O130  1  0.71281572  0.95627869  0.10280319  1  0  -0.567132  0  2.133296  0  0  -0.51548  0  2.362297  0  0  -0.539436  0  2.350562  0  -1.176871  0  -0.335768  -0.498837  0  2.369381  0
O  O131  1  0.21282013  0.54372158  0.89719880  1  0  -0.567364  0  2.13311  0  0  -0.515645  0  2.36205  0  0  -0.539601  0  2.350307  0  -1.176932  0  -0.335806  -0.498993  0  2.369147  0
O  O132  1  0.57488252  0.11315342  0.86591452  1  0  -0.59525  0  1.945571  0  0  -0.548436  0  2.164251  0  0  -0.568197  0  2.153926  0  -1.191023  0  -0.303334  -0.534968  0  2.171268  0
O  O133  1  0.07487357  0.38684365  0.13408063  1  0  -0.595238  0  1.945801  0  0  -0.548384  0  2.164519  0  0  -0.568147  0  2.154188  0  -1.190194  0  -0.303249  -0.534913  0  2.171542  0
O  O134  1  0.42512796  0.88684676  0.13408470  1  0  -0.595296  0  1.945733  0  0  -0.548442  0  2.164457  0  0  -0.568208  0  2.154129  0  -1.190953  0  -0.303331  -0.534979  0  2.171471  0
O  O135  1  0.92512652  0.61315577  0.86591968  1  0  -0.595259  0  1.945673  0  0  -0.548428  0  2.164404  0  0  -0.568191  0  2.154082  0  -1.190135  0  -0.303253  -0.534957  0  2.171428  0
O  O136  1  0.56001116  0.24485214  0.28318746  1  0  -0.29027  0  2.45115  0  0  -0.211158  0  2.684761  0  0  -0.229839  0  2.688932  0  -1.109151  0  -0.194497  -0.19797  0  2.681588  0
O  O137  1  0.06000963  0.25515248  0.71681125  1  0  -0.290178  0  2.451217  0  0  -0.211219  0  2.684864  0  0  -0.229894  0  2.689058  0  -1.109237  0  -0.194544  -0.198033  0  2.681686  0
O  O138  1  0.43999190  0.75514804  0.71681050  1  0  -0.290245  0  2.451093  0  0  -0.211134  0  2.684752  0  0  -0.229783  0  2.688933  0  -1.10924  0  -0.194555  -0.197952  0  2.681573  0
O  O139  1  0.93999195  0.74484921  0.28319083  1  0  -0.290254  0  2.451167  0  0  -0.211142  0  2.684734  0  0  -0.229835  0  2.688942  0  -1.109299  0  -0.194499  -0.197961  0  2.681555  0
O  O140  1  0.62618019  0.27930702  0.45510081  1  0  -0.698676  0  2.008896  0  0  -0.633238  0  2.255273  0  0  -0.659233  0  2.245756  0  -1.221897  0  -0.371024  -0.615074  0  2.261402  0
O  O141  1  0.12617569  0.22069307  0.54489374  1  0  -0.69865  0  2.008943  0  0  -0.633297  0  2.255392  0  0  -0.659288  0  2.245866  0  -1.221881  0  -0.371035  -0.615133  0  2.261522  0
O  O142  1  0.37381545  0.72069694  0.54489544  1  0  -0.698672  0  2.009034  0  0  -0.633228  0  2.255389  0  0  -0.659223  0  2.245872  0  -1.22199  0  -0.370995  -0.615063  0  2.261518  0
O  O143  1  0.87381846  0.77930258  0.45510765  1  0  -0.6987  0  2.008995  0  0  -0.633316  0  2.255415  0  0  -0.65931  0  2.245894  0  -1.221991  0  -0.371043  -0.615143  0  2.261536  0
O  O144  1  0.90959289  0.36446339  0.44657952  1  0  -0.70021  0  1.993473  0  0  -0.634517  0  2.225278  0  0  -0.660434  0  2.213902  0  -1.221043  0  -0.33137  -0.616286  0  2.232639  0
O  O145  1  0.40959730  0.13554577  0.55341956  1  0  -0.700353  0  1.993682  0  0  -0.634665  0  2.225438  0  0  -0.660597  0  2.214064  0  -1.220905  0  -0.331464  -0.616402  0  2.232744  0
O  O146  1  0.09040275  0.63553754  0.55342176  1  0  -0.700264  0  1.993501  0  0  -0.634598  0  2.225301  0  0  -0.660522  0  2.213926  0  -1.22103  0  -0.331451  -0.616363  0  2.232659  0
O  O147  1  0.59040130  0.86445819  0.44658239  1  0  -0.700257  0  1.993588  0  0  -0.634567  0  2.22536  0  0  -0.660488  0  2.213979  0  -1.220974  0  -0.331436  -0.616349  0  2.23276  0
