# generated using pymatgen
data_Zr3H23C44Br5O16
_symmetry_space_group_name_H-M   'P 1'
_cell_length_a   19.20970353
_cell_length_b   19.16526363
_cell_length_c   19.18272236
_cell_angle_alpha   59.51215002
_cell_angle_beta   59.89354132
_cell_angle_gamma   59.98447403
_symmetry_Int_Tables_number   1
_chemical_formula_structural   Zr3H23C44Br5O16
_chemical_formula_sum   'Zr6 H46 C88 Br10 O32'
_cell_volume   4970.55925014
_cell_formula_units_Z   2
loop_
 _symmetry_equiv_pos_site_id
 _symmetry_equiv_pos_as_xyz
  1  'x, y, z'
loop_
 _atom_site_type_symbol
 _atom_site_label
 _atom_site_symmetry_multiplicity
 _atom_site_fract_x
 _atom_site_fract_y
 _atom_site_fract_z
 _atom_site_occupancy
 _atom_site_pbe_bader_charge
 _atom_site_pbe_bader_spin_density
 _atom_site_pbe_cm5_charge
 _atom_site_pbe_ddec_charge
 _atom_site_pbe_ddec_spin_density
 _atom_site_pbe_ddec_sum_bond_order
 _atom_site_pbe_magmom
Zr  Zr0  1  0.90724244  0.40852473  0.59143020  1  2.636013  0  1.625563  2.380951  0  2.757326  0
Zr  Zr1  1  0.09281561  0.59229790  0.40763254  1  2.637385  0  1.624986  2.380927  0  2.756254  0
Zr  Zr2  1  0.09103058  0.40629652  0.59381356  1  2.634852  0  1.620534  2.378468  0  2.738284  0
Zr  Zr3  1  0.90885812  0.59467184  0.40541866  1  2.63155  0  1.620573  2.378754  0  2.736712  0
Zr  Zr4  1  0.90819819  0.59223445  0.59140059  1  2.635129  0  1.625923  2.380389  0  2.760883  0
Zr  Zr5  1  0.09181211  0.40860134  0.40777442  1  2.634966  0  1.625408  2.379792  0  2.758622  0
H  H6  1  0.92659720  0.42629122  0.71820418  1  0.599983  0  0.331739  0.424049  0  0.855215  0
H  H7  1  0.92888824  0.71906164  0.42549903  1  0.59965  0  0.331647  0.42408  0  0.85355  0
H  H8  1  0.21721090  0.42713172  0.42806126  1  0.61983  0  0.330911  0.423435  0  0.855495  0
H  H9  1  0.92758064  0.42893283  0.42629819  1  0.610936  0  0.331142  0.423784  0  0.855356  0
H  H10  1  0.45502373  0.61331614  0.04568103  1  0.098842  0  0.100661  0.107917  0  1.034597  0
H  H11  1  0.54676551  0.38564386  0.95467488  1  0.066822  0  0.100533  0.108112  0  1.034217  0
H  H12  1  0.68125881  0.60723663  0.81496339  1  0.130096  0  0.103688  0.106818  0  1.028423  0
H  H13  1  0.55518140  0.61203830  0.94453802  1  0.048598  0  0.105176  0.109137  0  1.006461  0
H  H14  1  0.31554661  0.39672356  0.18083765  1  0.135044  0  0.103888  0.106799  0  1.027683  0
H  H15  1  0.44483638  0.38852885  0.05446794  1  0.049928  0  0.105021  0.10881  0  1.005851  0
H  H16  1  0.11319750  0.95506247  0.38560640  1  0.068988  0  0.100621  0.10827  0  1.033635  0
H  H17  1  0.88624180  0.04606104  0.61328026  1  0.072576  0  0.100516  0.107698  0  1.034836  0
H  H18  1  0.10701258  0.18134808  0.39633349  1  0.125909  0  0.103608  0.106696  0  1.028426  0
H  H19  1  0.11243392  0.05474768  0.38846156  1  0.01248  0  0.105369  0.109201  0  1.005969  0
H  H20  1  0.89675970  0.81535775  0.60685656  1  0.089631  0  0.103609  0.106268  0  1.02841  0
H  H21  1  0.88854611  0.94474487  0.61199497  1  0.053198  0  0.105071  0.108938  0  1.006083  0
H  H22  1  0.45327165  0.04732955  0.38627621  1  0.066505  0  0.100396  0.10776  0  1.034095  0
H  H23  1  0.54735357  0.95426075  0.61270970  1  0.074614  0  0.100147  0.107392  0  1.034449  0
H  H24  1  0.67850740  0.81565881  0.39805439  1  0.098029  0  0.10748  0.112662  0  1.011066  0
H  H25  1  0.55233499  0.94512783  0.38955849  1  0.04952  0  0.105004  0.107913  0  1.006883  0
H  H26  1  0.31694443  0.18113451  0.60586442  1  0.090944  0  0.108284  0.113452  0  1.007787  0
H  H27  1  0.44651469  0.05511340  0.61101340  1  0.047499  0  0.105252  0.108792  0  1.005481  0
H  H28  1  0.88539567  0.61279923  0.95398878  1  0.042287  0  0.100426  0.1079  0  1.033598  0
H  H29  1  0.11285667  0.38634018  0.04705643  1  0.081434  0  0.100166  0.107489  0  1.034117  0
H  H30  1  0.89595908  0.60623244  0.18051592  1  0.138543  0  0.108203  0.113242  0  1.007562  0
H  H31  1  0.88710415  0.61108442  0.05473942  1  0.045814  0  0.104981  0.107968  0  1.006485  0
H  H32  1  0.10761538  0.39839913  0.81508512  1  0.136034  0  0.107259  0.112367  0  1.010492  0
H  H33  1  0.11267435  0.38962775  0.94476522  1  0.05388  0  0.105085  0.108533  0  1.006435  0
H  H34  1  0.87877898  0.83271168  0.18843552  1  0.0601  0  0.102792  0.111827  0  1.007087  0
H  H35  1  0.12412838  0.80901193  0.16375381  1  0.107626  0  0.096541  0.103021  0  1.040398  0
H  H36  1  0.10003074  0.18929444  0.83189540  1  0.080999  0  0.103006  0.111641  0  1.00775  0
H  H37  1  0.90318368  0.16447382  0.80812402  1  0.08644  0  0.096091  0.102132  0  1.041492  0
H  H38  1  0.81379064  0.03512003  0.07409379  1  0.030476  0  0.096029  0.095456  0  0.964308  0
H  H39  1  0.81842963  0.94108553  0.07293929  1  0.045366  0  0.095461  0.09512  0  0.974432  0
H  H40  1  0.18791016  0.92594811  0.96467465  1  0.047747  0  0.096702  0.09702  0  0.96346  0
H  H41  1  0.18081516  0.92799397  0.05927542  1  0.046803  0  0.095462  0.096446  0  0.977928  0
H  H42  1  0.07692883  0.07501695  0.03426424  1  0.075789  0  0.096136  0.096032  0  0.964374  0
H  H43  1  0.16750763  0.07382451  0.94025057  1  0.009089  0  0.095848  0.095738  0  0.974906  0
H  H44  1  0.92148612  0.96543862  0.92508783  1  0.011082  0  0.09664  0.096844  0  0.963057  0
H  H45  1  0.83197542  0.06007372  0.92708613  1  0.031513  0  0.095431  0.096256  0  0.978623  0
H  H46  1  0.45458938  0.38510539  0.61388613  1  0.061623  0  0.100785  0.108307  0  1.03262  0
H  H47  1  0.54629577  0.61453040  0.38446012  1  0.09103  0  0.100573  0.108436  0  1.032818  0
H  H48  1  0.68085223  0.39782591  0.60594788  1  0.106584  0  0.104304  0.108135  0  1.025497  0
H  H49  1  0.55485987  0.38853579  0.61228767  1  0.022882  0  0.105213  0.108784  0  1.005716  0
H  H50  1  0.31549133  0.60669805  0.39700673  1  0.0961  0  0.104212  0.107555  0  1.026245  0
H  H51  1  0.44444143  0.61288327  0.38785252  1  0.070756  0  0.105174  0.109057  0  1.005562  0
C  C52  1  0.76318703  0.49977498  0.73139675  1  1.572736  0  0.233507  0.648301  0  4.098895  0
C  C53  1  0.00567176  0.73215139  0.49907632  1  1.567716  0  0.233299  0.647522  0  4.10254  0
C  C54  1  0.23272938  0.50532247  0.26328360  1  1.542827  0  0.233541  0.648732  0  4.09873  0
C  C55  1  0.99862084  0.26411660  0.50461352  1  1.5654  0  0.233612  0.648418  0  4.099661  0
C  C56  1  0.00192905  0.26209331  0.73387704  1  1.526915  0  0.234376  0.641702  0  4.085321  0
C  C57  1  0.76353704  0.50750684  0.49674513  1  1.580998  0  0.23309  0.646643  0  4.095129  0
C  C58  1  0.00207739  0.73473545  0.26124009  1  1.531135  0  0.234288  0.641916  0  4.086447  0
C  C59  1  0.23218870  0.49760139  0.50664941  1  1.571507  0  0.233258  0.646365  0  4.096466  0
C  C60  1  0.99867783  0.50521387  0.73240645  1  1.57207  0  0.233898  0.648197  0  4.102177  0
C  C61  1  0.23108235  0.26256722  0.50013209  1  1.57097  0  0.233646  0.647744  0  4.101506  0
C  C62  1  0.00622987  0.50078145  0.26178041  1  1.576767  0  0.233772  0.647687  0  4.098114  0
C  C63  1  0.76359604  0.73312355  0.50457683  1  1.575976  0  0.23334  0.647651  0  4.10144  0
C  C64  1  0.31099162  0.50798630  0.18568402  1  0.089972  0  -0.019501  -0.091611  0  3.922803  0
C  C65  1  0.68613551  0.49577114  0.81018354  1  0.049653  0  -0.019594  -0.090981  0  3.921077  0
C  C66  1  0.35251843  0.56873342  0.14553550  1  -0.129976  0  -0.003272  0.116432  0  3.914884  0
C  C67  1  0.42592674  0.56468384  0.07377189  1  0.034107  0  -0.096508  -0.191823  0  3.970993  0
C  C68  1  0.64636745  0.43326604  0.85193394  1  -0.136889  0  -0.003149  0.116906  0  3.913265  0
C  C69  1  0.57463798  0.43549652  0.92544862  1  0.070174  0  -0.095934  -0.190887  0  3.968833  0
C  C70  1  0.65046576  0.55905605  0.84673207  1  -0.059686  0  -0.077785  -0.06694  0  3.977407  0
C  C71  1  0.57924962  0.56121356  0.91986857  1  0.023601  0  -0.089374  -0.133443  0  3.968711  0
C  C72  1  0.34735568  0.44389766  0.14995249  1  -0.060499  0  -0.077643  -0.065884  0  3.976404  0
C  C73  1  0.42034401  0.43984947  0.07862112  1  -0.088909  0  -0.088442  -0.133145  0  3.966983  0
C  C74  1  0.46161485  0.50076964  0.03831913  1  -0.000818  0  0.002133  0.096971  0  3.969823  0
C  C75  1  0.53898100  0.49928557  0.96105647  1  -0.061692  0  0.002328  0.095638  0  3.971254  0
C  C76  1  0.00806280  0.81074713  0.49533243  1  0.03323  0  -0.019324  -0.09053  0  3.921871  0
C  C77  1  0.99540280  0.18633451  0.50752865  1  0.008561  0  -0.019246  -0.090771  0  3.921009  0
C  C78  1  0.06864030  0.85245466  0.43294135  1  -0.125524  0  -0.00295  0.116111  0  3.915218  0
C  C79  1  0.06467613  0.92583262  0.43537671  1  -0.010424  0  -0.096348  -0.190646  0  3.968528  0
C  C80  1  0.93334805  0.14611145  0.56839905  1  -0.099503  0  -0.003175  0.11621  0  3.913141  0
C  C81  1  0.93584517  0.07417643  0.56456729  1  -0.00899  0  -0.096063  -0.190495  0  3.969515  0
C  C82  1  0.05894445  0.15044602  0.44357993  1  0.007225  0  -0.077829  -0.066549  0  3.977811  0
C  C83  1  0.06141671  0.07897212  0.43971616  1  -0.016004  0  -0.089171  -0.133402  0  3.968318  0
C  C84  1  0.94396259  0.84714591  0.55875992  1  0.048558  0  -0.07753  -0.065702  0  3.976955  0
C  C85  1  0.93995087  0.92015254  0.56110929  1  -0.051063  0  -0.089236  -0.133532  0  3.968069  0
C  C86  1  0.00095183  0.96136245  0.49922778  1  0.002911  0  0.002106  0.095357  0  3.971864  0
C  C87  1  0.99955255  0.03864113  0.50070865  1  0.049352  0  0.002467  0.096295  0  3.970617  0
C  C88  1  0.31017708  0.18595330  0.49569162  1  0.065292  0  -0.019516  -0.093103  0  3.923303  0
C  C89  1  0.68565433  0.81092677  0.50797975  1  -0.009648  0  -0.019253  -0.090322  0  3.92266  0
C  C90  1  0.35117130  0.14658575  0.43348426  1  -0.159738  0  -0.002249  0.118242  0  3.911287  0
C  C91  1  0.42471126  0.07499225  0.43578464  1  0.07775  0  -0.096335  -0.191729  0  3.9691  0
C  C92  1  0.64646414  0.85198514  0.56845610  1  -0.134894  0  -0.002906  0.115877  0  3.913651  0
C  C93  1  0.57470804  0.92542284  0.56439160  1  0.071256  0  -0.095402  -0.190172  0  3.969091  0
C  C94  1  0.64864578  0.84753213  0.44457266  1  0.008787  0  -0.07747  -0.06805  0  3.980666  0
C  C95  1  0.57735468  0.92051439  0.44047439  1  -0.014648  0  -0.089095  -0.133123  0  3.971936  0
C  C96  1  0.34788610  0.15022234  0.55834510  1  -0.004538  0  -0.076583  -0.065086  0  3.976756  0
C  C97  1  0.42104945  0.07915675  0.56059434  1  -0.058227  0  -0.089644  -0.135729  0  3.970231  0
C  C98  1  0.46120115  0.03903289  0.49923842  1  0.011364  0  0.00283  0.096828  0  3.971198  0
C  C99  1  0.53827305  0.96156735  0.50084832  1  -0.052455  0  0.002351  0.096012  0  3.971866  0
C  C100  1  0.99530784  0.50836652  0.81038755  1  0.011004  0  -0.019485  -0.09078  0  3.922904  0
C  C101  1  0.00808767  0.49608667  0.18536475  1  -0.000597  0  -0.018757  -0.091009  0  3.922343  0
C  C102  1  0.93291510  0.56874399  0.85155622  1  -0.069212  0  -0.002178  0.117069  0  3.912742  0
C  C103  1  0.93523877  0.56455361  0.92508075  1  0.024105  0  -0.096495  -0.191705  0  3.968625  0
C  C104  1  0.06861228  0.43377437  0.14612347  1  -0.104541  0  -0.003087  0.116256  0  3.912919  0
C  C105  1  0.06428369  0.43590339  0.07465817  1  -0.007948  0  -0.095281  -0.190139  0  3.968901  0
C  C106  1  0.94339971  0.55862817  0.14970217  1  -0.066264  0  -0.076729  -0.065816  0  3.977327  0
C  C107  1  0.93896006  0.56070269  0.07877557  1  0.009848  0  -0.088695  -0.133527  0  3.970005  0
C  C108  1  0.05906802  0.44485391  0.84703193  1  -0.063998  0  -0.077512  -0.067454  0  3.979694  0
C  C109  1  0.06139556  0.44060877  0.92012765  1  -0.030073  0  -0.089246  -0.13438  0  3.971952  0
C  C110  1  0.99904872  0.50094387  0.96123312  1  0.051321  0  0.002512  0.096357  0  3.970326  0
C  C111  1  0.00026076  0.49930340  0.03871792  1  0.00115  0  0.002032  0.095382  0  3.970805  0
C  C112  1  0.85618411  0.98169291  0.04876383  1  -0.042302  0  -0.154068  -0.183289  0  3.981183  0
C  C113  1  0.14426932  0.95149793  0.01783511  1  -0.055233  0  -0.154807  -0.185178  0  3.978863  0
C  C114  1  0.11331685  0.04965461  0.98085643  1  0.003684  0  -0.154394  -0.184731  0  3.983848  0
C  C115  1  0.88644242  0.01861810  0.95061053  1  0.050188  0  -0.154386  -0.18452  0  3.979484  0
C  C116  1  0.93199317  0.85724519  0.15377694  1  -0.019816  0  -0.089223  -0.162308  0  3.970298  0
C  C117  1  0.93056919  0.93123527  0.08157143  1  0.01174  0  -0.007601  0.080533  0  3.963306  0
C  C118  1  0.07045437  0.84400136  0.13998736  1  -0.016558  0  -0.088563  -0.159219  0  3.965214  0
C  C119  1  0.07051093  0.91768732  0.06741167  1  -0.032709  0  -0.006242  0.083514  0  3.95381  0
C  C120  1  0.05697638  0.15460656  0.85638955  1  0.010336  0  -0.08942  -0.160361  0  3.972187  0
C  C121  1  0.05662115  0.08239472  0.93038919  1  -0.058323  0  -0.007962  0.079736  0  3.965248  0
C  C122  1  0.94562355  0.14073658  0.84311496  1  -0.021841  0  -0.088027  -0.157168  0  3.966621  0
C  C123  1  0.94446072  0.06815999  0.91680297  1  0.027634  0  -0.006768  0.082756  0  3.955382  0
C  C124  1  0.00161547  0.81325123  0.18340150  1  -0.038182  0  -0.023688  -0.035517  0  4.006244  0
C  C125  1  0.00035125  0.96160011  0.03779210  1  -0.085913  0  -0.00538  -0.019233  0  3.940609  0
C  C126  1  0.00176267  0.18419731  0.81237197  1  -0.057074  0  -0.023513  -0.037744  0  4.010501  0
C  C127  1  0.00028159  0.03858907  0.96074937  1  -0.023506  0  -0.005209  -0.019384  0  3.941867  0
C  C128  1  0.31062453  0.49433158  0.50895802  1  0.006911  0  -0.019489  -0.089831  0  3.916256  0
C  C129  1  0.68603199  0.50977305  0.49356969  1  0.002238  0  -0.019868  -0.090164  0  3.918232  0
C  C130  1  0.35227039  0.43205220  0.56963021  1  -0.082755  0  -0.003427  0.116523  0  3.915697  0
C  C131  1  0.42554068  0.43496036  0.56517404  1  0.005225  0  -0.096781  -0.190891  0  3.967187  0
C  C132  1  0.64594990  0.57039844  0.43132888  1  -0.11109  0  -0.003481  0.117494  0  3.914861  0
C  C133  1  0.57422440  0.56587117  0.43430311  1  -0.001249  0  -0.096678  -0.191646  0  3.966081  0
C  C134  1  0.65010802  0.44509843  0.55772292  1  -0.022129  0  -0.077336  -0.067432  0  3.975725  0
C  C135  1  0.57886446  0.44046792  0.56072455  1  0.014762  0  -0.088986  -0.1322  0  3.965035  0
C  C136  1  0.34714829  0.55843023  0.44430006  1  0.007176  0  -0.077207  -0.066345  0  3.975625  0
C  C137  1  0.42001897  0.56134383  0.43975677  1  -0.071977  0  -0.089672  -0.133709  0  3.965629  0
C  C138  1  0.46127882  0.49938049  0.50076450  1  0.014446  0  0.003297  0.096645  0  3.966593  0
C  C139  1  0.53854066  0.50141768  0.49876425  1  0.05036  0  0.002804  0.095702  0  3.966044  0
Br  Br140  1  0.31636819  0.66157119  0.18153617  1  -0.046957  0  0.026076  -0.061713  0  1.445292  0
Br  Br141  1  0.68325910  0.33999277  0.81627481  1  -0.049788  0  0.022297  -0.064432  0  1.437341  0
Br  Br142  1  0.16063354  0.81690697  0.33960203  1  -0.049879  0  0.022495  -0.064022  0  1.437116  0
Br  Br143  1  0.84057127  0.18228878  0.66110799  1  -0.049412  0  0.026086  -0.061861  0  1.445839  0
Br  Br144  1  0.31429618  0.18342872  0.34075942  1  -0.051147  0  0.023131  -0.063695  0  1.440533  0
Br  Br145  1  0.68387503  0.81536906  0.66071834  1  -0.049883  0  0.02304  -0.063521  0  1.442105  0
Br  Br146  1  0.83986558  0.66107080  0.81497211  1  -0.055177  0  0.023429  -0.063163  0  1.441477  0
Br  Br147  1  0.16141135  0.34118852  0.18295543  1  -0.045555  0  0.023051  -0.063633  0  1.441126  0
Br  Br148  1  0.31624826  0.33821203  0.66296563  1  -0.052803  0  0.021253  -0.069664  0  1.412217  0
Br  Br149  1  0.68243272  0.66373415  0.33745434  1  -0.058492  0  0.021353  -0.069752  0  1.411577  0
O  O150  1  0.79471206  0.44288126  0.69792915  1  -1.178705  0  -0.365922  -0.623271  0  2.390703  0
O  O151  1  0.06443015  0.69879915  0.44207068  1  -1.18084  0  -0.366057  -0.623348  0  2.391352  0
O  O152  1  0.20068483  0.56295927  0.29595199  1  -1.173717  0  -0.365577  -0.62339  0  2.390601  0
O  O153  1  0.94025158  0.29693792  0.56210416  1  -1.182205  0  -0.36518  -0.623063  0  2.393346  0
O  O154  1  0.06068365  0.29384913  0.70360315  1  -1.190107  0  -0.368685  -0.631415  0  2.279939  0
O  O155  1  0.79632781  0.56596661  0.43847003  1  -1.186723  0  -0.364714  -0.625109  0  2.381162  0
O  O156  1  0.94186272  0.70443629  0.29298079  1  -1.184297  0  -0.368264  -0.63154  0  2.280753  0
O  O157  1  0.19912157  0.43941359  0.56516715  1  -1.185829  0  -0.364829  -0.624213  0  2.379957  0
O  O158  1  0.94120196  0.56350967  0.69906694  1  -1.183282  0  -0.366207  -0.622833  0  2.394514  0
O  O159  1  0.19842587  0.29562972  0.44198959  1  -1.1775  0  -0.365778  -0.621347  0  2.393717  0
O  O160  1  0.06397033  0.44267635  0.29486441  1  -1.175018  0  -0.366735  -0.6222  0  2.390535  0
O  O161  1  0.79627256  0.69987525  0.56273270  1  -1.171916  0  -0.366347  -0.622712  0  2.393851  0
O  O162  1  0.20242387  0.29036264  0.56070113  1  -1.1721  0  -0.34499  -0.611994  0  2.261078  0
O  O163  1  0.94662916  0.56147639  0.28942322  1  -1.186558  0  -0.344545  -0.611979  0  2.259719  0
O  O164  1  0.79284871  0.70616260  0.44326456  1  -1.175418  0  -0.344277  -0.610834  0  2.262951  0
O  O165  1  0.05771022  0.44395248  0.70537122  1  -1.1781  0  -0.344604  -0.61106  0  2.263605  0
O  O166  1  0.94335830  0.29308165  0.70241829  1  -1.186522  0  -0.352025  -0.615335  0  2.285685  0
O  O167  1  0.20446966  0.55769767  0.44550931  1  -1.173486  0  -0.344619  -0.609248  0  2.275048  0
O  O168  1  0.06112530  0.70328192  0.29222463  1  -1.18061  0  -0.352024  -0.615614  0  2.286512  0
O  O169  1  0.79228724  0.44642909  0.55686926  1  -1.183804  0  -0.344636  -0.60939  0  2.274469  0
O  O170  1  0.05855792  0.29324155  0.44419527  1  -1.17691  0  -0.34649  -0.611542  0  2.277104  0
O  O171  1  0.79294711  0.55897789  0.70361017  1  -1.174978  0  -0.346188  -0.610777  0  2.278858  0
O  O172  1  0.94447519  0.70437214  0.55823129  1  -1.175634  0  -0.346028  -0.610149  0  2.280592  0
O  O173  1  0.20405317  0.44491042  0.29244446  1  -1.170985  0  -0.345954  -0.611134  0  2.277192  0
O  O174  1  0.94815372  0.44978094  0.44665922  1  -1.236793  0  -0.694897  -1.067205  0  2.36309  0
O  O175  1  0.15542981  0.44751445  0.44889682  1  -1.249806  0  -0.694515  -1.067146  0  2.362416  0
O  O176  1  0.94880772  0.65689368  0.44692086  1  -1.225112  0  -0.694801  -1.067169  0  2.362244  0
O  O177  1  0.94737752  0.44777955  0.65603711  1  -1.227931  0  -0.695038  -1.066801  0  2.364634  0
O  O178  1  0.03834952  0.53759515  0.53852537  1  -1.198713  0  -0.790957  -1.147507  0  2.126506  0
O  O179  1  0.88557660  0.53939151  0.53671293  1  -1.197825  0  -0.791188  -1.147637  0  2.126583  0
O  O180  1  0.03865015  0.53951656  0.38418548  1  -1.194887  0  -0.791803  -1.148303  0  2.129458  0
O  O181  1  0.03766070  0.38501903  0.53867240  1  -1.195634  0  -0.791937  -1.148242  0  2.129418  0
