# generated using pymatgen
data_NiHC4O3
_symmetry_space_group_name_H-M   'P 1'
_cell_length_a   6.80031589
_cell_length_b   15.29616137
_cell_length_c   15.29597122
_cell_angle_alpha   117.85184025
_cell_angle_beta   98.52474836
_cell_angle_gamma   98.52398697
_symmetry_Int_Tables_number   1
_chemical_formula_structural   NiHC4O3
_chemical_formula_sum   'Ni6 H6 C24 O18'
_cell_volume   1347.49611160
_cell_formula_units_Z   6
loop_
 _symmetry_equiv_pos_site_id
 _symmetry_equiv_pos_as_xyz
  1  'x, y, z'
loop_
 _atom_site_type_symbol
 _atom_site_label
 _atom_site_symmetry_multiplicity
 _atom_site_fract_x
 _atom_site_fract_y
 _atom_site_fract_z
 _atom_site_occupancy
 _atom_site_hle17_ddec_charge
 _atom_site_hle17_ddec_spin_density
 _atom_site_hle17_ddec_sum_bond_order
 _atom_site_hle17_magmom
 _atom_site_hse06_10hf_ddec_charge
 _atom_site_hse06_10hf_ddec_spin_density
 _atom_site_hse06_10hf_ddec_sum_bond_order
 _atom_site_hse06_10hf_magmom
 _atom_site_hse06_ddec_charge
 _atom_site_hse06_ddec_spin_density
 _atom_site_hse06_ddec_sum_bond_order
 _atom_site_hse06_magmom
 _atom_site_pbe_cm5_charge
 _atom_site_pbe_ddec_charge
 _atom_site_pbe_ddec_spin_density
 _atom_site_pbe_ddec_sum_bond_order
 _atom_site_pbe_magmom
Ni  Ni0  1  0.82763414  0.41672437  0.69554471  1  0.991529  1.742402  1.751473  1.472  1.032038  1.825428  2.130522  1.629  1.132725  1.881606  2.054875  1.725  0.65693  0.938028  1.771308  2.206756  1.543
Ni  Ni1  1  0.41105140  0.27885066  0.58318079  1  0.992158  1.742901  1.751583  1.472  1.032311  1.825226  2.130684  1.629  1.133001  1.881265  2.054984  1.725  0.657062  0.938264  1.771104  2.206897  1.543
Ni  Ni2  1  0.13216775  0.30448699  0.72105340  1  0.991709  1.74311  1.752725  1.472  1.032119  1.825373  2.131887  1.629  1.132762  1.881406  2.05622  1.725  0.65703  0.938042  1.7713  2.208243  1.543
Ni  Ni3  1  0.13216074  0.72106585  0.30449130  1  0.991784  1.743123  1.752496  1.472  1.032204  1.825411  2.131653  1.629  1.132834  1.881439  2.055997  1.725  0.657089  0.938158  1.771323  2.208007  1.543
Ni  Ni4  1  0.41103724  0.58318316  0.27885558  1  0.992186  1.742844  1.751415  1.472  1.032347  1.825216  2.130537  1.629  1.13304  1.881262  2.054842  1.725  0.657062  0.938318  1.771024  2.206749  1.543
Ni  Ni5  1  0.82763660  0.69554579  0.41672761  1  0.991576  1.742424  1.751319  1.472  1.032128  1.825442  2.130326  1.629  1.132861  1.881613  2.054596  1.725  0.656955  0.938114  1.771337  2.206588  1.543
H  H6  1  0.72490650  0.47081337  0.47081329  1  0.143657  -0.003683  0.920969  -0.003  0.155223  -0.000265  0.977007  0.0  0.159132  -0.000245  0.97676  0.0  0.111615  0.152418  -0.000268  0.977436  0.0
H  H7  1  0.25398727  0.99995988  0.52918480  1  0.143922  -0.003631  0.920655  -0.003  0.155566  -0.000264  0.976592  0.0  0.159489  -0.000244  0.976313  0.0  0.11176  0.152771  -0.000267  0.976973  0.0
H  H8  1  0.25397365  0.52918894  0.99996228  1  0.143959  -0.00363  0.920648  -0.003  0.155611  -0.000264  0.976561  0.0  0.159534  -0.000244  0.976282  0.0  0.111763  0.152816  -0.000268  0.976944  0.0
H  H9  1  0.09075036  0.56402253  0.56402170  1  0.116977  0.000648  0.945522  0.001  0.124915  0.000158  1.006592  0.0  0.128208  4.9e-05  1.002755  0.0  0.113067  0.122472  0.000287  1.00954  0.001
H  H10  1  0.52660522  0.00008515  0.43579757  1  0.117053  0.000645  0.94596  0.001  0.125172  0.000156  1.006956  0.0  0.128442  4.8e-05  1.003154  0.0  0.113163  0.122793  0.000289  1.009839  0.001
H  H11  1  0.52659594  0.43581469  0.00009993  1  0.117144  0.000645  0.945854  0.001  0.125231  0.000157  1.006859  0.0  0.128502  4.9e-05  1.003054  0.0  0.113114  0.122796  0.000289  1.009804  0.001
C  C12  1  0.49706744  0.45454219  0.54912139  1  0.391765  -0.031918  3.818406  -0.027  0.386223  -0.001111  4.098396  -0.001  0.412862  -0.002529  4.113593  -0.001  0.093817  0.366965  0.001187  4.084742  0.0
C  C13  1  0.04250507  0.09460833  0.54543998  1  0.39163  -0.032368  3.81591  -0.027  0.386355  -0.001155  4.096254  -0.001  0.413026  -0.002544  4.111482  -0.001  0.094388  0.367093  0.001181  4.082515  0.0
C  C14  1  0.94771638  0.45091416  0.90543093  1  0.39295  -0.03172  3.814269  -0.026  0.386695  -0.001083  4.095381  -0.001  0.413338  -0.002493  4.110588  -0.001  0.094523  0.367434  0.001218  4.08169  0.0
C  C15  1  0.94773200  0.90543106  0.45091564  1  0.393087  -0.031756  3.813639  -0.026  0.386885  -0.001091  4.094718  -0.001  0.413512  -0.002498  4.109932  -0.001  0.094676  0.36763  0.001214  4.081031  0.0
C  C16  1  0.04249316  0.54544240  0.09460979  1  0.391238  -0.032356  3.815561  -0.027  0.385923  -0.001155  4.095896  -0.001  0.412591  -0.002543  4.111131  -0.001  0.094314  0.366654  0.001181  4.082176  0.0
C  C17  1  0.49709153  0.54911709  0.45454778  1  0.391883  -0.031924  3.817792  -0.027  0.386419  -0.001115  4.097689  -0.001  0.413047  -0.002533  4.112897  -0.001  0.093938  0.367161  0.001185  4.084042  0.0
C  C18  1  0.58679302  0.49260801  0.49261108  1  -0.290321  0.069813  3.611501  0.077  -0.338235  0.020056  3.881274  0.023  -0.360045  0.013309  3.902902  0.016  -0.119965  -0.322635  0.027637  3.866122  0.031
C  C19  1  0.09406867  0.99999402  0.50742911  1  -0.292034  0.068832  3.611209  0.076  -0.339236  0.019936  3.880888  0.023  -0.361011  0.013249  3.902506  0.016  -0.120526  -0.323474  0.027656  3.865545  0.031
C  C20  1  0.09405096  0.50742305  0.99998926  1  -0.291946  0.068801  3.611169  0.076  -0.339129  0.01993  3.880836  0.023  -0.360903  0.013244  3.90245  0.016  -0.120456  -0.32337  0.02765  3.865501  0.031
C  C21  1  0.31248507  0.48261680  0.57646626  1  -0.230841  0.042805  3.750745  0.052  -0.234084  0.012902  4.008285  0.017  -0.260404  0.008376  4.035106  0.011  -0.049201  -0.214609  0.018701  3.989221  0.023
C  C22  1  0.82979108  0.09389135  0.51728642  1  -0.228516  0.044043  3.74755  0.053  -0.232545  0.012991  4.007275  0.017  -0.258998  0.008401  4.034294  0.012  -0.048489  -0.212995  0.018741  3.988088  0.023
C  C23  1  0.73573241  0.42356202  0.90618672  1  -0.229724  0.043846  3.748194  0.053  -0.232502  0.012984  4.006705  0.017  -0.258865  0.0084  4.033611  0.012  -0.048793  -0.21306  0.018751  3.987672  0.023
C  C24  1  0.73570822  0.90617753  0.42355989  1  -0.229924  0.04388  3.748489  0.053  -0.232912  0.01299  4.006923  0.017  -0.259248  0.0084  4.033784  0.012  -0.048879  -0.213474  0.018762  3.987918  0.023
C  C25  1  0.82974721  0.51730080  0.09390362  1  -0.228413  0.043994  3.7478  0.053  -0.232263  0.012984  4.007245  0.017  -0.258713  0.008397  4.03426  0.012  -0.048541  -0.212724  0.01873  3.988063  0.023
C  C26  1  0.31245965  0.57646582  0.48261867  1  -0.230918  0.042802  3.750849  0.052  -0.234195  0.012903  4.008334  0.017  -0.260501  0.008375  4.035146  0.011  -0.049209  -0.21473  0.018702  3.989286  0.023
C  C27  1  0.18991363  0.44527063  0.62884420  1  0.695959  -0.014823  3.805432  -0.015  0.667275  1.9e-05  4.091308  -0.001  0.713897  -0.000489  4.081065  -0.001  0.226585  0.632263  -8.5e-05  4.095841  -0.002
C  C28  1  0.74460166  0.18364254  0.55464466  1  0.69533  -0.015111  3.80365  -0.015  0.665577  -8.6e-05  4.092132  -0.001  0.712217  -0.000556  4.081938  -0.001  0.225342  0.630538  -0.000114  4.096674  -0.002
C  C29  1  0.56076176  0.37122720  0.81639699  1  0.696512  -0.014842  3.8022  -0.015  0.666449  6e-05  4.090638  -0.001  0.71305  -0.000459  4.080507  -0.001  0.22638  0.631436  -9.5e-05  4.095123  -0.002
C  C30  1  0.56076487  0.81639163  0.37122706  1  0.696156  -0.014827  3.803302  -0.015  0.66665  6.2e-05  4.090879  -0.001  0.713234  -0.000457  4.080745  -0.001  0.22644  0.631651  -8.7e-05  4.095397  -0.002
C  C31  1  0.74460367  0.55465819  0.18364812  1  0.695865  -0.015105  3.803502  -0.015  0.666097  -8.6e-05  4.091885  -0.001  0.712736  -0.000556  4.08168  -0.001  0.225627  0.631062  -0.000111  4.096463  -0.002
C  C32  1  0.18991514  0.62885003  0.44527137  1  0.696133  -0.014807  3.806281  -0.015  0.667534  1.7e-05  4.091965  -0.001  0.714145  -0.000491  4.081721  -0.001  0.2266  0.632535  -8e-05  4.09652  -0.002
C  C33  1  0.23088396  0.54376014  0.54375702  1  -0.00063  -0.038771  3.74494  -0.026  -0.031784  -0.00531  3.997881  -0.003  -0.018755  -0.006249  4.017102  -0.003  -0.069592  -0.041191  -0.004712  3.98493  -0.002
C  C34  1  0.68694049  0.00004400  0.45613863  1  -0.001576  -0.039418  3.74602  -0.027  -0.032986  -0.005316  4.000094  -0.003  -0.019925  -0.006259  4.019391  -0.003  -0.07002  -0.042462  -0.004702  3.987108  -0.002
C  C35  1  0.68692446  0.45614623  0.00004850  1  -0.001961  -0.039383  3.746254  -0.027  -0.033374  -0.005316  4.000186  -0.003  -0.020301  -0.006262  4.019486  -0.003  -0.070033  -0.042813  -0.004703  3.987221  -0.002
O  O36  1  0.58234380  0.39123971  0.57027730  1  -0.617565  0.099269  2.121061  0.162  -0.624222  0.060087  2.432335  0.102  -0.675103  0.041871  2.419419  0.076  -0.332907  -0.578414  0.076482  2.438281  0.123
O  O37  1  0.19109035  0.17909645  0.60866736  1  -0.617668  0.099265  2.119275  0.162  -0.624651  0.060176  2.430635  0.102  -0.675554  0.04191  2.417708  0.076  -0.333357  -0.578837  0.076627  2.436606  0.123
O  O38  1  0.01166928  0.42975236  0.82094511  1  -0.61745  0.09956  2.117491  0.162  -0.624407  0.060173  2.429384  0.102  -0.675296  0.041906  2.416476  0.076  -0.333151  -0.578583  0.076566  2.435357  0.123
O  O39  1  0.01168709  0.82093996  0.42975607  1  -0.617505  0.099598  2.117366  0.162  -0.624515  0.060186  2.429275  0.102  -0.675417  0.041914  2.416366  0.076  -0.333225  -0.57869  0.07658  2.435263  0.123
O  O40  1  0.19108534  0.60867625  0.17910330  1  -0.617545  0.099248  2.119256  0.162  -0.624528  0.060161  2.430624  0.102  -0.675425  0.041901  2.417704  0.076  -0.333298  -0.578723  0.076611  2.436621  0.123
O  O41  1  0.58235288  0.57027988  0.39124396  1  -0.617728  0.099264  2.120725  0.162  -0.62443  0.060081  2.431978  0.102  -0.675318  0.041867  2.419061  0.076  -0.333027  -0.578621  0.07648  2.437941  0.123
O  O42  1  0.22579045  0.36834093  0.63769690  1  -0.641939  0.088441  2.322828  0.151  -0.628129  0.060179  2.63608  0.108  -0.683118  0.043128  2.620478  0.083  -0.311493  -0.579961  0.075787  2.643891  0.13
O  O43  1  0.85730752  0.26938418  0.63172156  1  -0.64097  0.088712  2.320486  0.151  -0.62703  0.060275  2.634362  0.108  -0.682027  0.043181  2.618751  0.083  -0.311146  -0.578885  0.075837  2.642259  0.13
O  O44  1  0.58775729  0.36237382  0.73061863  1  -0.641973  0.088303  2.320344  0.151  -0.628024  0.060103  2.634238  0.108  -0.682998  0.043056  2.618693  0.083  -0.311629  -0.579883  0.075731  2.64206  0.13
O  O45  1  0.58775233  0.73062945  0.36238551  1  -0.641914  0.088277  2.320571  0.151  -0.628164  0.060097  2.634226  0.108  -0.683139  0.043052  2.618674  0.083  -0.311706  -0.580026  0.07572  2.642082  0.13
O  O46  1  0.85731278  0.63173279  0.26939581  1  -0.641302  0.088719  2.320491  0.151  -0.627393  0.060279  2.634406  0.108  -0.682394  0.043185  2.61878  0.083  -0.311295  -0.579253  0.075842  2.642338  0.13
O  O47  1  0.22579292  0.63771066  0.36836141  1  -0.642022  0.088393  2.323126  0.151  -0.628209  0.06016  2.636286  0.108  -0.683183  0.043114  2.620683  0.083  -0.311432  -0.580058  0.07576  2.644135  0.13
O  O48  1  0.04473503  0.48487915  0.66077742  1  -0.574772  0.059103  2.038222  0.093  -0.554382  0.035168  2.299663  0.057  -0.59529  0.024747  2.281906  0.042  -0.301466  -0.520058  0.045053  2.311929  0.07
O  O49  1  0.55988920  0.17598361  0.51492792  1  -0.575221  0.05921  2.038486  0.093  -0.554374  0.035174  2.300806  0.057  -0.5953  0.024762  2.283044  0.042  -0.30097  -0.520042  0.045115  2.313106  0.07
O  O50  1  0.38364050  0.33931756  0.82409639  1  -0.57498  0.059424  2.037093  0.093  -0.554202  0.03529  2.299574  0.057  -0.59514  0.024834  2.281873  0.043  -0.301466  -0.519835  0.045187  2.311797  0.07
O  O51  1  0.38366835  0.82409925  0.33931964  1  -0.574716  0.059413  2.037161  0.093  -0.554113  0.035284  2.299351  0.057  -0.595045  0.024828  2.281664  0.043  -0.301448  -0.519751  0.04518  2.311593  0.07
O  O52  1  0.55989007  0.51495145  0.17599108  1  -0.575399  0.05922  2.03833  0.093  -0.554588  0.03518  2.300681  0.057  -0.595515  0.024767  2.282917  0.042  -0.30111  -0.520248  0.045126  2.312997  0.07
O  O53  1  0.04475989  0.66077843  0.48488228  1  -0.574688  0.059096  2.038561  0.093  -0.554339  0.035164  2.299936  0.057  -0.595254  0.024743  2.282184  0.042  -0.301404  -0.520007  0.045053  2.312197  0.07
