# generated using pymatgen
data_ZnH24C28(NO2)2
_symmetry_space_group_name_H-M   'P 1'
_cell_length_a   10.16276873
_cell_length_b   10.35924366
_cell_length_c   11.73058578
_cell_angle_alpha   87.58263767
_cell_angle_beta   73.98690791
_cell_angle_gamma   82.03228074
_symmetry_Int_Tables_number   1
_chemical_formula_structural   ZnH24C28(NO2)2
_chemical_formula_sum   'Zn2 H48 C56 N4 O8'
_cell_volume   1175.59121392
_cell_formula_units_Z   2
loop_
 _symmetry_equiv_pos_site_id
 _symmetry_equiv_pos_as_xyz
  1  'x, y, z'
loop_
 _atom_site_type_symbol
 _atom_site_label
 _atom_site_symmetry_multiplicity
 _atom_site_fract_x
 _atom_site_fract_y
 _atom_site_fract_z
 _atom_site_occupancy
 _atom_site_pbe_bader_spin_density
 _atom_site_pbe_cm5_charge
 _atom_site_pbe_ddec_charge
 _atom_site_pbe_ddec_spin_density
 _atom_site_pbe_ddec_sum_bond_order
 _atom_site_pbe_magmom
Zn  Zn0  1  0.59270428  0.60345724  0.60302872  1  0  0.681564  0.828413  0  2.319358  0
Zn  Zn1  1  0.40729726  0.39654718  0.39696973  1  0  0.681552  0.82836  0  2.319412  0
H  H2  1  0.62254338  0.38006834  0.77858017  1  0  0.120381  0.09302  0  0.994254  0
H  H3  1  0.37745359  0.61993217  0.22142035  1  0  0.120396  0.093014  0  0.994309  0
H  H4  1  0.75592372  0.15795315  0.76880235  1  0  0.102815  0.108546  0  1.04142  0
H  H5  1  0.24407427  0.84204736  0.23119793  1  0  0.102804  0.108536  0  1.041439  0
H  H6  1  0.04459178  0.28310964  0.45163311  1  0  0.109853  0.12804  0  1.017705  0
H  H7  1  0.95540752  0.71688893  0.54836692  1  0  0.109859  0.128038  0  1.017665  0
H  H8  1  0.89168014  0.49488499  0.47090197  1  0  0.116662  0.089526  0  1.02221  0
H  H9  1  0.10831799  0.50511455  0.52909746  1  0  0.11666  0.089532  0  1.022212  0
H  H10  1  0.43327855  0.16398155  0.56333537  1  0  0.116753  0.086936  0  1.008376  0
H  H11  1  0.56672266  0.83601800  0.43666503  1  0  0.11677  0.08693  0  1.008381  0
H  H12  1  0.61681927  0.99721814  0.60924894  1  0  0.109267  0.125578  0  1.009928  0
H  H13  1  0.38317989  0.00278140  0.39075109  1  0  0.109286  0.125596  0  1.009893  0
H  H14  1  0.91035306  0.15932643  0.31888463  1  0  0.10503  0.105783  0  1.036833  0
H  H15  1  0.08964508  0.84067311  0.68111479  1  0  0.105044  0.105791  0  1.03682  0
H  H16  1  0.71626605  0.31378566  0.28361285  1  0  0.119743  0.089014  0  1.00385  0
H  H17  1  0.28373194  0.68621485  0.71638743  1  0  0.119736  0.088997  0  1.003873  0
H  H18  1  0.96156504  0.00808476  0.66935006  1  0  0.099683  0.076481  0  1.011737  0
H  H19  1  0.03843412  0.99191478  0.33064997  1  0  0.099688  0.076498  0  1.011735  0
H  H20  1  0.84784240  0.89917801  0.56025076  1  0  0.104871  0.101492  0  1.027773  0
H  H21  1  0.15215560  0.10082250  0.43974951  1  0  0.104862  0.101489  0  1.027772  0
H  H22  1  0.80015046  0.91744438  0.76159451  1  0  0.093756  0.080614  0  1.071066  0
H  H23  1  0.19985032  0.08255809  0.23840674  1  0  0.093758  0.080604  0  1.071077  0
H  H24  1  0.83396907  0.03466816  0.93183643  1  0  0.092325  0.090144  0  1.010842  0
H  H25  1  0.16603083  0.96533333  0.06816506  1  0  0.092342  0.090221  0  1.01082  0
H  H26  1  0.50999712  0.85007599  0.16928486  1  0  0.095754  0.095386  0  1.013025  0
H  H27  1  0.49000497  0.14992452  0.83071614  1  0  0.095762  0.095398  0  1.013014  0
H  H28  1  0.47966217  0.73336492  0.99822454  1  0  0.10314  0.1045  0  0.994314  0
H  H29  1  0.52034122  0.26663365  0.00177707  1  0  0.103136  0.104509  0  0.994299  0
H  H30  1  0.65985128  0.96710409  0.24852890  1  0  0.088151  0.126223  0  1.012264  0
H  H31  1  0.34014774  0.03289642  0.75147198  1  0  0.088158  0.126228  0  1.012286  0
H  H32  1  0.63580264  0.11812565  0.17474163  1  0  0.092062  0.13706  0  1.024759  0
H  H33  1  0.36419740  0.88187487  0.82525986  1  0  0.092074  0.137066  0  1.024772  0
H  H34  1  0.80356350  0.03078498  0.15106399  1  0  0.085433  0.11884  0  1.0128  0
H  H35  1  0.19643640  0.96921650  0.84893750  1  0  0.085462  0.11888  0  1.012793  0
H  H36  1  0.37989233  0.51451453  0.85545567  1  0  0.102221  0.114748  0  1.037608  0
H  H37  1  0.62010757  0.48548696  0.14454412  1  0  0.102226  0.114749  0  1.037641  0
H  H38  1  0.23923019  0.48462173  0.06272271  1  0  0.09957  0.104699  0  0.992924  0
H  H39  1  0.76077013  0.51537683  0.93727793  1  0  0.099572  0.104684  0  0.992934  0
H  H40  1  0.99415166  0.24643688  0.93714342  1  0  0.093619  0.091819  0  1.009259  0
H  H41  1  0.00584866  0.75356169  0.06285466  1  0  0.093633  0.091869  0  1.009247  0
H  H42  1  0.13208100  0.28056582  0.72875010  1  0  0.096778  0.099107  0  1.018037  0
H  H43  1  0.86791774  0.71943665  0.27124908  1  0  0.09679  0.099132  0  1.017939  0
H  H44  1  0.94868767  0.43308766  0.16972944  1  0  0.086898  0.127393  0  1.059376  0
H  H45  1  0.05131163  0.56691091  0.83027060  1  0  0.086893  0.127379  0  1.059388  0
H  H46  1  0.08857689  0.32886460  0.20028499  1  0  0.089719  0.132022  0  1.016817  0
H  H47  1  0.91142138  0.67113397  0.79971444  1  0  0.08975  0.132071  0  1.016742  0
H  H48  1  0.96447658  0.26283959  0.14583246  1  0  0.084365  0.114944  0  1.024814  0
H  H49  1  0.03552286  0.73715800  0.85416757  1  0  0.08438  0.114965  0  1.024797  0
C  C50  1  0.71723820  0.35400677  0.70812344  1  0  0.048932  0.106158  0  3.94339  0
C  C51  1  0.28275994  0.64599277  0.29187598  1  0  0.048912  0.106121  0  3.94341  0
C  C52  1  0.79267438  0.23066546  0.70188836  1  0  -0.090222  -0.194419  0  3.950857  0
C  C53  1  0.20732463  0.76933506  0.29811082  1  0  -0.090203  -0.194371  0  3.950704  0
C  C54  1  0.90950442  0.19805440  0.60574764  1  0  0.008195  0.131963  0  3.948378  0
C  C55  1  0.09049241  0.80194709  0.39425459  1  0  0.008173  0.131932  0  3.948414  0
C  C56  1  0.95151930  0.29821141  0.52570263  1  0  -0.084372  -0.182844  0  3.93094  0
C  C57  1  0.04847943  0.70179107  0.47429484  1  0  -0.084367  -0.182791  0  3.931  0
C  C58  1  0.86847436  0.41847777  0.53718667  1  0  0.048647  0.09971  0  3.940487  0
C  C59  1  0.13152378  0.58152177  0.46281276  1  0  0.048688  0.099723  0  3.940434  0
C  C60  1  0.54087327  0.15828370  0.51138528  1  0  0.047807  0.098873  0  3.953139  0
C  C61  1  0.45912678  0.84171681  0.48861622  1  0  0.047761  0.098833  0  3.953202  0
C  C62  1  0.64272438  0.06686199  0.53675138  1  0  -0.084989  -0.187664  0  3.945146  0
C  C63  1  0.35727697  0.93313658  0.46324902  1  0  -0.084991  -0.187613  0  3.945081  0
C  C64  1  0.78030935  0.06520442  0.46943632  1  0  0.011304  0.142308  0  3.942207  0
C  C65  1  0.21968878  0.93479512  0.53056310  1  0  0.011292  0.142319  0  3.942147  0
C  C66  1  0.80631535  0.15452694  0.37544051  1  0  -0.086013  -0.18678  0  3.958536  0
C  C67  1  0.19368394  0.84547162  0.62455952  1  0  -0.086016  -0.186833  0  3.958544  0
C  C68  1  0.69843404  0.24243690  0.35542118  1  0  0.052514  0.1088  0  3.930303  0
C  C69  1  0.30156410  0.75756264  0.64457995  1  0  0.052566  0.108923  0  3.930295  0
C  C70  1  0.96777826  0.05738913  0.58375569  1  0  -0.069887  -0.063429  0  3.747224  0
C  C71  1  0.03222090  0.94261041  0.41624435  1  0  -0.069886  -0.063474  0  3.747339  0
C  C72  1  0.89210366  0.98132300  0.50859710  1  0  -0.073883  -0.085906  0  3.735003  0
C  C73  1  0.10789549  0.01867654  0.49140293  1  0  -0.073866  -0.08591  0  3.735017  0
C  C74  1  0.62788413  0.74349918  0.76744829  1  0  0.186683  0.543269  0  4.248943  0
C  C75  1  0.37211708  0.25650036  0.23255381  1  0  0.186618  0.543094  0  4.249003  0
C  C76  1  0.63826473  0.81901604  0.86944990  1  0  -0.026248  -0.051382  0  4.001159  0
C  C77  1  0.36173763  0.18098252  0.13055111  1  0  -0.02623  -0.051324  0  4.001114  0
C  C78  1  0.73663854  0.90523949  0.85165127  1  0  -0.093974  -0.102125  0  4.039851  0
C  C79  1  0.26336267  0.09476005  0.14834912  1  0  -0.094031  -0.102154  0  4.039849  0
C  C80  1  0.75487950  0.96946448  0.94659029  1  0  -0.100732  -0.161124  0  3.994137  0
C  C81  1  0.24512068  0.03053506  0.05341121  1  0  -0.100738  -0.161261  0  3.994197  0
C  C82  1  0.67388805  0.95037486  0.06252816  1  0  -0.001976  0.186192  0  3.967845  0
C  C83  1  0.32611404  0.04962566  0.93747199  1  0  -0.001934  0.186273  0  3.967754  0
C  C84  1  0.57325672  0.86637033  0.07957445  1  0  -0.090471  -0.141083  0  3.961987  0
C  C85  1  0.42674551  0.13362922  0.92042741  1  0  -0.09051  -0.141113  0  3.962005  0
C  C86  1  0.55563345  0.80117121  0.98459098  1  0  -0.077941  -0.071875  0  3.980828  0
C  C87  1  0.44437008  0.19882638  0.01541063  1  0  -0.077926  -0.071899  0  3.980838  0
C  C88  1  0.69434247  0.01965105  0.16461812  1  0  -0.243451  -0.424832  0  3.974488  0
C  C89  1  0.30565655  0.98034946  0.83538362  1  0  -0.243486  -0.424867  0  3.974489  0
C  C90  1  0.34916665  0.41683611  0.65460910  1  0  0.210548  0.578023  0  4.21331  0
C  C91  1  0.65083502  0.58316734  0.34538849  1  0  0.210442  0.577884  0  4.213342  0
C  C92  1  0.26525551  0.39819448  0.77920263  1  0  -0.032066  -0.071064  0  4.023363  0
C  C93  1  0.73474644  0.60180702  0.22079496  1  0  -0.032042  -0.070927  0  4.023242  0
C  C94  1  0.29479717  0.45622212  0.87372149  1  0  -0.088894  -0.10182  0  3.98337  0
C  C95  1  0.70520300  0.54377742  0.12627745  1  0  -0.088898  -0.101871  0  3.983376  0
C  C96  1  0.21554694  0.43961446  0.98948368  1  0  -0.089412  -0.134804  0  3.951438  0
C  C97  1  0.78445338  0.56038411  0.01051611  1  0  -0.0894  -0.134747  0  3.951398  0
C  C98  1  0.10710701  0.36331311  0.01437021  1  0  0.001422  0.188709  0  3.954253  0
C  C99  1  0.89289242  0.63668448  0.98562982  1  0  0.001401  0.188706  0  3.954191  0
C  C100  1  0.07855207  0.30577300  0.91921112  1  0  -0.09572  -0.150778  0  3.980874  0
C  C101  1  0.92144913  0.69422655  0.08078672  1  0  -0.09571  -0.150844  0  3.980764  0
C  C102  1  0.15546977  0.32368158  0.80286871  1  0  -0.090739  -0.091396  0  3.999581  0
C  C103  1  0.84453055  0.67631700  0.19712937  1  0  -0.090767  -0.091464  0  3.999474  0
C  C104  1  0.02292992  0.34559906  0.13937331  1  0  -0.245671  -0.425585  0  3.963116  0
C  C105  1  0.97706937  0.65439951  0.86062587  1  0  -0.245711  -0.425635  0  3.963058  0
N  N106  1  0.75117143  0.44571651  0.62432204  1  0  -0.318502  -0.226803  0  3.487773  0
N  N107  1  0.24882773  0.55428303  0.37567714  1  0  -0.318526  -0.226804  0  3.487753  0
N  N108  1  0.56777125  0.24628267  0.42319489  1  0  -0.31689  -0.228215  0  3.511282  0
N  N109  1  0.43222879  0.75371785  0.57680575  1  0  -0.316936  -0.228324  0  3.511411  0
O  O110  1  0.70515641  0.76193631  0.66361565  1  0  -0.3307  -0.574038  0  2.19074  0
O  O111  1  0.29484391  0.23806225  0.33638499  1  0  -0.33064  -0.573907  0  2.190688  0
O  O112  1  0.54150518  0.66046359  0.78667940  1  0  -0.329052  -0.567039  0  2.256008  0
O  O113  1  0.45849398  0.33953595  0.21332233  1  0  -0.32906  -0.566998  0  2.256004  0
O  O114  1  0.46322896  0.46065367  0.63780569  1  0  -0.325327  -0.575585  0  2.438872  0
O  O115  1  0.53676936  0.53935172  0.36219178  1  0  -0.325269  -0.57553  0  2.438808  0
O  O116  1  0.30059773  0.38368770  0.57173548  1  0  -0.319332  -0.553735  0  2.352299  0
O  O117  1  0.69940087  0.61631575  0.42826200  1  0  -0.319307  -0.553685  0  2.352362  0
