# generated using pymatgen
data_Co3P4H22C16(NO10)2
_symmetry_space_group_name_H-M   'P 1'
_cell_length_a   8.99243893
_cell_length_b   8.84662378
_cell_length_c   9.75239488
_cell_angle_alpha   101.80251496
_cell_angle_beta   108.64623965
_cell_angle_gamma   109.60362733
_symmetry_Int_Tables_number   1
_chemical_formula_structural   Co3P4H22C16(NO10)2
_chemical_formula_sum   'Co3 P4 H22 C16 N2 O20'
_cell_volume   648.86923615
_cell_formula_units_Z   1
loop_
 _symmetry_equiv_pos_site_id
 _symmetry_equiv_pos_as_xyz
  1  'x, y, z'
loop_
 _atom_site_type_symbol
 _atom_site_label
 _atom_site_symmetry_multiplicity
 _atom_site_fract_x
 _atom_site_fract_y
 _atom_site_fract_z
 _atom_site_occupancy
 _atom_site_hse06_10hf_ddec_charge
 _atom_site_hse06_10hf_ddec_spin_density
 _atom_site_hse06_10hf_ddec_sum_bond_order
 _atom_site_hse06_10hf_magmom
 _atom_site_hse06_ddec_charge
 _atom_site_hse06_ddec_spin_density
 _atom_site_hse06_ddec_sum_bond_order
 _atom_site_hse06_magmom
 _atom_site_pbe_cm5_charge
 _atom_site_pbe_ddec_charge
 _atom_site_pbe_ddec_spin_density
 _atom_site_pbe_ddec_sum_bond_order
 _atom_site_pbe_magmom
Co  Co0  1  0.25477010  0.24350731  0.52811523  1  1.086812  -2.864997  2.216003  -2.646  1.167305  -2.913915  2.143791  -2.724  0.635995  0.98261  -2.752328  2.302394  -2.526
Co  Co1  1  0.74521124  0.75649003  0.47187426  1  1.086799  -2.865028  2.21621  -2.646  1.167284  -2.913935  2.143995  -2.724  0.635959  0.982611  -2.752358  2.302587  -2.526
Co  Co2  1  0.99999906  0.99999674  0.00000078  1  1.048447  1.011215  2.558053  0.907  1.13142  1.038835  2.474894  0.926  0.613512  1.011138  0.829045  2.608439  0.743
P  P3  1  0.28005403  0.96403533  0.30295927  1  1.262371  0.002032  5.290274  0.004  1.314338  0.001553  5.252589  0.003  0.359212  1.227246  0.001359  5.308474  0.004
P  P4  1  0.71994889  0.03596830  0.69703975  1  1.262363  0.00203  5.29041  0.004  1.314325  0.001548  5.252729  0.003  0.359125  1.227234  0.001359  5.308622  0.004
P  P5  1  0.91528164  0.89388240  0.26051841  1  1.239931  -0.00493  5.3858  -0.002  1.293299  -0.003418  5.351391  -0.001  0.336923  1.198604  -0.006587  5.409449  -0.003
P  P6  1  0.08471733  0.10610975  0.73948052  1  1.239878  -0.004929  5.385756  -0.002  1.293244  -0.003417  5.351352  -0.001  0.336944  1.198552  -0.006585  5.409403  -0.003
H  H7  1  0.48570270  0.87795366  0.39046515  1  0.4127  0.000377  0.923515  0.0  0.42492  0.000388  0.90597  0.0  0.309677  0.405067  0.000239  0.934767  0.0
H  H8  1  0.51429845  0.12205388  0.60953711  1  0.412687  0.000376  0.923532  0.0  0.424906  0.000388  0.905988  0.0  0.309656  0.405054  0.000239  0.934783  0.0
H  H9  1  0.09251570  0.85151860  0.51818681  1  0.349048  -0.000103  0.996611  0.0  0.358957  -3.1e-05  0.985136  0.0  0.294586  0.343332  -0.000204  1.002326  0.0
H  H10  1  0.90748318  0.14848124  0.48181241  1  0.349069  -0.000103  0.996618  0.0  0.358978  -3.1e-05  0.985144  0.0  0.294597  0.343355  -0.000204  1.002331  0.0
H  H11  1  0.91730077  0.18689184  0.14122076  1  0.393522  -4.1e-05  0.889319  0.0  0.401323  -2.8e-05  0.88258  0.0  0.320747  0.389737  -4.6e-05  0.891273  0.0
H  H12  1  0.08268414  0.81309769  0.85876433  1  0.393532  -4.1e-05  0.889405  0.0  0.401338  -2.7e-05  0.88264  0.0  0.320686  0.389748  -4.6e-05  0.891363  0.0
H  H13  1  0.12159005  0.28272101  0.22027534  1  0.398027  0.000178  0.936593  0.0  0.409514  0.000242  0.920322  0.0  0.302933  0.392199  6e-05  0.944776  0.0
H  H14  1  0.87840416  0.71727888  0.77972353  1  0.398005  0.000178  0.936643  0.0  0.409491  0.000242  0.920373  0.0  0.302935  0.392177  6.1e-05  0.944826  0.0
H  H15  1  0.43756628  0.28137702  0.89092660  1  0.296261  0.000227  0.948204  0.0  0.305844  0.000247  0.940989  0.0  0.319355  0.288678  0.00023  0.954948  0.0
H  H16  1  0.56243621  0.71861514  0.10907646  1  0.296165  0.000227  0.948372  0.0  0.30575  0.000247  0.941157  0.0  0.319324  0.288583  0.000231  0.955113  0.0
H  H17  1  0.12086327  0.59130236  0.21137143  1  0.126999  3.8e-05  0.978624  0.0  0.128687  3.8e-05  0.977601  0.0  0.106619  0.126424  2.2e-05  0.97861  0.0
H  H18  1  0.87914490  0.40870253  0.78863039  1  0.127023  3.8e-05  0.978655  0.0  0.128706  3.8e-05  0.977639  0.0  0.10663  0.126448  2.2e-05  0.97864  0.0
H  H19  1  0.00865582  0.65727117  0.06691457  1  0.127944  -4.8e-05  1.019995  0.0  0.129804  -4.5e-05  1.019638  0.0  0.106962  0.12514  -4.6e-05  1.02149  0.0
H  H20  1  0.99134885  0.34273376  0.93308725  1  0.127883  -4.8e-05  1.020096  0.0  0.129745  -4.4e-05  1.019738  0.0  0.106951  0.125079  -4.6e-05  1.021593  0.0
H  H21  1  0.94931578  0.46027127  0.36653302  1  0.125659  4e-06  0.99352  0.0  0.128476  1.5e-05  0.990727  0.0  0.115845  0.124331  -1.1e-05  0.994539  0.0
H  H22  1  0.05069238  0.53973356  0.63346572  1  0.125679  4e-06  0.993451  0.0  0.128499  1.5e-05  0.990653  0.0  0.115858  0.124351  -1.1e-05  0.994472  0.0
H  H23  1  0.66127002  0.23688585  0.32203320  1  0.139747  9.7e-05  0.992045  0.0  0.143669  8.1e-05  0.990655  0.0  0.117389  0.136971  0.00014  0.993149  0.0
H  H24  1  0.33874287  0.76311644  0.67797060  1  0.13973  9.7e-05  0.992054  0.0  0.143654  8.1e-05  0.990661  0.0  0.11739  0.136952  0.00014  0.993162  0.0
H  H25  1  0.39971924  0.15339122  0.07302118  1  0.136474  -9.1e-05  1.034529  0.0  0.14069  -9.6e-05  1.030373  0.0  0.131369  0.132059  -7.3e-05  1.038207  0.0
H  H26  1  0.60029312  0.84660727  0.92698488  1  0.136469  -9.2e-05  1.034563  0.0  0.140687  -9.6e-05  1.030406  0.0  0.131396  0.132054  -7.3e-05  1.03824  0.0
H  H27  1  0.69594064  0.49159282  0.92130369  1  0.125926  -4.9e-05  0.995467  0.0  0.130055  -1.8e-05  0.991491  0.0  0.133797  0.122823  -8.1e-05  0.998759  0.0
H  H28  1  0.30405712  0.50840187  0.07869328  1  0.125935  -4.9e-05  0.995476  0.0  0.130065  -1.8e-05  0.991498  0.0  0.133812  0.122834  -8.1e-05  0.998768  0.0
C  C29  1  0.07989849  0.80632280  0.30254248  1  -0.180372  0.000268  3.933533  0.0  -0.190211  0.000341  3.946548  0.0  0.054137  -0.173344  0.000186  3.924587  0.0
C  C30  1  0.92010042  0.19367446  0.69745630  1  -0.180426  0.000268  3.93342  0.0  -0.190267  0.000342  3.946437  0.0  0.054126  -0.173397  0.000187  3.924478  0.0
C  C31  1  0.01783021  0.63426967  0.17495409  1  -0.237317  -2.6e-05  3.951205  0.0  -0.237591  6e-06  3.964713  0.0  -0.155567  -0.237519  -0.000122  3.944399  0.0
C  C32  1  0.98217680  0.36573522  0.82504739  1  -0.237278  -2.5e-05  3.951287  0.0  -0.237546  4e-06  3.964793  0.0  -0.155548  -0.237484  -0.000122  3.944485  0.0
C  C33  1  0.84847030  0.49783818  0.15047626  1  0.099957  -1.7e-05  3.950812  0.0  0.095701  -1.3e-05  3.973482  0.0  0.010037  0.101571  -8.6e-05  3.936709  0.0
C  C34  1  0.15153501  0.50216292  0.84952714  1  0.099989  -1.7e-05  3.950815  0.0  0.095734  -1.3e-05  3.973488  0.0  0.010002  0.101604  -8.7e-05  3.936712  0.0
C  C35  1  0.83375562  0.42077836  0.26105163  1  -0.077533  -0.000413  3.907449  0.0  -0.071457  -0.000254  3.921102  0.0  -0.053923  -0.080686  -0.00051  3.896077  0.0
C  C36  1  0.16624793  0.57922406  0.73895250  1  -0.077511  -0.000413  3.907191  0.0  -0.071436  -0.000254  3.920847  0.0  -0.053882  -0.080664  -0.00051  3.895818  0.0
C  C37  1  0.67407995  0.29594090  0.23618403  1  -0.121288  -0.000216  3.963354  0.0  -0.129925  -0.000179  3.983114  0.0  -0.071924  -0.114907  -7.9e-05  3.949321  0.0
C  C38  1  0.32593293  0.70406136  0.76381770  1  -0.121256  -0.000216  3.963253  0.0  -0.129891  -0.000179  3.983018  0.0  -0.071934  -0.114873  -7.9e-05  3.949217  0.0
C  C39  1  0.52963230  0.24684537  0.09975005  1  0.099345  -6e-05  3.8182  0.0  0.10924  -3.7e-05  3.831457  0.0  0.068543  0.092492  7.6e-05  3.810204  0.0
C  C40  1  0.47037946  0.75315174  0.90024943  1  0.099225  -6e-05  3.818212  0.0  0.109112  -3.6e-05  3.831479  0.0  0.068432  0.092367  7.6e-05  3.810219  0.0
C  C41  1  0.69957721  0.44243415  0.01541896  1  0.057791  8.2e-05  3.787321  0.0  0.065542  0.000139  3.801233  0.0  0.072671  0.052464  0.000162  3.77827  0.0
C  C42  1  0.30042403  0.55756572  0.98458404  1  0.057758  8.2e-05  3.787229  0.0  0.065507  0.000139  3.801142  0.0  0.072671  0.052428  0.000162  3.778179  0.0
C  C43  1  0.43018302  0.48476756  0.42145371  1  0.506222  -9.8e-05  4.1688  0.001  0.537889  0.000296  4.16299  0.001  0.217077  0.480941  0.002562  4.176981  0.004
C  C44  1  0.56979606  0.51523265  0.57855201  1  0.506097  -9.9e-05  4.168977  0.001  0.537756  0.000296  4.163172  0.001  0.21686  0.480822  0.00256  4.177153  0.004
N  N45  1  0.54735799  0.32055360  0.99436943  1  -0.114921  -5.9e-05  3.674365  0.0  -0.129832  -7.1e-05  3.689426  0.0  -0.331697  -0.105221  5.4e-05  3.664994  0.0
N  N46  1  0.45265142  0.67944617  0.00563393  1  -0.114735  -5.9e-05  3.674083  0.0  -0.129644  -7.1e-05  3.689147  0.0  -0.331623  -0.105033  5.5e-05  3.664713  0.0
O  O47  1  0.39749025  0.86921703  0.28786893  1  -0.650488  -0.001292  2.227101  -0.003  -0.672235  -0.00072  2.202318  -0.002  -0.382105  -0.635347  -0.001856  2.245306  -0.004
O  O48  1  0.60251096  0.13078275  0.71212892  1  -0.650461  -0.001292  2.22714  -0.003  -0.672202  -0.000722  2.202355  -0.002  -0.382074  -0.635323  -0.001857  2.245344  -0.004
O  O49  1  0.23271378  0.02366423  0.16788698  1  -0.758894  0.019999  2.330616  0.026  -0.789601  0.018712  2.308017  0.024  -0.352654  -0.729168  0.017125  2.335698  0.022
O  O50  1  0.76728562  0.97633938  0.83210895  1  -0.758897  0.019997  2.33078  0.026  -0.789611  0.018715  2.308197  0.024  -0.352593  -0.729147  0.017124  2.335814  0.022
O  O51  1  0.37712658  0.10902793  0.46310207  1  -0.786687  -0.030194  2.419274  -0.046  -0.824446  -0.023432  2.397852  -0.034  -0.36563  -0.754132  -0.034306  2.435355  -0.052
O  O52  1  0.62288328  0.89098069  0.53689475  1  -0.786682  -0.0302  2.419312  -0.046  -0.824441  -0.023437  2.397888  -0.034  -0.365637  -0.754143  -0.034311  2.435429  -0.052
O  O53  1  0.00214080  0.07871026  0.37674465  1  -0.80813  -0.027918  2.420558  -0.039  -0.841867  -0.023148  2.395526  -0.031  -0.370929  -0.779649  -0.029805  2.441187  -0.041
O  O54  1  0.99785054  0.92128321  0.62325123  1  -0.808114  -0.027912  2.420544  -0.039  -0.841848  -0.023144  2.395514  -0.031  -0.370923  -0.779637  -0.029797  2.44118  -0.041
O  O55  1  0.75345302  0.77878556  0.27753374  1  -0.769284  -0.033535  2.363878  -0.045  -0.807364  -0.026333  2.342423  -0.034  -0.3698  -0.73455  -0.037062  2.382305  -0.05
O  O56  1  0.24654886  0.22121052  0.72247289  1  -0.769325  -0.033532  2.363735  -0.045  -0.8074  -0.02633  2.342284  -0.034  -0.369841  -0.734594  -0.037059  2.38216  -0.05
O  O57  1  0.85512365  0.88270065  0.09138543  1  -0.745842  -0.006606  2.380441  -0.014  -0.785545  -0.004271  2.361957  -0.011  -0.36174  -0.712678  -0.007993  2.389835  -0.016
O  O58  1  0.14487876  0.11729921  0.90861791  1  -0.745778  -0.006608  2.380334  -0.014  -0.785485  -0.004272  2.361844  -0.011  -0.361718  -0.712609  -0.007994  2.389723  -0.016
O  O59  1  0.12081754  0.77930570  0.44679791  1  -0.477696  -0.001823  2.320539  -0.003  -0.492958  -0.001188  2.313059  -0.002  -0.385507  -0.463657  -0.002709  2.321463  -0.004
O  O60  1  0.87918308  0.22069541  0.55320205  1  -0.477711  -0.001824  2.320563  -0.003  -0.492974  -0.001189  2.313082  -0.002  -0.385519  -0.463671  -0.00271  2.321488  -0.004
O  O61  1  0.27243509  0.39034369  0.39533513  1  -0.555253  -0.030252  2.404858  -0.043  -0.59081  -0.024012  2.392  -0.033  -0.302029  -0.531818  -0.033294  2.421024  -0.048
O  O62  1  0.72754930  0.60964736  0.60466340  1  -0.555196  -0.03025  2.404702  -0.043  -0.59075  -0.02401  2.391848  -0.033  -0.301861  -0.531766  -0.033292  2.420866  -0.048
O  O63  1  0.47704737  0.55183332  0.33212591  1  -0.496431  -0.025434  2.286037  -0.044  -0.524834  -0.02017  2.276666  -0.036  -0.27668  -0.47849  -0.028421  2.297769  -0.049
O  O64  1  0.52293573  0.44817066  0.66787859  1  -0.496423  -0.025431  2.286098  -0.044  -0.524834  -0.020168  2.276753  -0.036  -0.276716  -0.478484  -0.028419  2.297823  -0.049
O  O65  1  0.01805239  0.22028233  0.11659158  1  -0.728732  -0.000693  2.2612  -0.002  -0.762189  -8.9e-05  2.235668  -0.001  -0.540362  -0.697006  -0.00111  2.27043  -0.003
O  O66  1  0.98194003  0.77971880  0.88340391  1  -0.728808  -0.000693  2.261273  -0.002  -0.762261  -8.9e-05  2.235741  -0.001  -0.540329  -0.697085  -0.001109  2.270504  -0.003
