# generated using pymatgen
data_NiH32C38(N6Cl)2
_symmetry_space_group_name_H-M   'P 1'
_cell_length_a   13.60007621
_cell_length_b   13.78005384
_cell_length_c   13.78004000
_cell_angle_alpha   97.99797774
_cell_angle_beta   115.57450359
_cell_angle_gamma   115.57447887
_symmetry_Int_Tables_number   1
_chemical_formula_structural   NiH32C38(N6Cl)2
_chemical_formula_sum   'Ni2 H64 C76 N24 Cl4'
_cell_volume   1925.80247606
_cell_formula_units_Z   2
loop_
 _symmetry_equiv_pos_site_id
 _symmetry_equiv_pos_as_xyz
  1  'x, y, z'
loop_
 _atom_site_type_symbol
 _atom_site_label
 _atom_site_symmetry_multiplicity
 _atom_site_fract_x
 _atom_site_fract_y
 _atom_site_fract_z
 _atom_site_occupancy
 _atom_site_pbe_bader_charge
 _atom_site_pbe_bader_spin_density
 _atom_site_pbe_cm5_charge
 _atom_site_pbe_ddec_charge
 _atom_site_pbe_ddec_spin_density
 _atom_site_pbe_ddec_sum_bond_order
 _atom_site_pbe_magmom
Ni  Ni0  1  0.00000000  0.00000000  0.00000000  1  1.064161  -1.506952  0.565364  0.614293  -1.772423  2.694733  -1.495
Ni  Ni1  1  0.49999970  0.99999938  0.99999958  1  1.064157  1.506919  0.56536  0.61427  1.772401  2.69472  1.495
H  H2  1  0.93689646  0.80408957  0.12151328  1  0.093338  -0.000129  0.128262  0.088553  4.1e-05  1.017362  0.0
H  H3  1  0.56310247  0.87848570  0.19590818  1  0.093319  0.000128  0.128275  0.088574  -4.1e-05  1.017331  0.0
H  H4  1  0.06310440  0.19590936  0.87848749  1  0.093323  -0.000129  0.128271  0.088566  4.1e-05  1.017339  0.0
H  H5  1  0.43689728  0.12151410  0.80409224  1  0.093276  0.000128  0.128275  0.088591  -4.1e-05  1.017321  0.0
H  H6  1  0.13871848  0.86388440  0.95188824  1  0.215748  0.000129  0.123729  0.113671  0.000349  1.052586  0.0
H  H7  1  0.36128419  0.04811310  0.13611681  1  0.215739  -0.000129  0.123747  0.113707  -0.00035  1.052569  0.0
H  H8  1  0.86128126  0.13611540  0.04811073  1  0.215757  0.000129  0.123737  0.113693  0.000349  1.052596  0.0
H  H9  1  0.63871638  0.95188671  0.86388396  1  0.215744  -0.000129  0.123757  0.11371  -0.00035  1.05255  0.0
H  H10  1  0.20136108  0.66770323  0.18259731  1  0.083063  -3.1e-05  0.107143  0.112886  -2.3e-05  1.030039  0.0
H  H11  1  0.29863734  0.81740190  0.33229443  1  0.082861  3.1e-05  0.107145  0.112864  2.3e-05  1.03006  0.0
H  H12  1  0.79863867  0.33229657  0.81740239  1  0.083041  -3.1e-05  0.107141  0.112856  -2.3e-05  1.030068  0.0
H  H13  1  0.70136242  0.18259790  0.66770599  1  0.082873  3.1e-05  0.107143  0.112876  2.3e-05  1.030037  0.0
H  H14  1  0.16104747  0.54538349  0.80114937  1  0.072698  9e-06  0.103245  0.104381  1.1e-05  1.004195  0.0
H  H15  1  0.33895408  0.19885043  0.45461679  1  0.07273  -9e-06  0.103264  0.104383  -1.1e-05  1.004201  0.0
H  H16  1  0.83895256  0.45461543  0.19884960  1  0.072761  9e-06  0.103253  0.104354  1.1e-05  1.004238  0.0
H  H17  1  0.66104567  0.80114937  0.54538436  1  0.072716  -9e-06  0.103265  0.104392  -1.1e-05  1.0042  0.0
H  H18  1  0.07822274  0.66712776  0.83727061  1  0.08069  0.000379  0.104223  0.117691  0.000315  1.008457  0.0
H  H19  1  0.42177660  0.16272814  0.33287156  1  0.080716  -0.000379  0.104229  0.11768  -0.000315  1.008447  0.0
H  H20  1  0.92177618  0.33287204  0.16272801  1  0.080668  0.000379  0.104235  0.117693  0.000315  1.008449  0.0
H  H21  1  0.57822397  0.83727166  0.66712921  1  0.080817  -0.000379  0.104229  0.117671  -0.000315  1.008457  0.0
H  H22  1  0.51071402  0.61991048  0.33184246  1  0.003116  -4e-06  0.086402  0.119288  7e-06  1.002043  0.0
H  H23  1  0.98928629  0.66815906  0.38009060  1  0.003112  4e-06  0.086406  0.119287  -7e-06  1.002046  0.0
H  H24  1  0.48928516  0.38009107  0.66815869  1  0.003091  -4e-06  0.086408  0.119298  7e-06  1.002048  0.0
H  H25  1  0.01071293  0.33183986  0.61990875  1  0.003119  4e-06  0.086405  0.119287  -7e-06  1.002066  0.0
H  H26  1  0.43831319  0.70265589  0.32335841  1  0.040989  2.3e-05  0.087875  0.124584  2e-05  1.022679  0.0
H  H27  1  0.06168564  0.67664204  0.29734337  1  0.040959  -2.3e-05  0.087869  0.12458  -2e-05  1.022665  0.0
H  H28  1  0.56168411  0.29734389  0.67664098  1  0.040975  2.3e-05  0.087867  0.124578  2e-05  1.022711  0.0
H  H29  1  0.93831493  0.32335777  0.70265667  1  0.04097  -2.3e-05  0.087862  0.124578  -2e-05  1.02269  0.0
H  H30  1  0.51140356  0.70300205  0.24374772  1  0.020467  -2e-06  0.0834  0.114479  4e-06  1.032538  0.0
H  H31  1  0.98859720  0.75625300  0.29699940  1  0.02048  2e-06  0.083403  0.114486  -4e-06  1.03255  0.0
H  H32  1  0.48859643  0.29699950  0.75625305  1  0.020459  -2e-06  0.0834  0.11448  4e-06  1.032533  0.0
H  H33  1  0.01140230  0.24374505  0.70299995  1  0.020475  2e-06  0.083401  0.114476  -4e-06  1.032544  0.0
H  H34  1  0.15450162  0.38282701  0.13992451  1  0.060371  5e-05  0.08739  0.120936  4.1e-05  1.052803  0.0
H  H35  1  0.34550110  0.86007568  0.61717290  1  0.060324  -5e-05  0.087391  0.120934  -4.1e-05  1.052809  0.0
H  H36  1  0.84549895  0.61717280  0.86007480  1  0.060388  5e-05  0.087387  0.120918  4.1e-05  1.052823  0.0
H  H37  1  0.65449947  0.13992413  0.38282787  1  0.060332  -5e-05  0.087387  0.120917  -4.1e-05  1.052815  0.0
H  H38  1  0.22227411  0.51149176  0.25939894  1  0.02289  -1e-06  0.087273  0.122874  -6e-06  0.999246  0.0
H  H39  1  0.27772786  0.74060156  0.48850751  1  0.022836  1e-06  0.087293  0.122914  6e-06  0.999234  0.0
H  H40  1  0.77772511  0.48850716  0.74060041  1  0.02288  -1e-06  0.087284  0.122896  -6e-06  0.999225  0.0
H  H41  1  0.72227271  0.25939824  0.51149326  1  0.022775  1e-06  0.087278  0.122887  6e-06  0.999254  0.0
H  H42  1  0.30415672  0.43746519  0.27357147  1  0.018647  -1.4e-05  0.088011  0.123124  -4e-06  0.999201  0.0
H  H43  1  0.19584641  0.72642900  0.56253541  1  0.018646  1.4e-05  0.088006  0.123118  4e-06  0.999231  0.0
H  H44  1  0.69584302  0.56253461  0.72642750  1  0.018641  -1.4e-05  0.088021  0.123141  -4e-06  0.999145  0.0
H  H45  1  0.80415498  0.27357081  0.43746570  1  0.018691  1.4e-05  0.088016  0.123132  4e-06  0.999213  0.0
H  H46  1  0.44965377  0.41049017  0.20677366  1  0.108333  -0.000433  0.10851  0.122663  -0.000318  1.001365  0.0
H  H47  1  0.05034386  0.79322546  0.58950772  1  0.108332  0.000433  0.108498  0.122651  0.000318  1.001364  0.0
H  H48  1  0.55034516  0.58950962  0.79322715  1  0.10843  -0.000433  0.10849  0.122646  -0.000318  1.001351  0.0
H  H49  1  0.94965426  0.20677433  0.41049201  1  0.108292  0.000433  0.108481  0.122623  0.000318  1.001368  0.0
H  H50  1  0.37414652  0.31360282  0.85960862  1  0.047194  1.3e-05  0.101264  0.106739  1.9e-05  1.022169  0.0
H  H51  1  0.12585464  0.14039132  0.68639694  1  0.047334  -1.3e-05  0.101237  0.106645  -1.9e-05  1.022156  0.0
H  H52  1  0.62585512  0.68639874  0.14039284  1  0.047187  1.3e-05  0.101256  0.10671  1.9e-05  1.022131  0.0
H  H53  1  0.87414564  0.85960935  0.31360310  1  0.047331  -1.3e-05  0.101264  0.106718  -1.9e-05  1.022123  0.0
H  H54  1  0.26124148  0.41854083  0.80740079  1  0.053499  2.3e-05  0.104362  0.109572  3.2e-05  1.000718  0.0
H  H55  1  0.23876114  0.19259934  0.58145982  1  0.053553  -2.3e-05  0.104334  0.109526  -3.2e-05  1.000704  0.0
H  H56  1  0.73876098  0.58146074  0.19260103  1  0.053542  2.3e-05  0.104356  0.109554  3.2e-05  1.000696  0.0
H  H57  1  0.76123942  0.80740047  0.41854022  1  0.053573  -2.3e-05  0.104368  0.109592  -3.2e-05  1.00068  0.0
H  H58  1  0.68847372  0.25162114  0.22886606  1  0.147221  0.000218  0.129404  0.10271  -2.6e-05  1.000631  0.0
H  H59  1  0.81152775  0.77113272  0.74837825  1  0.147117  -0.000219  0.129387  0.102715  2.6e-05  1.000622  0.0
H  H60  1  0.31152631  0.74837779  0.77113364  1  0.14722  0.000218  0.129403  0.102718  -2.6e-05  1.000638  0.0
H  H61  1  0.18847335  0.22886796  0.25162214  1  0.147123  -0.000219  0.12939  0.102747  2.6e-05  1.000596  0.0
H  H62  1  0.34865536  0.13287380  0.90679594  1  0.171004  0.000294  0.130729  0.10299  -4.4e-05  1.035806  0.0
H  H63  1  0.15134349  0.09320345  0.86712433  1  0.171141  -0.000294  0.130716  0.102977  4.4e-05  1.035828  0.0
H  H64  1  0.65134438  0.86712600  0.09320376  1  0.170997  0.000294  0.130733  0.102998  -4.4e-05  1.035818  0.0
H  H65  1  0.84865626  0.90679635  0.13287537  1  0.17116  -0.000294  0.130734  0.103009  4.4e-05  1.035795  0.0
C  C66  1  0.99180191  0.79858047  0.08537682  1  1.003112  0.001601  0.146316  0.144974  0.000602  3.983767  0.001
C  C67  1  0.50819890  0.91462304  0.20141979  1  1.003243  -0.0016  0.1463  0.144973  -0.000602  3.983676  -0.001
C  C68  1  0.00819865  0.20141934  0.91462322  1  1.003173  0.0016  0.146304  0.145006  0.000602  3.983619  0.001
C  C69  1  0.49180220  0.08537764  0.79858133  1  1.00329  -0.0016  0.146309  0.144977  -0.000602  3.98364  -0.001
C  C70  1  0.09033236  0.82969432  0.99643874  1  0.924596  0.003454  0.157798  0.083535  0.00169  3.857852  0.002
C  C71  1  0.40966846  0.00356260  0.17030630  1  0.924754  -0.003454  0.157818  0.083511  -0.00169  3.857638  -0.002
C  C72  1  0.90966685  0.17030461  0.00356061  1  0.924599  0.003454  0.157772  0.083502  0.00169  3.85776  0.002
C  C73  1  0.59033153  0.99643895  0.82969447  1  0.924832  -0.003454  0.157749  0.083477  -0.00169  3.857931  -0.002
C  C74  1  0.13589130  0.67295198  0.01163862  1  0.224211  -0.000734  0.095338  0.145869  -0.000507  4.008894  -0.001
C  C75  1  0.36410938  0.98836207  0.32704740  1  0.224362  0.000734  0.095319  0.145778  0.000507  4.008842  0.001
C  C76  1  0.86410927  0.32704782  0.98836215  1  0.224379  -0.000734  0.095341  0.145852  -0.000507  4.008858  -0.001
C  C77  1  0.63589254  0.01163862  0.67295406  1  0.224292  0.000734  0.095342  0.145831  0.000507  4.008883  0.001
C  C78  1  0.19517535  0.64102051  0.10096655  1  0.018189  -0.000183  -0.085289  -0.191891  -0.000143  3.960828  0.0
C  C79  1  0.30482416  0.89903128  0.35897893  1  0.018222  0.000183  -0.085291  -0.191845  0.000143  3.960705  0.0
C  C80  1  0.80482492  0.35898017  0.89903204  1  0.018216  -0.000183  -0.085295  -0.191848  -0.000143  3.960714  0.0
C  C81  1  0.69517588  0.10096765  0.64102222  1  0.018219  0.000183  -0.085289  -0.191862  0.000143  3.960745  0.0
C  C82  1  0.24569821  0.57736742  0.08238217  1  -0.000444  -0.000167  -8.3e-05  0.037708  -9.8e-05  3.881542  0.0
C  C83  1  0.25430375  0.91761871  0.42263461  1  -0.000288  0.000167  -4.1e-05  0.037768  9.8e-05  3.881538  0.0
C  C84  1  0.75430178  0.42263413  0.91761788  1  -0.000468  -0.000167  -5.3e-05  0.037744  -9.8e-05  3.881469  0.0
C  C85  1  0.74569735  0.08238197  0.57736724  1  -0.000318  0.000167  -5.8e-05  0.03773  9.8e-05  3.881539  0.0
C  C86  1  0.23248378  0.54155410  0.97393441  1  -0.017403  2.7e-05  -0.00964  0.018034  2e-05  4.01154  0.0
C  C87  1  0.26751952  0.02606599  0.45844731  1  -0.017685  -2.7e-05  -0.009624  0.018036  -2e-05  4.011593  0.0
C  C88  1  0.76751702  0.45844745  0.02606453  1  -0.017332  2.7e-05  -0.00963  0.018023  2e-05  4.011526  0.0
C  C89  1  0.73248076  0.97393469  0.54155273  1  -0.017736  -2.7e-05  -0.009593  0.01808  -2e-05  4.011473  0.0
C  C90  1  0.17129804  0.57254365  0.88483664  1  -0.044363  -5.5e-05  -0.085123  -0.094374  -3.9e-05  3.983861  0.0
C  C91  1  0.32870307  0.11516225  0.42745672  1  -0.044123  5.5e-05  -0.0851  -0.094328  3.9e-05  3.983927  0.0
C  C92  1  0.82870171  0.42745615  0.11516378  1  -0.044447  -5.5e-05  -0.085126  -0.094307  -3.9e-05  3.983755  0.0
C  C93  1  0.67129697  0.88483668  0.57254370  1  -0.044047  5.5e-05  -0.085167  -0.094414  3.9e-05  3.983848  0.0
C  C94  1  0.12377212  0.63969868  0.90433439  1  0.080577  0.0001  -0.088739  -0.161341  2.9e-05  3.98671  0.0
C  C95  1  0.37622730  0.09566312  0.36030062  1  0.080405  -0.0001  -0.088761  -0.161318  -2.9e-05  3.986728  0.0
C  C96  1  0.87622762  0.36030111  0.09566385  1  0.080459  0.0001  -0.088744  -0.161335  2.9e-05  3.986674  0.0
C  C97  1  0.62377327  0.90433668  0.63970088  1  0.080299  -0.0001  -0.088731  -0.161268  -2.9e-05  3.986722  0.0
C  C98  1  0.32239663  0.53971952  0.16791209  1  0.078974  -3e-06  -0.002794  0.169036  7e-06  3.824962  0.0
C  C99  1  0.17760505  0.83208786  0.46028116  1  0.078549  3e-06  -0.002797  0.16904  -7e-06  3.824988  0.0
C  C100  1  0.67760365  0.46028116  0.83208796  1  0.078675  -3e-06  -0.002803  0.169023  7e-06  3.824921  0.0
C  C101  1  0.82239552  0.16791195  0.53971961  1  0.078561  3e-06  -0.002794  0.169015  -7e-06  3.82503  0.0
C  C102  1  0.45358248  0.64789350  0.27314306  1  -0.043967  -1.1e-05  -0.237466  -0.408036  2e-06  3.893699  0.0
C  C103  1  0.04641767  0.72685755  0.35210700  1  -0.043932  1.1e-05  -0.237477  -0.40805  -2e-06  3.893721  0.0
C  C104  1  0.54641698  0.35210717  0.72685737  1  -0.04391  -1.1e-05  -0.23746  -0.408036  2e-06  3.893751  0.0
C  C105  1  0.95358208  0.27314225  0.64789269  1  -0.043933  1.1e-05  -0.237454  -0.408018  -2e-06  3.893775  0.0
C  C106  1  0.24574012  0.46293538  0.21252805  1  -0.067261  1.1e-05  -0.236766  -0.398914  1.6e-05  3.878086  0.0
C  C107  1  0.25426161  0.78747184  0.53706395  1  -0.06719  -1.1e-05  -0.236775  -0.398955  -1.5e-05  3.878142  0.0
C  C108  1  0.75425828  0.53706353  0.78747022  1  -0.067267  1.1e-05  -0.236765  -0.398928  1.6e-05  3.87805  0.0
C  C109  1  0.74573896  0.21252797  0.46293682  1  -0.067162  -1.1e-05  -0.236767  -0.398918  -1.6e-05  3.878121  0.0
C  C110  1  0.34501908  0.47211908  0.09161283  1  -0.024289  -0.000213  8.6e-05  0.034945  -7.4e-05  3.878278  0.0
C  C111  1  0.15498291  0.90838760  0.52788240  1  -0.02415  0.000213  0.000103  0.035028  7.4e-05  3.878202  0.0
C  C112  1  0.65498174  0.52788248  0.90838829  1  -0.024098  -0.000213  0.000124  0.034982  -7.4e-05  3.87825  0.0
C  C113  1  0.84501684  0.09161220  0.47211803  1  -0.023998  0.000213  0.000134  0.035042  7.4e-05  3.878172  0.0
C  C114  1  0.40864886  0.41470432  0.12116582  1  0.020267  -0.000209  -0.082883  -0.181522  -0.000207  3.957413  0.0
C  C115  1  0.09135010  0.87883373  0.58529350  1  0.020415  0.000209  -0.082901  -0.181602  0.000207  3.957437  0.0
C  C116  1  0.59135090  0.58529548  0.87883533  1  0.020319  -0.000209  -0.0829  -0.181535  -0.000207  3.957416  0.0
C  C117  1  0.90864830  0.12116518  0.41470477  1  0.020318  0.000209  -0.082876  -0.181527  0.000207  3.957394  0.0
C  C118  1  0.41619808  0.35677786  0.03535867  1  0.285469  0.000126  0.093683  0.139063  2.8e-05  4.039299  0.0
C  C119  1  0.08380118  0.96464195  0.64322122  1  0.285418  -0.000127  0.093696  0.139072  -2.8e-05  4.039389  0.0
C  C120  1  0.58380302  0.64322282  0.96464318  1  0.285432  0.000126  0.093651  0.138972  2.8e-05  4.039362  0.0
C  C121  1  0.91619800  0.03535959  0.35677848  1  0.285479  -0.000127  0.093669  0.13904  -2.8e-05  4.039283  0.0
C  C122  1  0.36221924  0.35622736  0.92265537  1  0.004565  0.000215  -0.097034  -0.183772  0.000162  4.024901  0.0
C  C123  1  0.13778005  0.07734243  0.64377032  1  0.004788  -0.000215  -0.097008  -0.183642  -0.000162  4.024876  0.0
C  C124  1  0.63778133  0.64377245  0.07734540  1  0.004303  0.000215  -0.097009  -0.183665  0.000162  4.024894  0.0
C  C125  1  0.86221916  0.92265649  0.35622903  1  0.00476  -0.000215  -0.097004  -0.183688  -0.000162  4.024796  0.0
C  C126  1  0.29924781  0.41516575  0.89363836  1  -0.033837  -0.000786  -0.090418  -0.109249  -0.000432  3.994165  0.0
C  C127  1  0.20075282  0.10636145  0.58483404  1  -0.034055  0.000786  -0.090399  -0.109222  0.000432  3.99409  0.0
C  C128  1  0.70075300  0.58483581  0.10636276  1  -0.033604  -0.000786  -0.090449  -0.109294  -0.000432  3.994175  0.0
C  C129  1  0.79924610  0.89363834  0.41516459  1  -0.034091  0.000786  -0.090428  -0.1093  0.000432  3.994156  0.0
C  C130  1  0.29100803  0.47349343  0.97850516  1  -0.015599  1.5e-05  -0.009798  0.020557  2.2e-05  4.003121  0.0
C  C131  1  0.20899380  0.02149514  0.52650812  1  -0.015588  -1.5e-05  -0.009811  0.020503  -2.2e-05  4.003058  0.0
C  C132  1  0.70899360  0.52650813  0.02149558  1  -0.015648  1.5e-05  -0.00981  0.020542  2.2e-05  4.003104  0.0
C  C133  1  0.79100513  0.97850465  0.47349196  1  -0.015596  -1.5e-05  -0.009857  0.020493  -2.2e-05  4.003066  0.0
C  C134  1  0.60750188  0.24960095  0.16020940  1  0.981688  -0.00182  0.14479  0.141943  -0.000807  3.986084  -0.001
C  C135  1  0.89249868  0.83978880  0.75039919  1  0.981809  0.00182  0.144813  0.14197  0.000807  3.986046  0.001
C  C136  1  0.39249786  0.75039885  0.83978957  1  0.98169  -0.00182  0.144767  0.141888  -0.000807  3.986049  -0.001
C  C137  1  0.10750054  0.16021012  0.24960089  1  0.981745  0.00182  0.144813  0.141907  0.000807  3.986044  0.001
C  C138  1  0.43732664  0.18829145  0.99353949  1  0.97528  -0.003854  0.158404  0.087448  -0.001991  3.893298  -0.002
C  C139  1  0.06267282  0.00645941  0.81170808  1  0.975282  0.003855  0.158386  0.087397  0.001992  3.893429  0.002
C  C140  1  0.56267446  0.81170923  0.00646163  1  0.975189  -0.003855  0.158393  0.087422  -0.001992  3.89327  -0.002
C  C141  1  0.93732775  0.99354040  0.18829197  1  0.975234  0.003855  0.158395  0.087411  0.001992  3.893344  0.002
N  N142  1  0.03001486  0.86731049  0.03007236  1  -1.176804  -0.064348  -0.337829  -0.289997  -0.040397  3.564058  -0.058
N  N143  1  0.46998743  0.96992885  0.13268993  1  -1.176869  0.064353  -0.337837  -0.289999  0.0404  3.563888  0.059
N  N144  1  0.96998571  0.13268932  0.96992768  1  -1.176891  -0.064349  -0.337797  -0.28999  -0.040398  3.563913  -0.058
N  N145  1  0.53001368  0.03007183  0.86731119  1  -1.176919  0.064353  -0.337812  -0.290032  0.0404  3.564021  0.058
N  N146  1  0.02531869  0.72130272  0.08898927  1  -0.668819  -0.005214  -0.220146  -0.263229  -0.003046  3.11772  -0.004
N  N147  1  0.47468143  0.91100986  0.27869636  1  -0.668902  0.005215  -0.220164  -0.263282  0.003046  3.117674  0.004
N  N148  1  0.97468187  0.27869708  0.91101005  1  -0.668826  -0.005214  -0.220166  -0.263284  -0.003046  3.117662  -0.004
N  N149  1  0.52531967  0.08899082  0.72130476  1  -0.668878  0.005214  -0.220143  -0.263233  0.003046  3.11765  0.004
N  N150  1  0.08741824  0.74161243  0.03099431  1  -0.857938  -0.001759  -0.121452  0.125848  -0.001086  3.761131  -0.001
N  N151  1  0.41258242  0.96900525  0.25838727  1  -0.857858  0.001758  -0.12148  0.125881  0.001086  3.761067  0.001
N  N152  1  0.91258203  0.25838825  0.96900501  1  -0.857929  -0.001759  -0.121469  0.125828  -0.001087  3.761136  -0.001
N  N153  1  0.58741869  0.03099544  0.74161457  1  -0.857882  0.001758  -0.121478  0.125838  0.001086  3.761214  0.001
N  N154  1  0.47776440  0.29473481  0.06248257  1  -0.857273  0.000306  -0.121352  0.140076  0.000194  3.769141  0.001
N  N155  1  0.02223534  0.93751627  0.70526326  1  -0.857252  -0.000307  -0.121308  0.14014  -0.000194  3.769165  -0.001
N  N156  1  0.52223482  0.70526412  0.93751750  1  -0.857175  0.000306  -0.121307  0.140125  0.000194  3.769149  0.001
N  N157  1  0.97776441  0.06248353  0.29473571  1  -0.857223  -0.000306  -0.121323  0.140086  -0.000194  3.769152  -0.001
N  N158  1  0.58606539  0.33467260  0.17067503  1  -0.678818  0.00443  -0.229987  -0.279977  0.002592  3.089023  0.004
N  N159  1  0.91393444  0.82932275  0.66532577  1  -0.678853  -0.00443  -0.230005  -0.28002  -0.002592  3.089034  -0.004
N  N160  1  0.41393464  0.66532632  0.82932467  1  -0.678822  0.00443  -0.229992  -0.279975  0.002592  3.089058  0.004
N  N161  1  0.08606477  0.17067617  0.33467358  1  -0.67877  -0.00443  -0.230013  -0.279991  -0.002592  3.089033  -0.004
N  N162  1  0.51837892  0.15793510  0.05266859  1  -1.201318  0.061883  -0.343275  -0.283504  0.038956  3.582436  0.056
N  N163  1  0.98162184  0.94733124  0.84206458  1  -1.201323  -0.061877  -0.343246  -0.283443  -0.038953  3.582416  -0.056
N  N164  1  0.48162084  0.84206470  0.94733183  1  -1.201295  0.061883  -0.343244  -0.283428  0.038957  3.582306  0.056
N  N165  1  0.01837926  0.05266945  0.15793581  1  -1.201332  -0.061876  -0.343267  -0.283472  -0.038952  3.582486  -0.056
Cl  Cl166  1  0.76606772  0.86225024  0.90477202  1  -0.680308  -0.107955  -0.34027  -0.557547  -0.064557  1.128945  -0.084
Cl  Cl167  1  0.73393194  0.09522829  0.13774908  1  -0.680317  0.107966  -0.340269  -0.557528  0.064563  1.128931  0.084
Cl  Cl168  1  0.23393150  0.13774868  0.09522733  1  -0.680313  -0.107959  -0.340268  -0.557543  -0.064559  1.128951  -0.084
Cl  Cl169  1  0.26606699  0.90477150  0.86224954  1  -0.680315  0.107964  -0.340276  -0.557537  0.064562  1.128916  0.084
