# generated using pymatgen
data_NiBH31C21(N3O2)2
_symmetry_space_group_name_H-M   'P 1'
_cell_length_a   8.21506120
_cell_length_b   16.04984833
_cell_length_c   19.30404793
_cell_angle_alpha   98.56151979
_cell_angle_beta   89.88440409
_cell_angle_gamma   89.49822632
_symmetry_Int_Tables_number   1
_chemical_formula_structural   NiBH31C21(N3O2)2
_chemical_formula_sum   'Ni4 B4 H124 C84 N24 O16'
_cell_volume   2516.77464131
_cell_formula_units_Z   4
loop_
 _symmetry_equiv_pos_site_id
 _symmetry_equiv_pos_as_xyz
  1  'x, y, z'
loop_
 _atom_site_type_symbol
 _atom_site_label
 _atom_site_symmetry_multiplicity
 _atom_site_fract_x
 _atom_site_fract_y
 _atom_site_fract_z
 _atom_site_occupancy
 _atom_site_pbe_bader_charge
 _atom_site_pbe_bader_spin_density
 _atom_site_pbe_cm5_charge
 _atom_site_pbe_ddec_charge
 _atom_site_pbe_ddec_spin_density
 _atom_site_pbe_ddec_sum_bond_order
 _atom_site_pbe_magmom
Ni  Ni0  1  0.16386939  0.74478080  0.20598085  1  1.129063  1.54718  0.680371  0.669982  1.848452  2.569259  1.527
Ni  Ni1  1  0.65929802  0.24594319  0.28950336  1  1.036398  0.003892  0.661268  0.558374  -0.06836  2.716075  0.008
Ni  Ni2  1  0.83626655  0.25514355  0.79399965  1  1.129205  1.547212  0.680442  0.669976  1.848444  2.569642  1.527
Ni  Ni3  1  0.34049862  0.75408407  0.71048141  1  1.037832  -0.003841  0.661201  0.557951  -0.096333  2.717171  -0.008
B  B4  1  0.03429987  0.85641275  0.10411249  1  2.064657  0.000637  -0.062564  0.302954  0.000338  3.530279  0.002
B  B5  1  0.53371904  0.13838364  0.39360572  1  2.05152  4.9e-05  -0.062713  0.299861  -3.3e-05  3.537282  0.0
B  B6  1  0.96570629  0.14358679  0.89591429  1  2.063841  0.000638  -0.062681  0.30263  0.000339  3.530505  0.002
B  B7  1  0.46637523  0.86157104  0.60638483  1  2.051288  -4.8e-05  -0.062225  0.300768  -0.00024  3.536791  0.0
H  H8  1  0.14583805  0.45873601  0.63317160  1  0.616868  0.000259  0.345078  0.381015  0.000192  0.85215  0.0
H  H9  1  0.61350459  0.51590798  0.84875793  1  0.614687  -0.000198  0.35064  0.387317  -0.000214  0.843528  0.0
H  H10  1  0.85431254  0.54130914  0.36687122  1  0.615594  0.000244  0.345035  0.380748  0.000214  0.852487  0.0
H  H11  1  0.38703515  0.48420392  0.15120608  1  0.618242  7.2e-05  0.350917  0.387717  8.3e-05  0.842421  0.0
H  H12  1  0.07223956  0.68636268  0.58022595  1  0.059895  -5.1e-05  0.104126  0.119413  -5.2e-05  1.02794  0.0
H  H13  1  0.54259471  0.30525171  0.92829883  1  0.066886  -2.5e-05  0.106103  0.121646  -7.2e-05  1.034055  0.0
H  H14  1  0.92685831  0.31355306  0.41966741  1  0.058294  4.5e-05  0.104045  0.119067  -2.5e-05  1.027926  0.0
H  H15  1  0.45677410  0.69499030  0.07166547  1  0.09915  -2.3e-05  0.106091  0.121878  -6.8e-05  1.034172  0.0
H  H16  1  0.31560678  0.61538338  0.51225020  1  0.043257  2.6e-05  0.085882  0.078311  -1.4e-05  1.031988  0.0
H  H17  1  0.81101047  0.35923864  0.98345637  1  0.057283  9e-06  0.090406  0.082147  -4e-05  1.044878  0.0
H  H18  1  0.68432893  0.38498207  0.48793969  1  0.042519  6.2e-05  0.085925  0.078004  3.8e-05  1.032352  0.0
H  H19  1  0.18877479  0.64058730  0.01640261  1  0.055263  -6.7e-05  0.090274  0.081987  -9.4e-05  1.044553  0.0
H  H20  1  0.18230494  0.53974537  0.46799230  1  0.017311  1.6e-05  0.086986  0.077565  -5e-06  1.006254  0.0
H  H21  1  0.70383794  0.44739749  0.02795611  1  0.019707  3.1e-05  0.087505  0.077999  1e-05  1.004326  0.0
H  H22  1  0.81836617  0.46035208  0.53206567  1  0.017162  4e-05  0.086864  0.077269  7e-06  1.006457  0.0
H  H23  1  0.29643534  0.55257085  0.97195578  1  0.021303  -9e-06  0.087464  0.077812  -4e-06  1.004231  0.0
H  H24  1  0.15375001  0.73043134  0.46669719  1  0.026759  1.6e-05  0.08881  0.084755  -2.3e-05  0.986758  0.0
H  H25  1  0.62946881  0.26273553  0.03908507  1  0.042828  1.4e-05  0.088782  0.081117  0.0  0.998335  0.0
H  H26  1  0.84553766  0.26960396  0.53332456  1  0.02649  -2.7e-05  0.088922  0.084929  -6.1e-05  0.986058  0.0
H  H27  1  0.37016215  0.73731426  0.96087256  1  0.042528  -6e-05  0.088956  0.081432  -5.5e-05  0.998284  0.0
H  H28  1  0.02707758  0.65283743  0.42066651  1  0.012017  0.000401  0.08449  0.069244  0.000254  1.025449  0.0
H  H29  1  0.52533519  0.35103577  0.08491055  1  0.039234  0.000265  0.087336  0.077891  0.000174  1.008757  0.0
H  H30  1  0.97307467  0.34692276  0.57917990  1  0.01651  0.000398  0.0847  0.069347  0.000254  1.024973  0.0
H  H31  1  0.47445471  0.64908814  0.91500401  1  0.040124  -0.000157  0.087231  0.078045  -0.000144  1.008478  0.0
H  H32  1  0.94775011  0.60555828  0.53796917  1  0.090328  5.2e-05  0.102416  0.116237  2.2e-05  1.01434  0.0
H  H33  1  0.44919119  0.40130745  0.96729874  1  0.075648  0.000115  0.099824  0.112901  7.8e-05  1.016099  0.0
H  H34  1  0.05215656  0.39404324  0.46180094  1  0.090266  -3.4e-05  0.102372  0.11618  -3.9e-05  1.014079  0.0
H  H35  1  0.55077632  0.59908867  0.03271782  1  0.074632  0.000125  0.100023  0.113137  8.6e-05  1.016021  0.0
H  H36  1  0.98322752  0.90124501  0.06429996  1  -0.573497  -0.000165  0.068159  -0.15413  -9.3e-05  1.029146  0.0
H  H37  1  0.48699283  0.09736949  0.43686971  1  -0.567463  1.5e-05  0.067482  -0.153275  -2e-06  1.024396  0.0
H  H38  1  0.01673196  0.09879233  0.93576941  1  -0.573141  -0.000165  0.068122  -0.154181  -9.4e-05  1.029215  0.0
H  H39  1  0.51320517  0.90255469  0.56311851  1  -0.566949  -1.6e-05  0.067372  -0.153551  -1e-05  1.024709  0.0
H  H40  1  0.90549586  0.78718866  0.35418431  1  0.063018  -2.9e-05  0.096718  0.141379  -7.6e-05  1.003645  0.0
H  H41  1  0.38804918  0.20144352  0.14700198  1  0.074618  0.000266  0.096463  0.138069  0.00013  1.002239  0.0
H  H42  1  0.09465388  0.21241816  0.64573451  1  0.064952  -4.3e-05  0.096976  0.14138  -8.8e-05  1.004031  0.0
H  H43  1  0.61120701  0.79845154  0.85293792  1  0.043603  -0.000263  0.0963  0.138126  -0.000173  1.001718  0.0
H  H44  1  0.88615634  0.89198795  0.39976707  1  0.022496  -0.000107  0.089887  0.126949  -4.3e-05  1.016328  0.0
H  H45  1  0.35516799  0.09763622  0.10205877  1  0.030123  -3e-06  0.089955  0.128842  -1.3e-05  1.014691  0.0
H  H46  1  0.11346062  0.10755695  0.60020896  1  0.017327  -8.5e-05  0.089583  0.126856  -2.7e-05  1.016613  0.0
H  H47  1  0.64543909  0.90216180  0.89784140  1  0.033854  -1.3e-05  0.090157  0.128941  -2e-06  1.014419  0.0
H  H48  1  0.08156772  0.84750293  0.37668897  1  0.054248  -0.000305  0.095221  0.134439  -0.00026  1.021505  0.0
H  H49  1  0.55615976  0.13495581  0.11991942  1  0.044253  7.2e-05  0.092228  0.128112  4.8e-05  1.028129  0.0
H  H50  1  0.91823429  0.15231942  0.62331252  1  0.05185  -0.000305  0.09507  0.134548  -0.000258  1.021509  0.0
H  H51  1  0.44395097  0.86544454  0.88026235  1  0.043321  -7e-05  0.092247  0.128136  -5.8e-05  1.027735  0.0
H  H52  1  0.80047576  0.00447827  0.31277133  1  0.09249  0.001428  0.104091  0.141226  0.000613  1.051558  0.001
H  H53  1  0.28683893  0.98268087  0.19257409  1  0.100388  -0.000355  0.103628  0.141033  -0.000244  1.053305  0.0
H  H54  1  0.19912627  0.99522399  0.68728923  1  0.101722  0.001488  0.104401  0.141243  0.000692  1.051629  0.001
H  H55  1  0.71309409  0.01734292  0.80740967  1  0.096892  0.000306  0.103611  0.140951  0.000128  1.053121  0.0
H  H56  1  0.92611399  0.03511404  0.12349827  1  0.028375  -0.000151  0.092643  0.128861  -9.8e-05  1.009092  0.0
H  H57  1  0.43151093  0.96107085  0.38229791  1  0.01461  1e-06  0.091717  0.126137  -2e-06  1.014174  0.0
H  H58  1  0.07427858  0.96515522  0.87688292  1  0.03748  -0.000137  0.092258  0.12863  -8.7e-05  1.009442  0.0
H  H59  1  0.56820914  0.03905905  0.61778527  1  0.013017  1.8e-05  0.091886  0.126437  1.8e-05  1.013631  0.0
H  H60  1  0.80943371  0.08394047  0.19618546  1  0.114423  0.000373  0.101277  0.155929  0.000199  1.014656  0.0
H  H61  1  0.31936682  0.90594244  0.31150720  1  0.110772  -8e-06  0.101402  0.157215  -0.000126  1.009246  0.0
H  H62  1  0.18973892  0.91584132  0.80397853  1  0.114281  0.000306  0.101163  0.155792  0.000129  1.014404  0.0
H  H63  1  0.68086130  0.09401567  0.68849097  1  0.111884  -0.000135  0.101285  0.157002  -0.000191  1.00948  0.0
H  H64  1  0.72127870  0.00458016  0.13458390  1  0.051912  -0.000291  0.090823  0.125744  -0.000188  1.032768  0.0
H  H65  1  0.22295917  0.98598954  0.37093650  1  0.015726  0.000175  0.089974  0.123408  8.1e-05  1.036849  0.0
H  H66  1  0.27921699  0.99518512  0.86517700  1  0.052143  -0.000311  0.090985  0.126141  -0.0002  1.03208  0.0
H  H67  1  0.77675467  0.01393492  0.62891572  1  0.059631  -0.000165  0.089812  0.123367  -0.000117  1.036678  0.0
H  H68  1  0.02999342  0.56836788  0.17974845  1  0.136213  9.7e-05  0.098716  0.153062  -1.9e-05  1.026509  0.0
H  H69  1  0.57961495  0.43040011  0.32250396  1  0.075788  -0.000548  0.094833  0.140581  -0.000573  1.040435  0.0
H  H70  1  0.97013581  0.43163216  0.82021929  1  0.096995  9.2e-05  0.098687  0.152988  -2.1e-05  1.026238  0.0
H  H71  1  0.41974077  0.56953193  0.67742034  1  0.102731  0.000543  0.094701  0.140196  0.000394  1.04042  0.0
H  H72  1  0.02484474  0.50396492  0.09550278  1  0.04865  -0.000218  0.088674  0.124701  -0.000152  1.010399  0.0
H  H73  1  0.50343571  0.49525825  0.39962352  1  0.066231  8.3e-05  0.091672  0.130683  6.7e-05  1.010489  0.0
H  H74  1  0.97541104  0.49604430  0.90445569  1  0.050233  -0.000221  0.088624  0.124594  -0.00015  1.010472  0.0
H  H75  1  0.49687412  0.50465463  0.60047771  1  0.066274  -8.9e-05  0.091836  0.130679  -0.0001  1.010407  0.0
H  H76  1  0.84173719  0.53266070  0.14165551  1  0.034226  -0.000233  0.092924  0.131518  -0.000157  1.003437  0.0
H  H77  1  0.36855797  0.45141945  0.33234796  1  0.050388  0.00033  0.09641  0.140031  0.000205  0.984251  0.0
H  H78  1  0.15844630  0.46726554  0.85828479  1  0.032948  -0.000279  0.092767  0.131328  -0.000186  1.003314  0.0
H  H79  1  0.63095098  0.54869820  0.66801144  1  0.049542  -0.000329  0.0964  0.139834  -0.000267  0.983746  0.0
H  H80  1  0.80128138  0.59673386  0.99917946  1  0.057524  0.001396  0.099026  0.133037  0.00064  1.040807  0.001
H  H81  1  0.31032641  0.40561833  0.49196774  1  0.105856  -0.000933  0.100266  0.137574  -0.000613  1.052301  -0.001
H  H82  1  0.19866865  0.40328858  0.00082173  1  0.057839  0.001398  0.098991  0.133036  0.000635  1.040702  0.001
H  H83  1  0.68969998  0.59425916  0.50818201  1  0.106317  0.000935  0.100622  0.137882  0.000427  1.052732  0.001
H  H84  1  0.83010340  0.84353970  0.98716059  1  0.037801  5.2e-05  0.095413  0.130875  2.6e-05  1.03395  0.0
H  H85  1  0.30391706  0.16084498  0.50654224  1  0.042697  0.000163  0.094649  0.127949  7.6e-05  1.036713  0.0
H  H86  1  0.17036913  0.15647226  0.01275929  1  0.03735  5.2e-05  0.095527  0.130943  2.3e-05  1.034002  0.0
H  H87  1  0.69544556  0.83911840  0.49344246  1  0.043364  -0.000159  0.094945  0.128424  -0.000112  1.036635  0.0
H  H88  1  0.68680748  0.76192861  0.96441015  1  0.071262  -1.4e-05  0.096038  0.134667  -7e-06  1.022976  0.0
H  H89  1  0.20003090  0.25555975  0.54071176  1  0.036868  -0.000254  0.096911  0.13788  -0.000184  1.014196  0.0
H  H90  1  0.31293171  0.23834198  0.03583472  1  0.072487  1e-05  0.096108  0.135063  -0.0  1.022143  0.0
H  H91  1  0.80099208  0.74467852  0.45984656  1  0.034685  0.000299  0.096865  0.138082  0.000136  1.014862  0.0
H  H92  1  0.87856433  0.75723493  0.92185985  1  0.048847  -4.3e-05  0.097623  0.139558  -2.6e-05  0.997172  0.0
H  H93  1  0.39936974  0.23544555  0.56986307  1  0.054751  0.000547  0.098648  0.141894  0.000282  0.991424  0.0
H  H94  1  0.12086801  0.24255758  0.07808211  1  0.041249  -0.000113  0.097693  0.139557  -9.5e-05  0.997381  0.0
H  H95  1  0.60182788  0.76391245  0.43000796  1  0.057396  -0.000255  0.09835  0.142115  -0.000158  0.991903  0.0
H  H96  1  0.53077997  0.75761676  0.22351950  1  0.08852  8.2e-05  0.096022  0.150823  -2.2e-05  1.021311  0.0
H  H97  1  0.02997553  0.25639475  0.28289374  1  0.078111  0.000211  0.095383  0.147639  0.000139  1.02832  0.0
H  H98  1  0.46926429  0.24235829  0.77643944  1  0.088895  8.4e-05  0.096094  0.150801  -2.1e-05  1.021256  0.0
H  H99  1  0.96965095  0.74352391  0.71685419  1  0.083209  -0.000211  0.095166  0.146771  -0.000217  1.028472  0.0
H  H100  1  0.65494148  0.84628005  0.21708444  1  0.072409  -0.000298  0.093854  0.14115  -0.000207  1.025618  0.0
H  H101  1  0.13840855  0.15858205  0.27210200  1  0.067785  -0.00038  0.093825  0.141711  -0.000272  1.01245  0.0
H  H102  1  0.34515903  0.15366015  0.78289392  1  0.074099  -0.000301  0.093829  0.141124  -0.000214  1.024977  0.0
H  H103  1  0.86202702  0.84159039  0.72793959  1  0.064247  0.000368  0.093601  0.141201  0.000192  1.012393  0.0
H  H104  1  0.67875160  0.75432319  0.15498468  1  0.043827  -0.000251  0.090765  0.134619  -0.000187  1.017668  0.0
H  H105  1  0.18411730  0.23703083  0.34362455  1  0.048189  -0.000266  0.093156  0.13696  -0.000154  1.017149  0.0
H  H106  1  0.32120385  0.24564897  0.84495995  1  0.044002  -0.00025  0.09097  0.134713  -0.000186  1.017559  0.0
H  H107  1  0.81544924  0.76344148  0.65631474  1  0.070653  0.000261  0.093195  0.137005  0.000108  1.017462  0.0
H  H108  1  0.59939861  0.89518275  0.06676077  1  0.069244  0.001377  0.103266  0.140336  0.000611  1.030003  0.001
H  H109  1  0.10253828  0.10712048  0.42901180  1  0.060253  0.001298  0.10382  0.1409  0.000595  1.030461  0.001
H  H110  1  0.40059949  0.10490376  0.93327488  1  0.068234  0.001378  0.103272  0.140363  0.000611  1.030027  0.001
H  H111  1  0.89762659  0.89288052  0.57080892  1  0.063105  -0.001294  0.103697  0.140659  -0.000836  1.029718  -0.001
H  H112  1  0.19088805  0.99090754  0.02617575  1  0.055186  -0.000117  0.095724  0.132148  -7.7e-05  1.009038  0.0
H  H113  1  0.71139218  0.00032816  0.46745688  1  0.027194  -0.000412  0.095979  0.132929  -0.000263  1.003397  0.0
H  H114  1  0.80903456  0.00916959  0.97390019  1  0.056447  -0.000115  0.095653  0.132019  -7.6e-05  1.008524  0.0
H  H115  1  0.28914649  0.99951242  0.53238600  1  0.027379  0.000411  0.096056  0.133227  0.00018  1.003073  0.0
H  H116  1  0.21262960  0.89863458  0.96433370  1  0.042818  -0.000175  0.100444  0.143037  -0.000119  0.994249  0.0
H  H117  1  0.70647451  0.09444451  0.52787520  1  0.064424  -0.00026  0.100887  0.143476  -0.000156  0.998024  0.0
H  H118  1  0.78751529  0.10151276  0.03569037  1  0.041789  -0.000148  0.100645  0.143128  -9.3e-05  0.993845  0.0
H  H119  1  0.29376377  0.90535701  0.47199139  1  0.066195  0.000322  0.101128  0.144088  0.000151  0.997175  0.0
H  H120  1  0.38105686  0.96635425  0.98329580  1  0.028538  0.000211  0.095133  0.130773  0.000108  1.030528  0.0
H  H121  1  0.89007485  0.03552544  0.51463050  1  0.033795  8.5e-05  0.094572  0.130733  3.8e-05  1.032901  0.0
H  H122  1  0.61895102  0.03384163  0.01684063  1  0.030517  0.000211  0.095143  0.131011  0.000105  1.030334  0.0
H  H123  1  0.11032750  0.96445347  0.48522412  1  0.037767  -9.5e-05  0.094853  0.131038  -6.9e-05  1.032571  0.0
H  H124  1  0.28362812  0.58361938  0.36039037  1  0.065959  0.000439  0.09895  0.109412  0.000143  1.002003  0.0
H  H125  1  0.79722669  0.40287162  0.13886942  1  0.041965  0.00104  0.104027  0.117974  0.000518  0.994098  0.001
H  H126  1  0.71758957  0.41671262  0.63984708  1  0.061331  0.000436  0.098698  0.109322  0.000122  1.002199  0.0
H  H127  1  0.20259314  0.59716649  0.86104937  1  0.042761  -0.001059  0.104024  0.118156  -0.000729  0.993873  -0.001
H  H128  1  0.39252082  0.67481783  0.39635226  1  0.033804  0.00206  0.094156  0.105924  0.000963  1.000251  0.001
H  H129  1  0.88658129  0.30592141  0.10062601  1  0.064336  0.000505  0.098993  0.112354  0.000137  0.999148  0.0
H  H130  1  0.60753103  0.32588739  0.60395126  1  0.033509  0.002085  0.094481  0.106442  0.000979  1.0  0.001
H  H131  1  0.11311230  0.69406393  0.89933438  1  0.065256  -0.000542  0.099005  0.112186  -0.000315  0.999601  0.0
C  C132  1  0.95492221  0.85108827  0.35924824  1  -0.064928  0.000412  -0.23576  -0.428802  -4.6e-05  3.950395  0.001
C  C133  1  0.43151162  0.13588665  0.14073718  1  -0.092249  -0.00018  -0.235688  -0.425494  -0.000153  3.957145  0.0
C  C134  1  0.04489085  0.14858919  0.64071535  1  -0.060146  0.000398  -0.235617  -0.428755  -5.8e-05  3.950589  0.001
C  C135  1  0.56847975  0.86414009  0.85926610  1  -0.063815  0.000183  -0.235855  -0.42573  4.6e-05  3.955667  0.0
C  C136  1  0.94460798  0.88442096  0.29138204  1  0.449257  0.00098  0.098264  0.269478  0.00083  4.032328  0.003
C  C137  1  0.42659271  0.10329124  0.20903785  1  0.459988  0.001035  0.093182  0.257518  2.8e-05  4.058559  0.0
C  C138  1  0.05516413  0.11533779  0.70862132  1  0.451944  0.000974  0.098377  0.269409  0.000824  4.032292  0.003
C  C139  1  0.57336475  0.89671733  0.79095538  1  0.461048  -0.001058  0.093222  0.257636  -0.001041  4.058744  0.0
C  C140  1  0.86647897  0.95805426  0.27659934  1  -0.055956  0.004351  -0.125852  -0.357213  0.002615  3.9538  0.003
C  C141  1  0.35371253  0.03014414  0.22655719  1  -0.017035  -0.001134  -0.128524  -0.358493  -0.001079  3.954045  -0.001
C  C142  1  0.13323102  0.04169950  0.72343812  1  -0.06413  0.004404  -0.126379  -0.357452  0.002666  3.953815  0.003
C  C143  1  0.64622658  0.96987518  0.77343999  1  -0.014035  0.001086  -0.128447  -0.358292  0.000572  3.953643  0.001
C  C144  1  0.89047810  0.95990665  0.20545929  1  0.433964  -0.001045  0.106244  0.2499  -0.000783  3.983939  0.0
C  C145  1  0.38459624  0.03060745  0.29754641  1  0.35883  0.001843  0.103914  0.249138  0.000843  3.976863  0.001
C  C146  1  0.10938556  0.03994561  0.79461328  1  0.429447  -0.001046  0.106842  0.250139  -0.000776  3.983425  0.0
C  C147  1  0.61535026  0.96940242  0.70244440  1  0.358669  -0.00184  0.10398  0.249027  -0.001576  3.97708  -0.001
C  C148  1  0.83445471  0.02407854  0.16243588  1  -0.084834  0.000965  -0.235358  -0.433147  0.000506  3.957412  0.001
C  C149  1  0.33764905  0.96774934  0.34311608  1  -0.024465  -0.000193  -0.235454  -0.432463  -0.000155  3.962127  0.0
C  C150  1  0.16553618  0.97583509  0.83766870  1  -0.090434  0.000963  -0.235518  -0.433611  0.000498  3.956038  0.001
C  C151  1  0.66225493  0.03225372  0.65686405  1  -0.067955  0.000231  -0.235352  -0.432503  9.7e-05  3.962033  0.0
C  C152  1  0.96337979  0.55534810  0.13025639  1  -0.120172  0.000508  -0.237801  -0.430629  0.000173  3.953219  0.0
C  C153  1  0.48019947  0.43936443  0.36083635  1  -0.066858  -0.000772  -0.238266  -0.436255  -0.000846  3.956126  -0.001
C  C154  1  0.03677644  0.44462985  0.86970079  1  -0.081854  0.000459  -0.237634  -0.430274  0.000132  3.952679  0.0
C  C155  1  0.51957413  0.56061714  0.63927738  1  -0.102311  0.000778  -0.237945  -0.435503  0.000467  3.955656  0.001
C  C156  1  0.94829946  0.63268666  0.09641865  1  0.438897  0.001782  0.094049  0.262643  0.001598  4.044033  0.003
C  C157  1  0.45963179  0.36350474  0.39593643  1  0.43004  -0.001577  0.099346  0.266846  -0.003277  4.021321  -0.003
C  C158  1  0.05178367  0.36729521  0.90355045  1  0.438342  0.00179  0.093989  0.262507  0.001605  4.043941  0.003
C  C159  1  0.54028096  0.63643936  0.60415647  1  0.436917  0.001572  0.09877  0.266733  0.001138  4.021282  0.003
C  C160  1  0.86542610  0.64406761  0.03465074  1  -0.064621  0.002895  -0.134724  -0.382465  0.001703  3.99685  0.002
C  C161  1  0.37261278  0.35575120  0.45754630  1  -0.086121  -0.00263  -0.130789  -0.376495  -0.002376  3.981556  -0.002
C  C162  1  0.13455574  0.35593712  0.96534407  1  -0.064403  0.002894  -0.13453  -0.382235  0.001708  3.996857  0.002
C  C163  1  0.62742687  0.64415285  0.54256119  1  -0.088333  0.002684  -0.13118  -0.377119  0.001501  3.98185  0.002
C  C164  1  0.88292126  0.72876350  0.02759657  1  0.413369  -0.000519  0.103549  0.243918  -0.000412  3.994034  0.0
C  C165  1  0.38584205  0.27135052  0.46666110  1  0.410109  0.00166  0.105506  0.244803  0.000557  3.990374  0.001
C  C166  1  0.11707391  0.27124812  0.97240221  1  0.414277  -0.000484  0.103638  0.244157  -0.000374  3.99396  0.0
C  C167  1  0.61430613  0.72853950  0.53341557  1  0.413259  -0.001625  0.105644  0.24508  -0.001611  3.989739  -0.001
C  C168  1  0.81664656  0.77539881  0.97252020  1  -0.048129  0.000493  -0.230668  -0.434549  0.000259  3.97984  0.0
C  C169  1  0.31911187  0.22846508  0.52376146  1  -0.021425  -0.000221  -0.229468  -0.432382  -0.000196  3.973518  0.0
C  C170  1  0.18325469  0.22462683  0.02750422  1  -0.042094  0.000517  -0.231038  -0.435331  0.000278  3.979439  0.0
C  C171  1  0.68134685  0.77140076  0.47635141  1  -0.023348  0.000283  -0.229359  -0.433377  0.000101  3.974215  0.0
C  C172  1  0.58841130  0.79407590  0.18674045  1  -0.068729  0.000415  -0.241003  -0.432448  0.000114  3.910015  0.0
C  C173  1  0.08451321  0.20856913  0.31070914  1  -0.036067  0.000618  -0.241181  -0.432655  0.000336  3.920272  0.001
C  C174  1  0.41161461  0.20590736  0.81322937  1  -0.070604  0.000413  -0.241089  -0.432398  0.000111  3.90895  0.0
C  C175  1  0.91538368  0.79157157  0.68919816  1  -0.059418  -0.000621  -0.240942  -0.431306  -0.000659  3.919947  -0.001
C  C176  1  0.46367913  0.82732953  0.14179176  1  0.472241  0.001847  0.100018  0.270867  0.001758  4.024295  0.003
C  C177  1  0.96096060  0.17261955  0.35412311  1  0.427077  0.000372  0.10254  0.270999  0.000255  4.011259  0.002
C  C178  1  0.53633159  0.17270784  0.85822839  1  0.471088  0.001856  0.100031  0.271065  0.001764  4.023479  0.003
C  C179  1  0.03903229  0.82740819  0.64574767  1  0.428319  -0.000363  0.102527  0.270633  -0.002541  4.012125  -0.002
C  C180  1  0.48503027  0.87496206  0.08655994  1  -0.067745  0.003412  -0.128822  -0.369554  0.002021  3.963698  0.003
C  C181  1  0.98616566  0.12496256  0.40903269  1  -0.058942  0.003637  -0.126415  -0.365137  0.002052  3.964002  0.003
C  C182  1  0.51499467  0.12511429  0.91348270  1  -0.064917  0.003419  -0.128842  -0.369521  0.002025  3.963512  0.003
C  C183  1  0.01398814  0.87504342  0.59082079  1  -0.061728  -0.003617  -0.126185  -0.364572  -0.003214  3.964457  -0.003
C  C184  1  0.32950412  0.89167027  0.06310679  1  0.392241  -0.000479  0.099368  0.232332  -0.00037  4.021634  0.0
C  C185  1  0.83244209  0.10506576  0.43195798  1  0.418058  -0.004327  0.101104  0.232679  -0.003697  4.025028  -0.002
C  C186  1  0.67049396  0.10841305  0.93694348  1  0.404797  -0.000487  0.099162  0.232255  -0.000366  4.021073  0.0
C  C187  1  0.16774975  0.89489529  0.56792402  1  0.416556  0.004359  0.101334  0.232965  0.002332  4.024462  0.002
C  C188  1  0.27576680  0.93937745  0.00651888  1  -0.031156  0.00052  -0.229551  -0.43835  0.000265  3.997819  0.0
C  C189  1  0.78259956  0.05624787  0.48817834  1  -0.039628  0.000316  -0.229725  -0.439642  3e-05  3.993352  0.0
C  C190  1  0.72425766  0.06074544  0.99355863  1  -0.033278  0.000527  -0.229651  -0.438394  0.00027  3.996618  0.0
C  C191  1  0.21774990  0.94365238  0.51167730  1  -0.046409  -0.000296  -0.230362  -0.441046  -0.000234  3.992101  0.0
C  C192  1  0.21909598  0.69204723  0.31715077  1  1.530433  -0.002134  0.193006  0.60577  -0.001914  4.137392  -0.005
C  C193  1  0.71916668  0.29863242  0.18354768  1  1.511567  -0.000441  0.201049  0.599345  -0.001459  4.097952  -0.001
C  C194  1  0.78115667  0.30801975  0.68289267  1  1.531456  -0.002137  0.192899  0.606191  -0.001909  4.138756  -0.005
C  C195  1  0.28051279  0.70144059  0.81640612  1  1.511367  0.000431  0.201156  0.600383  -0.000626  4.095864  0.001
C  C196  1  0.27157587  0.65154101  0.37933361  1  -0.055637  0.003299  -0.165109  -0.287155  0.002434  3.927872  0.002
C  C197  1  0.77179793  0.33602814  0.12045773  1  -0.036829  -0.000227  -0.158688  -0.284487  -0.000404  3.924984  0.0
C  C198  1  0.72883023  0.34877552  0.62081832  1  -0.049845  0.003296  -0.164894  -0.288001  0.002433  3.928129  0.002
C  C199  1  0.22794149  0.66401070  0.87949071  1  -0.039793  0.000187  -0.158768  -0.284652  -0.000241  3.92544  0.0
C  C200  1  0.15129322  0.66441343  0.44082177  1  0.002396  0.000893  -0.163028  -0.118237  0.000576  3.928009  0.001
C  C201  1  0.64393244  0.32925495  0.06228156  1  -0.023003  -0.001094  -0.161389  -0.117182  -0.000974  3.925238  -0.001
C  C202  1  0.84867263  0.33560959  0.55918104  1  -0.002479  0.000857  -0.163399  -0.117802  0.000554  3.927305  0.001
C  C203  1  0.35583367  0.67079773  0.93765410  1  -0.023397  0.001077  -0.161414  -0.11788  0.000612  3.925862  0.001
C  C204  1  0.18955813  0.60539964  0.49403646  1  -0.010352  0.000283  -0.167362  -0.119384  0.000158  3.928086  0.0
C  C205  1  0.69159629  0.38075541  0.00502296  1  -0.019137  -0.000426  -0.16306  -0.119008  -0.000389  3.910831  0.0
C  C206  1  0.81054683  0.39471114  0.50602292  1  -0.010376  0.000258  -0.167793  -0.119917  0.000123  3.929228  0.0
C  C207  1  0.30832256  0.61923648  0.99488272  1  -0.018808  0.000202  -0.162857  -0.118346  8.8e-05  3.910601  0.0
C  C208  1  0.07262801  0.62000291  0.55647271  1  -0.009987  0.000126  -0.161895  -0.298843  6.9e-05  3.909446  0.0
C  C209  1  0.56382617  0.37217145  0.94646810  1  -0.001539  -9.3e-05  -0.162344  -0.304072  -0.000239  3.910709  0.0
C  C210  1  0.92705658  0.37990694  0.44344503  1  -0.00684  8.6e-05  -0.161432  -0.297863  -7e-06  3.908477  0.0
C  C211  1  0.43593742  0.62802995  0.05348367  1  -0.030886  0.000113  -0.162621  -0.304631  -6.3e-05  3.911249  0.0
C  C212  1  0.10297865  0.56916590  0.61462411  1  1.431613  0.000342  0.237246  0.633331  0.000334  4.042975  0.0
C  C213  1  0.61257342  0.41149900  0.88400291  1  1.474179  0.0017  0.249832  0.650418  0.001267  3.99895  0.002
C  C214  1  0.89689616  0.43083664  0.38534198  1  1.429282  -0.000263  0.237396  0.633626  -0.000425  4.043726  0.0
C  C215  1  0.38746592  0.58862736  0.11594966  1  1.471858  0.001899  0.25053  0.650868  0.001383  3.999046  0.002
N  N216  1  0.01261312  0.84384029  0.23227120  1  -0.726075  0.093204  -0.250026  -0.255257  0.057474  3.47887  0.083
N  N217  1  0.49733524  0.14575358  0.26605535  1  -0.734797  -0.021977  -0.24913  -0.262892  -0.019317  3.449106  -0.019
N  N218  1  0.98730070  0.15600259  0.76773127  1  -0.725416  0.093262  -0.250383  -0.255817  0.057517  3.479693  0.083
N  N219  1  0.50264544  0.85424485  0.73393971  1  -0.73491  0.021643  -0.249116  -0.262741  0.012823  3.448988  0.019
N  N220  1  0.97768432  0.88948078  0.17954660  1  -1.009093  0.002347  -0.135404  -0.096876  0.000657  3.672118  0.0
N  N221  1  0.47014909  0.10187607  0.32033145  1  -1.006689  -0.001278  -0.136495  -0.096326  -0.00107  3.681224  -0.001
N  N222  1  0.02229824  0.11042675  0.82049246  1  -1.011503  0.002376  -0.135162  -0.095844  0.000676  3.67172  0.0
N  N223  1  0.52984624  0.89811665  0.67966340  1  -1.007151  0.001322  -0.136629  -0.09687  0.00072  3.68215  0.001
N  N224  1  0.01520200  0.70630423  0.12431592  1  -0.726831  0.06443  -0.250906  -0.256824  0.04034  3.486385  0.056
N  N225  1  0.52408574  0.28776788  0.37005189  1  -0.740112  -0.044335  -0.252915  -0.220252  -0.038848  3.525298  -0.033
N  N226  1  0.98491777  0.29366496  0.87564795  1  -0.725979  0.064483  -0.250806  -0.256703  0.04037  3.486364  0.056
N  N227  1  0.47584636  0.71220277  0.62999668  1  -0.738236  0.044502  -0.252519  -0.219748  0.026708  3.525178  0.034
N  N228  1  0.97399809  0.76494460  0.08269152  1  -0.996952  -0.000856  -0.131229  -0.084897  -0.001596  3.660928  -0.002
N  N229  1  0.47725795  0.23141288  0.41264010  1  -0.980327  -0.000414  -0.131463  -0.087096  1e-05  3.650032  0.0
N  N230  1  0.02608374  0.23504291  0.91729072  1  -0.997157  -0.000859  -0.131493  -0.08508  -0.001602  3.66109  -0.002
N  N231  1  0.52281083  0.76852092  0.58739757  1  -0.980759  0.00045  -0.131988  -0.087516  -0.000357  3.649971  0.0
N  N232  1  0.30321365  0.81505238  0.15007741  1  -0.760071  0.069479  -0.247362  -0.255839  0.043285  3.470883  0.061
N  N233  1  0.79897144  0.18141269  0.34524143  1  -0.728403  0.054911  -0.249866  -0.228534  0.033662  3.501656  0.043
N  N234  1  0.69679234  0.18497115  0.84993426  1  -0.759712  0.069416  -0.247355  -0.255692  0.043248  3.471052  0.061
N  N235  1  0.20100570  0.81859353  0.65467587  1  -0.726046  -0.054607  -0.249726  -0.228207  -0.048461  3.501097  -0.043
N  N236  1  0.22209174  0.85490818  0.10256937  1  -0.991765  -0.000422  -0.14145  -0.099157  -0.001288  3.694351  -0.002
N  N237  1  0.72152605  0.13949249  0.39221654  1  -0.979228  0.000604  -0.139352  -0.097793  -0.000229  3.685607  0.0
N  N238  1  0.77792240  0.14515246  0.89746561  1  -1.005983  -0.000375  -0.141444  -0.099571  -0.001267  3.694149  -0.002
N  N239  1  0.27857192  0.86047497  0.60770827  1  -0.981622  -0.000438  -0.139681  -0.098299  3.5e-05  3.685614  0.0
O  O240  1  0.09006223  0.66739730  0.28356539  1  -1.152781  0.078658  -0.328476  -0.547941  0.046584  2.153028  0.069
O  O241  1  0.59477558  0.32718746  0.21999904  1  -1.124855  0.043529  -0.310976  -0.503218  0.025789  2.172495  0.037
O  O242  1  0.91029181  0.33248219  0.71649226  1  -1.153467  0.078766  -0.328326  -0.547751  0.046674  2.154757  0.069
O  O243  1  0.40499822  0.67294952  0.77998762  1  -1.124473  -0.043485  -0.31068  -0.502955  -0.038098  2.172691  -0.037
O  O244  1  0.30611357  0.74979889  0.29689948  1  -1.143414  0.083465  -0.319151  -0.535521  0.049601  2.216362  0.074
O  O245  1  0.79975015  0.23777238  0.20378650  1  -1.105762  -0.031036  -0.298902  -0.480126  -0.026798  2.234833  -0.025
O  O246  1  0.69400301  0.25026238  0.70305006  1  -1.143407  0.083396  -0.319151  -0.535826  0.049555  2.21614  0.074
O  O247  1  0.19983712  0.76226685  0.79615377  1  -1.107243  0.031074  -0.299366  -0.481219  0.017868  2.233966  0.025
O  O248  1  0.09533546  0.59558754  0.67731474  1  -1.130632  0.001318  -0.287041  -0.506294  0.000749  2.11207  0.0
O  O249  1  0.67510208  0.37593082  0.82957451  1  -1.155859  0.030162  -0.259677  -0.485348  0.018311  2.284344  0.024
O  O250  1  0.90457791  0.40446220  0.32264380  1  -1.130001  -0.001131  -0.287296  -0.506629  -0.00101  2.111907  0.0
O  O251  1  0.32507525  0.62412951  0.17043083  1  -1.154704  0.03041  -0.259983  -0.485389  0.018443  2.284589  0.025
O  O252  1  0.13731554  0.48608626  0.59106215  1  -1.123326  0.000152  -0.332197  -0.48855  1.6e-05  2.252413  0.0
O  O253  1  0.57987015  0.49575697  0.89216886  1  -1.126029  0.004157  -0.325303  -0.482261  0.002341  2.234428  0.003
O  O254  1  0.86268084  0.51391897  0.40896380  1  -1.121187  0.000111  -0.332045  -0.488261  0.000101  2.252913  0.0
O  O255  1  0.42040880  0.50439596  0.10777141  1  -1.128959  0.004431  -0.325793  -0.482737  0.002491  2.233875  0.003
