# generated using pymatgen
data_Al4H71C69N21O20
_symmetry_space_group_name_H-M   'P 1'
_cell_length_a   6.64334799
_cell_length_b   22.70307962
_cell_length_c   23.13359830
_cell_angle_alpha   111.69286465
_cell_angle_beta   91.61205653
_cell_angle_gamma   93.14365116
_symmetry_Int_Tables_number   1
_chemical_formula_structural   Al4H71C69N21O20
_chemical_formula_sum   'Al4 H71 C69 N21 O20'
_cell_volume   3232.72172744
_cell_formula_units_Z   1
loop_
 _symmetry_equiv_pos_site_id
 _symmetry_equiv_pos_as_xyz
  1  'x, y, z'
loop_
 _atom_site_type_symbol
 _atom_site_label
 _atom_site_symmetry_multiplicity
 _atom_site_fract_x
 _atom_site_fract_y
 _atom_site_fract_z
 _atom_site_occupancy
 _atom_site_pbe_bader_charge
 _atom_site_pbe_bader_spin_density
 _atom_site_pbe_cm5_charge
 _atom_site_pbe_ddec_charge
 _atom_site_pbe_ddec_spin_density
 _atom_site_pbe_ddec_sum_bond_order
 _atom_site_pbe_magmom
Al  Al0  1  0.88318785  0.49968334  0.49812780  1  2.500877  0  0.393482  1.635709  0  2.586892  0
Al  Al1  1  0.38298997  0.50074534  0.49789206  1  2.502118  0  0.395986  1.638344  0  2.568934  0
Al  Al2  1  0.35372291  0.00268586  0.00268038  1  2.501077  0  0.399638  1.640077  0  2.571097  0
Al  Al3  1  0.85256827  0.99920841  0.00296278  1  2.502664  0  0.398049  1.637565  0  2.586092  0
H  H4  1  0.81995074  0.77893035  0.12999900  1  0.104868  0  0.1075  0.107298  0  1.013571  0
H  H5  1  0.43653171  0.69852919  0.34302877  1  0.080846  0  0.098258  0.101524  0  1.054978  0
H  H6  1  0.38022062  0.35038303  0.56135473  1  0.066036  0  0.102156  0.114154  0  1.012049  0
H  H7  1  0.34823220  0.16137491  0.94263087  1  0.075199  0  0.102568  0.108867  0  1.003125  0
H  H8  1  0.29267669  0.83760953  0.92084262  1  0.427405  0  0.301756  0.245766  0  0.970291  0
H  H9  1  0.60189873  0.84940337  0.87446622  1  0.045809  0  0.090846  0.088083  0  1.070035  0
H  H10  1  0.56809948  0.76909876  0.82453188  1  0.032776  0  0.098315  0.110957  0  1.026581  0
H  H11  1  0.61175433  0.78799695  0.90576705  1  0.035911  0  0.099946  0.111942  0  0.972854  0
H  H12  1  0.79798145  0.85673439  0.07646866  1  0.10481  0  0.111659  0.11745  0  0.989177  0
H  H13  1  0.57609291  0.68047812  0.41666591  1  0.408109  0  0.306032  0.243459  0  0.941342  0
H  H14  1  0.59812540  0.70245656  0.51910294  1  0.06091  0  0.099408  0.10343  0  1.029056  0
H  H15  1  0.40092393  0.64540716  0.51504121  1  0.092508  0  0.104  0.114956  0  1.047844  0
H  H16  1  0.34399615  0.72010603  0.51069217  1  0.025333  0  0.085929  0.080291  0  1.015745  0
H  H17  1  0.78687949  0.53563628  0.37848936  1  0.523578  0  0.313883  0.271754  0  0.998293  0
H  H18  1  0.68693925  0.50730392  0.24805130  1  -0.002152  0  0.095498  0.095225  0  0.987951  0
H  H19  1  0.56091541  0.57534921  0.29363012  1  0.07285  0  0.093812  0.100872  0  1.019315  0
H  H20  1  0.52047342  0.50311469  0.30599350  1  0.049384  0  0.108209  0.118895  0  0.982229  0
H  H21  1  0.85497655  0.60925403  0.26436382  1  0.083787  0  0.100605  0.109104  0  1.062288  0
H  H22  1  0.20722055  0.27336769  0.59385246  1  0.385049  0  0.303877  0.245654  0  0.938449  0
H  H23  1  0.46764367  0.19732483  0.54331208  1  0.022404  0  0.082635  0.077098  0  1.00126  0
H  H24  1  0.27788703  0.16817607  0.58170254  1  0.037587  0  0.099558  0.106078  0  0.984016  0
H  H25  1  0.52071130  0.19654111  0.61869178  1  0.024884  0  0.094807  0.101484  0  1.015864  0
H  H26  1  0.84589326  0.37925295  0.78496827  1  0.394583  0  0.298046  0.242803  0  0.953872  0
H  H27  1  0.20033562  0.40445837  0.78483722  1  0.033356  0  0.094564  0.10694  0  0.98482  0
H  H28  1  0.16231481  0.40790212  0.70975813  1  0.050281  0  0.095673  0.104968  0  1.013195  0
H  H29  1  0.12606569  0.33374893  0.71949488  1  0.091875  0  0.084685  0.084568  0  1.082446  0
H  H30  1  0.94130059  0.48290970  0.74046580  1  0.448085  0  0.305849  0.242394  0  0.993324  0
H  H31  1  0.01574704  0.52915932  0.64512958  1  0.042798  0  0.101227  0.106946  0  1.039667  0
H  H32  1  0.97434676  0.57531575  0.72437015  1  0.08018  0  0.102853  0.109654  0  1.000423  0
H  H33  1  0.76913670  0.54895999  0.66777293  1  0.032375  0  0.100138  0.104078  0  1.012336  0
H  H34  1  0.36953134  0.22689022  0.87667087  1  0.08474  0  0.105124  0.104176  0  1.018805  0
H  H35  1  0.65546080  0.87883204  0.76802978  1  0.391632  0  0.298176  0.236953  0  0.945099  0
H  H36  1  0.72258048  0.98861838  0.80755164  1  0.051226  0  0.097862  0.106812  0  1.000158  0
H  H37  1  0.93606586  0.95541279  0.76445582  1  0.007249  0  0.076556  0.0628  0  1.029748  0
H  H38  1  0.94528853  0.98184525  0.84748692  1  0.053379  0  0.103494  0.115398  0  1.011217  0
H  H39  1  0.91175718  0.08552620  0.87639210  1  0.088679  0  0.107457  0.113497  0  1.048105  0
H  H40  1  0.96280164  0.17291427  0.77186329  1  0.4924  0  0.296  0.222011  0  1.075193  0
H  H41  1  0.18539436  0.09762607  0.82970118  1  0.03997  0  0.098506  0.107089  0  1.020277  0
H  H42  1  0.22431680  0.10634942  0.75798719  1  0.054253  0  0.107867  0.119241  0  0.974505  0
H  H43  1  0.03343209  0.04960220  0.76209436  1  0.056475  0  0.092671  0.092067  0  1.01734  0
H  H44  1  0.41938266  0.18494603  0.13949734  1  0.100667  0  0.111054  0.113917  0  1.013934  0
H  H45  1  0.93379077  0.08812444  0.25405596  1  0.383616  0  0.290441  0.228026  0  0.958925  0
H  H46  1  0.21165054  0.12808585  0.20986486  1  0.024223  0  0.079853  0.079192  0  1.024414  0
H  H47  1  0.09071880  0.08481281  0.13516862  1  0.108787  0  0.107425  0.130299  0  1.027537  0
H  H48  1  0.17988901  0.04325111  0.18130707  1  0.033781  0  0.094767  0.103202  0  0.998146  0
H  H49  1  0.18966871  0.32988936  0.21108788  1  0.407938  0  0.302104  0.244807  0  0.940646  0
H  H50  1  0.24371430  0.29896363  0.10318664  1  0.032265  0  0.100726  0.107737  0  0.98314  0
H  H51  1  0.47073133  0.26574934  0.11405415  1  0.048302  0  0.099693  0.107384  0  1.009417  0
H  H52  1  0.45609071  0.34961979  0.14657423  1  0.01789  0  0.084039  0.07893  0  1.002922  0
H  H53  1  0.91376318  0.19303796  0.30641501  1  0.036124  0  0.100584  0.097536  0  1.040434  0
H  H54  1  0.36052911  0.38859126  0.30438041  1  0.06671  0  0.105237  0.114709  0  1.00883  0
H  H55  1  0.83523094  0.25276646  0.38667673  1  0.368053  0  0.284295  0.221727  0  0.979612  0
H  H56  1  0.11668401  0.29140291  0.33885479  1  0.028565  0  0.077173  0.07353  0  1.033508  0
H  H57  1  0.14309376  0.31468190  0.42158191  1  0.003628  0  0.09391  0.101543  0  0.984541  0
H  H58  1  0.06037920  0.36927074  0.38935101  1  0.092915  0  0.105645  0.128727  0  1.017102  0
H  H59  1  0.36978550  0.69315406  0.80397665  1  0.023188  0  0.100071  0.113041  0  1.0593  0
H  H60  1  0.79509174  0.80143338  0.70225938  1  0.003285  0  0.094421  0.086408  0  1.056494  0
H  H61  1  0.40886487  0.56456634  0.65524395  1  0.453532  0  0.305164  0.255035  0  1.006342  0
H  H62  1  0.52301545  0.53357999  0.73374754  1  0.060081  0  0.104723  0.113545  0  1.007457  0
H  H63  1  0.35738937  0.58551391  0.78469592  1  0.042925  0  0.094719  0.094794  0  0.991478  0
H  H64  1  0.60576565  0.61442952  0.77668407  1  0.045487  0  0.095989  0.09919  0  0.98159  0
H  H65  1  0.80087483  0.73533098  0.63567364  1  0.426645  0  0.299485  0.236726  0  0.990639  0
H  H66  1  0.92900725  0.73506475  0.54640434  1  0.04022  0  0.094619  0.091401  0  0.99339  0
H  H67  1  0.87865290  0.65070433  0.52037825  1  0.082777  0  0.103185  0.113298  0  1.021816  0
H  H68  1  0.11953726  0.68603175  0.55302380  1  0.072903  0  0.101053  0.102818  0  1.051266  0
H  H69  1  0.41834379  0.92215633  0.13250572  1  0.112495  0  0.114006  0.121163  0  0.986124  0
H  H70  1  0.43728554  0.84762029  0.18958213  1  0.087893  0  0.105094  0.103293  0  1.021114  0
H  H71  1  0.65563626  0.57993603  0.54345969  1  0.601923  0  0.34512  0.419237  0  0.876818  0
H  H72  1  0.12369995  0.43097161  0.51337371  1  0.624519  0  0.353631  0.430229  0  0.853821  0
H  H73  1  0.58170752  0.92505387  0.94977122  1  0.614499  0  0.340728  0.413819  0  0.898117  0
H  H74  1  0.10908740  0.07640630  0.99971288  1  0.62138  0  0.352496  0.429908  0  0.854993  0
C  C75  1  0.63392518  0.44512869  0.57201235  1  1.532236  0  0.25528  0.645965  0  4.092104  0
C  C76  1  0.60188870  0.40769707  0.40313212  1  1.581582  0  0.272734  0.658751  0  4.070087  0
C  C77  1  0.13268785  0.55970963  0.42864264  1  1.527131  0  0.255096  0.643119  0  4.091231  0
C  C78  1  0.16015412  0.59616236  0.59433373  1  1.506352  0  0.253436  0.640426  0  4.110722  0
C  C79  1  0.05521659  0.85338642  0.84226553  1  -0.039512  0  -0.032732  -0.24284  0  3.896654  0
C  C80  1  0.16617648  0.65046027  0.65469217  1  0.00977  0  -0.042917  -0.272924  0  3.931405  0
C  C81  1  0.28363823  0.69618694  0.76477855  1  0.002905  0  -0.13754  -0.311203  0  4.041431  0
C  C82  1  0.29034076  0.64821536  0.70631179  1  0.402812  0  0.095944  0.227649  0  4.115586  0
C  C83  1  0.03072902  0.69851039  0.66543212  1  0.442266  0  0.107959  0.195443  0  3.998321  0
C  C84  1  0.02928224  0.74874663  0.72608633  1  -0.036887  0  -0.026651  -0.011361  0  4.051631  0
C  C85  1  0.16656152  0.74881498  0.77451539  1  0.018012  0  -0.017686  0.020248  0  4.02161  0
C  C86  1  0.18320208  0.80330637  0.83240306  1  0.429341  0  0.103794  0.186259  0  3.964988  0
C  C87  1  0.90591836  0.84944159  0.79475038  1  0.364301  0  0.079333  0.210111  0  4.080995  0
C  C88  1  0.90128191  0.79908933  0.73810825  1  -0.015013  0  -0.126124  -0.285055  0  4.081104  0
C  C89  1  0.28768699  0.89114537  0.13299906  1  -0.086594  0  -0.078544  -0.090402  0  3.966024  0
C  C90  1  0.29845378  0.84966713  0.16438716  1  -0.001651  0  -0.081601  -0.107774  0  3.962912  0
C  C91  1  0.13068392  0.80813998  0.16237415  1  -0.016586  0  -0.002921  0.022204  0  3.990259  0
C  C92  1  0.94912165  0.81110169  0.13105527  1  -0.001258  0  -0.080456  -0.10831  0  3.957923  0
C  C93  1  0.93728943  0.85391336  0.10108729  1  -0.059935  0  -0.076443  -0.084548  0  3.959172  0
C  C94  1  0.10760468  0.89309502  0.10071561  1  0.026808  0  -0.008995  -0.035452  0  3.968225  0
C  C95  1  0.15680306  0.68815944  0.25475564  1  0.981317  0  0.242296  0.255473  0  3.969932  0
C  C96  1  0.14713143  0.76111717  0.19172124  1  0.960917  0  0.238923  0.244963  0  3.994949  0
C  C97  1  0.30852446  0.66617856  0.34257538  1  -0.016667  0  -0.122612  -0.291255  0  4.033565  0
C  C98  1  0.30212717  0.63886793  0.38797130  1  0.389715  0  0.102442  0.241357  0  4.051526  0
C  C99  1  0.13276057  0.59736556  0.38849440  1  -0.02204  0  -0.039529  -0.272131  0  3.853417  0
C  C100  1  0.96529689  0.58764172  0.34332986  1  0.430918  0  0.112895  0.248503  0  4.050891  0
C  C101  1  0.97856237  0.61625696  0.29854588  1  0.019362  0  -0.121609  -0.275722  0  3.967465  0
C  C102  1  0.14885999  0.65493759  0.29843801  1  -0.022222  0  -0.013686  0.057451  0  4.101304  0
C  C103  1  0.48128351  0.36056525  0.60237786  1  -0.077515  0  -0.106204  -0.214637  0  4.026437  0
C  C104  1  0.47043310  0.32034828  0.63533099  1  0.419345  0  0.072789  0.172784  0  4.085274  0
C  C105  1  0.61364588  0.33209562  0.68572666  1  0.041529  0  -0.015693  -0.148639  0  3.99164  0
C  C106  1  0.75819448  0.38329715  0.70216599  1  0.349418  0  0.082206  0.097956  0  4.013436  0
C  C107  1  0.76225164  0.42654322  0.66990515  1  0.451378  0  0.104535  0.134168  0  4.035687  0
C  C108  1  0.62627541  0.41251998  0.61725943  1  -0.001244  0  -0.035641  -0.141114  0  3.983579  0
C  C109  1  0.63394081  0.22519496  0.79370759  1  0.890435  0  0.230035  0.249624  0  3.999945  0
C  C110  1  0.61455479  0.29023736  0.72175545  1  0.939199  0  0.238857  0.257027  0  4.014663  0
C  C111  1  0.48829820  0.19575850  0.87694228  1  -0.017243  0  -0.085538  -0.090429  0  4.024313  0
C  C112  1  0.47526335  0.15922769  0.91330629  1  -0.019251  0  -0.108215  -0.14823  0  4.038709  0
C  C113  1  0.62856870  0.11815420  0.91134727  1  -0.062697  0  -0.013651  -0.013358  0  4.00956  0
C  C114  1  0.79357296  0.11636132  0.87533203  1  -0.01604  0  -0.100947  -0.219671  0  3.950559  0
C  C115  1  0.80827397  0.15182512  0.83638552  1  0.457482  0  0.114398  0.221022  0  4.024529  0
C  C116  1  0.64692995  0.19182966  0.83651062  1  0.013958  0  -0.022804  -0.110228  0  3.967823  0
C  C117  1  0.65555063  0.13882772  0.16597617  1  0.013931  0  -0.010268  -0.113725  0  3.927584  0
C  C118  1  0.58867739  0.34971998  0.34502733  1  0.000232  0  -0.016276  -0.10497  0  3.979391  0
C  C119  1  0.43123932  0.29728753  0.23965509  1  0.36088  0  0.084266  0.168327  0  4.065955  0
C  C120  1  0.45148263  0.34794918  0.29634401  1  -0.002561  0  -0.103271  -0.226869  0  4.030327  0
C  C121  1  0.70680286  0.29870816  0.33817938  1  0.323805  0  0.088378  0.14853  0  3.969288  0
C  C122  1  0.68665153  0.24508767  0.28032430  1  -0.009194  0  -0.010011  0.017637  0  4.00777  0
C  C123  1  0.54976947  0.24397161  0.23082185  1  0.023363  0  -0.01237  -0.005651  0  3.985313  0
C  C124  1  0.53387515  0.18899234  0.17562862  1  -0.082456  0  -0.078165  -0.124858  0  3.970542  0
C  C125  1  0.79611258  0.14001217  0.21459164  1  0.373212  0  0.09353  0.216836  0  4.022279  0
C  C126  1  0.80463412  0.19238396  0.26998384  1  -0.051397  0  -0.105914  -0.248117  0  4.001677  0
C  C127  1  0.63251957  0.08520861  0.10436787  1  1.581729  0  0.274702  0.660226  0  4.07821  0
C  C128  1  0.61469906  0.07381410  0.94579713  1  1.581618  0  0.265064  0.639471  0  4.085527  0
C  C129  1  0.07453096  0.91024644  0.90183613  1  1.546161  0  0.261665  0.657609  0  4.085008  0
C  C130  1  0.10143309  0.93475517  0.06386415  1  1.540491  0  0.267585  0.62858  0  4.115514  0
C  C131  1  0.53596690  0.80243397  0.87082423  1  0.298001  0  -0.147489  -0.221511  0  3.934856  0
C  C132  1  0.44958606  0.68192737  0.49709598  1  0.228543  0  -0.145549  -0.220552  0  3.969795  0
C  C133  1  0.63464727  0.53348950  0.29490839  1  0.336225  0  -0.133055  -0.20111  0  3.974785  0
C  C134  1  0.40238477  0.20439482  0.58872373  1  0.287578  0  -0.144283  -0.210187  0  3.999319  0
C  C135  1  0.10736344  0.38496145  0.74113250  1  0.226985  0  -0.156657  -0.231004  0  3.956739  0
C  C136  1  0.91279798  0.53572901  0.68268943  1  0.322953  0  -0.140823  -0.212221  0  3.976234  0
C  C137  1  0.84765124  0.95839051  0.80526449  1  0.254494  0  -0.148225  -0.217273  0  3.996284  0
C  C138  1  0.10813887  0.09734205  0.78698948  1  0.285616  0  -0.135098  -0.207882  0  3.964305  0
C  C139  1  0.10923901  0.08633312  0.18272468  1  0.230545  0  -0.153338  -0.218352  0  3.945404  0
C  C140  1  0.37020973  0.30344846  0.13647690  1  0.280615  0  -0.143076  -0.214831  0  3.996362  0
C  C141  1  0.05096971  0.31912229  0.38338589  1  0.249142  0  -0.154195  -0.218684  0  3.96284  0
C  C142  1  0.47510317  0.58225283  0.75111099  1  0.28136  0  -0.134521  -0.200538  0  3.993806  0
C  C143  1  0.95782062  0.69240253  0.55646713  1  0.234347  0  -0.142876  -0.221136  0  3.979748  0
N  N144  1  0.99830239  0.71427620  0.17931068  1  -0.566724  0  -0.159243  -0.154127  0  3.215034  0
N  N145  1  0.00295891  0.67716201  0.21166983  1  -0.575379  0  -0.15796  -0.145472  0  3.213553  0
N  N146  1  0.32525084  0.72559977  0.25694866  1  -0.585763  0  -0.157929  -0.145176  0  3.22409  0
N  N147  1  0.32011849  0.76288866  0.22497253  1  -0.540061  0  -0.159953  -0.155518  0  3.227813  0
N  N148  1  0.44957274  0.28595030  0.75402862  1  -0.501453  0  -0.141756  -0.126289  0  3.213446  0
N  N149  1  0.45711903  0.25180842  0.78895146  1  -0.571726  0  -0.15612  -0.153578  0  3.205962  0
N  N150  1  0.78941949  0.22516410  0.75678081  1  -0.616108  0  -0.163091  -0.154522  0  3.289061  0
N  N151  1  0.77756242  0.25679091  0.71898593  1  -0.56825  0  -0.164412  -0.160339  0  3.227998  0
N  N152  1  0.31757182  0.80243578  0.87967060  1  -1.148314  0  -0.462416  -0.316952  0  3.480901  0
N  N153  1  0.46899326  0.65513393  0.43004989  1  -1.13151  0  -0.445853  -0.27382  0  3.504459  0
N  N154  1  0.79772954  0.55011433  0.34189018  1  -1.269469  0  -0.438123  -0.274562  0  3.617566  0
N  N155  1  0.32766115  0.26742519  0.61883730  1  -1.077807  0  -0.460049  -0.32732  0  3.502042  0
N  N156  1  0.89520264  0.39909678  0.75459416  1  -1.098179  0  -0.46876  -0.341399  0  3.498251  0
N  N157  1  0.88998734  0.47952104  0.69737647  1  -1.223655  0  -0.441798  -0.260594  0  3.654266  0
N  N158  1  0.76649592  0.89633632  0.80246634  1  -1.094525  0  -0.46384  -0.314783  0  3.485418  0
N  N159  1  0.96746880  0.14651818  0.79955264  1  -1.216045  0  -0.431514  -0.261277  0  3.622694  0
N  N160  1  0.91099397  0.08779202  0.21013073  1  -1.080001  0  -0.470145  -0.340849  0  3.438561  0
N  N161  1  0.29073155  0.29662991  0.19243470  1  -1.115317  0  -0.46515  -0.331786  0  3.473694  0
N  N162  1  0.83982764  0.29790960  0.38711942  1  -1.062348  0  -0.479576  -0.349599  0  3.463755  0
N  N163  1  0.39939356  0.59662272  0.69911481  1  -1.21273  0  -0.455389  -0.303299  0  3.638568  0
N  N164  1  0.89989323  0.70152189  0.61915564  1  -1.184485  0  -0.452525  -0.281128  0  3.571818  0
O  O165  1  0.43831316  0.43390310  0.42195272  1  -1.258893  0  -0.233448  -0.585378  0  2.324702  0
O  O166  1  0.80736909  0.45960109  0.55636176  1  -1.254065  0  -0.241646  -0.599989  0  2.353087  0
O  O167  1  0.98925404  0.57548390  0.56528219  1  -1.269384  0  -0.238133  -0.602415  0  2.437615  0
O  O168  1  0.77535481  0.42817776  0.42973811  1  -1.266592  0  -0.224449  -0.580672  0  2.403333  0
O  O169  1  0.96145362  0.53760194  0.43980572  1  -1.262878  0  -0.239471  -0.601239  0  2.40149  0
O  O170  1  0.46455231  0.45307009  0.54876107  1  -1.268138  0  -0.252029  -0.621786  0  2.3327  0
O  O171  1  0.64170271  0.53992728  0.50786620  1  -1.409423  0  -0.450392  -0.981272  0  2.19197  0
O  O172  1  0.30015831  0.54906672  0.45008436  1  -1.261801  0  -0.235549  -0.584521  0  2.386212  0
O  O173  1  0.32694456  0.57108882  0.57509092  1  -1.266018  0  -0.248862  -0.620398  0  2.372586  0
O  O174  1  0.12677276  0.46274897  0.49457474  1  -1.42813  0  -0.446499  -0.982497  0  2.216873  0
O  O175  1  0.78059604  0.05493956  0.95919407  1  -1.266482  0  -0.238301  -0.599839  0  2.359061  0
O  O176  1  0.45540711  0.06845845  0.07879248  1  -1.262726  0  -0.232009  -0.586143  0  2.344423  0
O  O177  1  0.27127687  0.95357931  0.05018673  1  -1.259503  0  -0.232838  -0.588431  0  2.365314  0
O  O178  1  0.43863896  0.05766839  0.95803889  1  -1.252802  0  -0.240217  -0.596383  0  2.310567  0
O  O179  1  0.25208658  0.93374598  0.92489200  1  -1.260615  0  -0.246209  -0.612909  0  2.336334  0
O  O180  1  0.79274140  0.06140369  0.08009466  1  -1.263563  0  -0.224759  -0.578274  0  2.395833  0
O  O181  1  0.59205599  0.96200100  0.98846211  1  -1.425182  0  -0.44954  -0.98183  0  2.195989  0
O  O182  1  0.91198069  0.93228236  0.92649043  1  -1.266852  0  -0.234121  -0.598191  0  2.401843  0
O  O183  1  0.92946802  0.94706036  0.04737609  1  -1.249254  0  -0.228915  -0.572814  0  2.3374  0
O  O184  1  0.10947527  0.03935833  0.01104624  1  -1.425584  0  -0.447569  -0.989197  0  2.217276  0
