# generated using pymatgen
data_CuH6(C4N5)2
_symmetry_space_group_name_H-M   'P 1'
_cell_length_a   5.03125715
_cell_length_b   10.27420922
_cell_length_c   11.49878878
_cell_angle_alpha   67.97186788
_cell_angle_beta   83.92999800
_cell_angle_gamma   87.05475437
_symmetry_Int_Tables_number   1
_chemical_formula_structural   CuH6(C4N5)2
_chemical_formula_sum   'Cu2 H12 C16 N20'
_cell_volume   547.87287853
_cell_formula_units_Z   2
loop_
 _symmetry_equiv_pos_site_id
 _symmetry_equiv_pos_as_xyz
  1  'x, y, z'
loop_
 _atom_site_type_symbol
 _atom_site_label
 _atom_site_symmetry_multiplicity
 _atom_site_fract_x
 _atom_site_fract_y
 _atom_site_fract_z
 _atom_site_occupancy
 _atom_site_hle17_ddec_charge
 _atom_site_hle17_ddec_spin_density
 _atom_site_hle17_ddec_sum_bond_order
 _atom_site_hle17_magmom
 _atom_site_hse06_10hf_ddec_charge
 _atom_site_hse06_10hf_ddec_spin_density
 _atom_site_hse06_10hf_ddec_sum_bond_order
 _atom_site_hse06_10hf_magmom
 _atom_site_hse06_ddec_charge
 _atom_site_hse06_ddec_spin_density
 _atom_site_hse06_ddec_sum_bond_order
 _atom_site_hse06_magmom
 _atom_site_pbe_cm5_charge
 _atom_site_pbe_ddec_charge
 _atom_site_pbe_ddec_spin_density
 _atom_site_pbe_ddec_sum_bond_order
 _atom_site_pbe_magmom
Cu  Cu0  1  0.55414513  0.17164809  0.24025700  1  0.709147  -0.602417  2.017687  -0.383  0.69915  -0.734292  2.434133  -0.522  0.786022  -0.844576  2.363971  -0.621  0.768989  0.656501  -0.661894  2.475932  -0.462
Cu  Cu1  1  0.44585414  0.82834795  0.75974247  1  0.709103  0.602397  2.017679  0.383  0.699132  0.734295  2.434139  0.522  0.786025  0.844562  2.36395  0.621  0.768994  0.656505  0.661898  2.475942  0.462
H  H2  1  0.10607516  0.63316194  0.37482517  1  0.084721  -0.000147  0.955329  0.0  0.093888  -0.00015  1.017292  0.0  0.097198  -4.7e-05  1.013069  0.0  0.118515  0.091621  -0.000286  1.020294  0.0
H  H3  1  0.89393797  0.36684136  0.62517911  1  0.084722  0.000138  0.955299  0.0  0.09389  0.000149  1.017263  0.0  0.0972  4.7e-05  1.013038  0.0  0.118552  0.091625  0.000286  1.020265  0.0
H  H4  1  0.67041857  0.64370501  0.50584468  1  0.122105  0.001239  0.963114  0.0  0.130872  0.000806  1.022992  0.0  0.13496  0.00062  1.021849  0.0  0.113528  0.128008  0.00092  1.024171  0.0
H  H5  1  0.32958858  0.35629726  0.49415847  1  0.122123  -0.001235  0.963104  0.0  0.130882  -0.000807  1.022985  0.0  0.13497  -0.000619  1.021837  0.0  0.11354  0.12802  -0.00092  1.02416  0.0
H  H6  1  0.42432416  0.87846593  0.44322706  1  0.089425  0.000274  0.970182  -0.001  0.093486  -5.8e-05  1.043475  -0.001  0.096419  0.000141  1.040219  -0.001  0.118901  0.091429  -0.000254  1.045665  -0.002
H  H7  1  0.57566907  0.12153327  0.55677164  1  0.08943  -0.000274  0.970172  0.001  0.09351  5.7e-05  1.043444  0.001  0.09644  -0.000141  1.040199  0.001  0.118902  0.091452  0.000254  1.045637  0.002
H  H8  1  0.48128514  0.19712756  0.88272775  1  0.089752  -6.8e-05  0.935226  0.0  0.087833  0.000119  1.015245  0.0  0.091741  0.000153  1.010939  0.0  0.115746  0.085195  7e-05  1.018112  0.0
H  H9  1  0.51872001  0.80287471  0.11727636  1  0.089701  7e-05  0.935253  0.0  0.087812  -0.000119  1.015225  0.0  0.091721  -0.000152  1.010917  0.0  0.115759  0.085172  -7e-05  1.018093  0.0
H  H10  1  0.18765044  0.41629563  0.83549954  1  0.120639  -7.2e-05  0.956404  0.0  0.129565  -0.000143  1.014302  0.0  0.133519  -0.000146  1.013392  0.0  0.115593  0.127012  -0.000114  1.014764  0.0
H  H11  1  0.81234478  0.58370462  0.16449873  1  0.120659  7.5e-05  0.956395  0.0  0.129554  0.000143  1.014329  0.0  0.133508  0.000146  1.01342  0.0  0.115606  0.127  0.000114  1.014791  0.0
H  H12  1  0.78255689  0.40648112  0.99296760  1  0.087501  -2.3e-05  0.95244  -0.001  0.09584  -0.000386  1.018263  -0.001  0.099093  -0.00027  1.015665  -0.001  0.120786  0.09361  -0.00052  1.02021  -0.002
H  H13  1  0.21743241  0.59351496  0.00702884  1  0.087514  1.9e-05  0.952463  0.001  0.095869  0.000385  1.018269  0.001  0.099122  0.00027  1.015671  0.001  0.120768  0.093645  0.00052  1.020196  0.002
C  C14  1  0.93782139  0.95893881  0.22854215  1  0.300527  0.004209  3.763203  0.004  0.280139  0.001071  4.023593  0.001  0.294139  0.001546  4.038571  0.002  0.249018  0.270614  0.000761  4.014505  0.0
C  C15  1  0.06218381  0.04106139  0.77145916  1  0.300492  -0.004137  3.763229  -0.003  0.280082  -0.001073  4.023692  -0.001  0.294089  -0.001546  4.038668  -0.002  0.248962  0.270562  -0.000761  4.014596  0.0
C  C16  1  0.98623811  0.72934834  0.35451053  1  0.169718  0.004369  3.67245  0.004  0.143291  0.001827  3.924316  0.002  0.154778  0.002124  3.936366  0.002  0.069129  0.135835  0.001554  3.915594  0.002
C  C17  1  0.01377304  0.27065391  0.64549332  1  0.169729  -0.004269  3.672424  -0.004  0.143277  -0.001827  3.924258  -0.002  0.154766  -0.002119  3.936308  -0.002  0.069066  0.135824  -0.001554  3.915539  -0.002
C  C18  1  0.74625071  0.73458755  0.42532372  1  -0.148044  -0.005214  3.662841  -0.005  -0.153778  -0.002795  3.897191  -0.003  -0.164486  -0.002677  3.915355  -0.003  -0.069233  -0.146906  -0.002978  3.884658  -0.003
C  C19  1  0.25375646  0.26541367  0.57467977  1  -0.148073  0.005124  3.662878  0.005  -0.153796  0.002796  3.897241  0.003  -0.164496  0.002669  3.91539  0.003  -0.069244  -0.146922  0.002977  3.884713  0.003
C  C20  1  0.61018464  0.86283483  0.39196467  1  0.199659  0.004671  3.641079  0.005  0.165723  0.001383  3.892862  0.002  0.17985  0.00222  3.905614  0.003  0.072697  0.157128  0.000632  3.884203  0.002
C  C21  1  0.38981457  0.13716539  0.60803517  1  0.19966  -0.004621  3.641005  -0.005  0.165709  -0.001383  3.892797  -0.002  0.179838  -0.002213  3.905553  -0.003  0.072701  0.157117  -0.000633  3.884139  -0.002
C  C22  1  0.02246677  0.08639918  0.11836544  1  0.295688  0.004637  3.765387  0.004  0.273521  0.001465  4.034484  0.001  0.287184  0.001955  4.048807  0.002  0.249135  0.26404  0.001076  4.026545  0.001
C  C23  1  0.97754043  0.91360103  0.88163317  1  0.295659  -0.004665  3.765493  -0.004  0.273395  -0.001463  4.034756  -0.001  0.287059  -0.001959  4.049076  -0.002  0.249095  0.263913  -0.001077  4.026814  -0.001
C  C24  1  0.30108452  0.20135843  0.94373046  1  0.180318  0.004993  3.638027  0.004  0.151566  0.002484  3.901334  0.002  0.16176  0.002683  3.914756  0.002  0.070064  0.144688  0.002322  3.892194  0.002
C  C25  1  0.69891862  0.79864491  0.05627165  1  0.180413  -0.005015  3.637945  -0.004  0.151675  -0.002488  3.901213  -0.002  0.161871  -0.002681  3.914633  -0.002  0.070123  0.144791  -0.002322  3.892076  -0.002
C  C26  1  0.14091408  0.32224880  0.91838980  1  -0.145189  -0.005946  3.66484  -0.006  -0.153406  -0.003367  3.904563  -0.004  -0.162837  -0.003131  3.92251  -0.004  -0.069316  -0.147143  -0.003543  3.89209  -0.004
C  C27  1  0.85908315  0.67775039  0.08160872  1  -0.145196  0.005944  3.664859  0.006  -0.153407  0.003371  3.9046  0.004  -0.162836  0.003125  3.922544  0.004  -0.069425  -0.147145  0.003542  3.892122  0.004
C  C28  1  0.91825393  0.31729298  0.00250611  1  0.189361  0.004887  3.64179  0.005  0.160955  0.001333  3.885571  0.002  0.17411  0.002101  3.898505  0.003  0.073478  0.152864  0.000691  3.877073  0.001
C  C29  1  0.08173136  0.68270310  0.99749312  1  0.189116  -0.004867  3.641862  -0.005  0.160722  -0.001337  3.885607  -0.002  0.173872  -0.002095  3.898548  -0.003  0.073404  0.152636  -0.00069  3.877103  -0.001
N  N30  1  0.83915625  0.23663313  0.36515002  1  -0.387356  -0.128175  2.478122  -0.13  -0.410953  -0.066097  2.751274  -0.071  -0.431009  -0.057807  2.76319  -0.065  -0.207418  -0.399866  -0.07042  2.744026  -0.073
N  N31  1  0.16083899  0.76336394  0.63485365  1  -0.3874  0.128185  2.478117  0.13  -0.410998  0.066103  2.751277  0.071  -0.431061  0.057812  2.763188  0.065  -0.207404  -0.399912  0.070425  2.744023  0.073
N  N32  1  0.04279884  0.17519825  0.36563055  1  0.376187  0.026927  4.200682  0.038  0.423985  0.002146  4.503512  0.008  0.443497  0.005141  4.542648  0.011  0.078292  0.412369  -0.001054  4.478173  0.005
N  N33  1  0.95719835  0.82480302  0.63436990  1  0.376256  -0.026926  4.200691  -0.038  0.424047  -0.00215  4.503546  -0.008  0.443563  -0.005144  4.542675  -0.011  0.078289  0.412432  0.001053  4.47819  -0.005
N  N34  1  0.24521342  0.10779431  0.36878483  1  -0.467928  -0.07526  2.700631  -0.084  -0.494188  -0.038052  3.032373  -0.046  -0.531691  -0.02311  3.046662  -0.031  -0.295365  -0.472969  -0.046335  3.02417  -0.053
N  N35  1  0.75478775  0.89220801  0.63121423  1  -0.467921  0.075256  2.700578  0.084  -0.494181  0.038051  3.032321  0.046  -0.531679  0.023113  3.04659  0.031  -0.295369  -0.472976  0.046334  3.024133  0.053
N  N36  1  0.41369475  0.36396674  0.16082776  1  -0.494151  -0.084989  2.681889  -0.094  -0.534426  -0.044877  3.022031  -0.054  -0.574728  -0.028433  3.037713  -0.038  -0.320943  -0.512411  -0.053295  3.013897  -0.061
N  N37  1  0.58630450  0.63603141  0.83917015  1  -0.494264  0.084983  2.682073  0.094  -0.534555  0.044873  3.022233  0.054  -0.574861  0.028426  3.037907  0.038  -0.321029  -0.512548  0.053294  3.014108  0.061
N  N38  1  0.38950158  0.43437967  0.22481750  1  0.368778  0.02938  4.203564  0.042  0.418891  0.003171  4.512601  0.011  0.437997  0.006744  4.549505  0.014  0.07873  0.407289  -0.00048  4.489096  0.007
N  N39  1  0.61049167  0.56561956  0.77517772  1  0.368933  -0.0294  4.20367  -0.042  0.41906  -0.003172  4.512687  -0.011  0.438165  -0.006746  4.549583  -0.014  0.078834  0.407458  0.000479  4.48917  -0.007
N  N40  1  0.36622862  0.50773837  0.28244558  1  -0.368139  -0.141053  2.397873  -0.142  -0.388812  -0.074266  2.638633  -0.078  -0.404779  -0.064874  2.652271  -0.072  -0.184601  -0.379422  -0.078353  2.630144  -0.08
N  N41  1  0.63375663  0.49226089  0.71754913  1  -0.368174  0.141082  2.397856  0.142  -0.388878  0.074267  2.638626  0.078  -0.40484  0.064885  2.652256  0.072  -0.18463  -0.379491  0.078351  2.63013  0.08
N  N42  1  0.70608374  0.97437249  0.29347356  1  -0.355577  -0.053193  3.285633  -0.059  -0.30331  -0.0512  3.571001  -0.062  -0.332802  -0.046406  3.586145  -0.059  -0.339608  -0.287002  -0.05314  3.562927  -0.063
N  N43  1  0.29391747  0.02562668  0.70652741  1  -0.35554  0.053143  3.285524  0.059  -0.303279  0.051201  3.570914  0.062  -0.332807  0.046405  3.586109  0.059  -0.339579  -0.286983  0.05314  3.562874  0.063
N  N44  1  0.08264492  0.84091555  0.25541948  1  -0.335066  -0.00895  3.024178  -0.009  -0.303486  -0.006542  3.294295  -0.007  -0.31914  -0.004494  3.307995  -0.005  -0.296437  -0.292532  -0.008701  3.284601  -0.009
N  N45  1  0.91736230  0.15908253  0.74458331  1  -0.335084  0.008877  3.024188  0.009  -0.303415  0.006543  3.294221  0.007  -0.319068  0.004492  3.307918  0.005  -0.296367  -0.292463  0.008701  3.284541  0.009
N  N46  1  0.85837651  0.19906756  0.10196781  1  -0.358541  -0.053146  3.295965  -0.06  -0.30381  -0.051878  3.574376  -0.063  -0.333353  -0.046876  3.591442  -0.06  -0.334334  -0.287552  -0.053929  3.565367  -0.064
N  N47  1  0.14161872  0.80093271  0.89802610  1  -0.358282  0.053154  3.295855  0.06  -0.303515  0.051881  3.574263  0.063  -0.333051  0.046878  3.591328  0.06  -0.33418  -0.287261  0.053929  3.565254  0.064
N  N48  1  0.24243723  0.08327763  0.04397941  1  -0.323539  -0.008758  3.006493  -0.01  -0.302543  -0.006011  3.293746  -0.007  -0.317453  -0.003885  3.305022  -0.005  -0.295342  -0.292405  -0.008371  3.286657  -0.009
N  N49  1  0.75756595  0.91672362  0.95602164  1  -0.323576  0.008783  3.006447  0.01  -0.302584  0.006011  3.293772  0.007  -0.3175  0.003887  3.305052  0.005  -0.295371  -0.292448  0.008372  3.286685  0.009
