# generated using pymatgen
data_Zn3H30C44(N3O10)2
_symmetry_space_group_name_H-M   'P 1'
_cell_length_a   9.76220138
_cell_length_b   11.33675186
_cell_length_c   12.10071883
_cell_angle_alpha   70.47741480
_cell_angle_beta   69.74274777
_cell_angle_gamma   73.31942848
_symmetry_Int_Tables_number   1
_chemical_formula_structural   Zn3H30C44(N3O10)2
_chemical_formula_sum   'Zn3 H30 C44 N6 O20'
_cell_volume   1161.70186017
_cell_formula_units_Z   1
loop_
 _symmetry_equiv_pos_site_id
 _symmetry_equiv_pos_as_xyz
  1  'x, y, z'
loop_
 _atom_site_type_symbol
 _atom_site_label
 _atom_site_symmetry_multiplicity
 _atom_site_fract_x
 _atom_site_fract_y
 _atom_site_fract_z
 _atom_site_occupancy
 _atom_site_hle17_bader_spin_density
 _atom_site_hle17_ddec_charge
 _atom_site_hle17_ddec_spin_density
 _atom_site_hle17_ddec_sum_bond_order
 _atom_site_hle17_magmom
 _atom_site_hse06_10hf_bader_spin_density
 _atom_site_hse06_10hf_ddec_charge
 _atom_site_hse06_10hf_ddec_spin_density
 _atom_site_hse06_10hf_ddec_sum_bond_order
 _atom_site_hse06_10hf_magmom
 _atom_site_hse06_bader_spin_density
 _atom_site_hse06_ddec_charge
 _atom_site_hse06_ddec_spin_density
 _atom_site_hse06_ddec_sum_bond_order
 _atom_site_hse06_magmom
 _atom_site_pbe_bader_spin_density
 _atom_site_pbe_cm5_charge
 _atom_site_pbe_ddec_charge
 _atom_site_pbe_ddec_spin_density
 _atom_site_pbe_ddec_sum_bond_order
 _atom_site_pbe_magmom
Zn  Zn0  1  0.14555307  0.68156223  0.49440870  1  0  1.120218  0  1.741858  0  0  0.949268  0  2.196817  0  0  0.998518  0  2.137758  0  0  0.686342  0.913346  0  2.239028  0
Zn  Zn1  1  0.85444573  0.31844125  0.50558663  1  0  1.120216  0  1.741841  0  0  0.949293  0  2.19681  0  0  0.998553  0  2.13774  0  0  0.686329  0.913372  0  2.239018  0
Zn  Zn2  1  0.99999629  0.00000052  0.50000198  1  0  1.253584  0  1.701633  0  0  1.090721  0  2.167757  0  0  1.140931  0  2.101188  0  0  0.703958  1.054924  0  2.215452  0
H  H3  1  0.72865282  0.91840507  0.67536028  1  0  0.136106  0  0.987775  0  0  0.140951  0  1.055016  0  0  0.145177  0  1.051969  0  0  0.112487  0.137818  0  1.057295  0
H  H4  1  0.27134770  0.08159073  0.32464354  1  0  0.136054  0  0.987849  0  0  0.140891  0  1.055097  0  0  0.145118  0  1.052047  0  0  0.112448  0.137756  0  1.057378  0
H  H5  1  0.26559074  0.97002411  0.69798653  1  0  0.133663  0  0.917735  0  0  0.144296  0  0.972578  0  0  0.148562  0  0.969315  0  0  0.115774  0.140893  0  0.975379  0
H  H6  1  0.73440962  0.02997739  0.30201888  1  0  0.133711  0  0.917686  0  0  0.144303  0  0.972589  0  0  0.148569  0  0.969328  0  0  0.115781  0.140913  0  0.975372  0
H  H7  1  0.59542483  0.73245679  0.48044872  1  0  0.106319  0  0.949383  0  0  0.112488  0  1.018093  0  0  0.116915  0  1.0137  0  0  0.107821  0.109302  0  1.02145  0
H  H8  1  0.40456937  0.26754286  0.51955405  1  0  0.106305  0  0.949309  0  0  0.112476  0  1.018029  0  0  0.116902  0  1.013636  0  0  0.107829  0.109292  0  1.021386  0
H  H9  1  0.48475342  0.80320050  0.90521783  1  0  0.118311  0  0.958862  0  0  0.126812  0  1.019385  0  0  0.129561  0  1.02048  0  0  0.107558  0.12486  0  1.018741  0
H  H10  1  0.51524493  0.19679529  0.09478992  1  0  0.118349  0  0.958792  0  0  0.126819  0  1.019359  0  0  0.129561  0  1.02046  0  0  0.107498  0.124864  0  1.018713  0
H  H11  1  0.36683234  0.74604255  0.12922020  1  0  0.106957  0  0.957166  0  0  0.113747  0  1.023062  0  0  0.116893  0  1.020612  0  0  0.110071  0.111522  0  1.024782  0
H  H12  1  0.63315928  0.25395898  0.87078766  1  0  0.106945  0  0.957161  0  0  0.11375  0  1.023065  0  0  0.116898  0  1.020607  0  0  0.110036  0.111522  0  1.024783  0
H  H13  1  0.16277864  0.13844718  0.11403277  1  0  0.122686  0  0.942756  0  0  0.128606  0  1.009323  0  0  0.132264  0  1.006274  0  0  0.115977  0.125851  0  1.011752  0
H  H14  1  0.83721690  0.86155628  0.88596761  1  0  0.122717  0  0.94273  0  0  0.128633  0  1.009294  0  0  0.132294  0  1.006246  0  0  0.115983  0.125878  0  1.011729  0
H  H15  1  0.06236793  0.73128074  0.75344502  1  0  0.10866  0  0.960401  0  0  0.11969  0  1.017819  0  0  0.122181  0  1.016624  0  0  0.116036  0.117779  0  1.018817  0
H  H16  1  0.93763583  0.26871990  0.24654236  1  0  0.108634  0  0.960384  0  0  0.119602  0  1.017899  0  0  0.122091  0  1.016706  0  0  0.116062  0.117731  0  1.018854  0
H  H17  1  0.99110021  0.42378379  0.67082257  1  0  0.1117  0  0.950868  0  0  0.120293  0  1.015905  0  0  0.123253  0  1.012131  0  0  0.136487  0.118012  0  1.018763  0
H  H18  1  0.00890006  0.57621301  0.32917275  1  0  0.111728  0  0.950816  0  0  0.12029  0  1.015885  0  0  0.123249  0  1.012112  0  0  0.136484  0.118012  0  1.018745  0
H  H19  1  0.87656776  0.59637220  0.96020824  1  0  0.115665  0  0.998921  0  0  0.121643  0  1.066886  0  0  0.124445  0  1.065773  0  0  0.115677  0.119541  0  1.06782  0
H  H20  1  0.12343951  0.40362744  0.03978340  1  0  0.115774  0  0.998931  0  0  0.121664  0  1.066971  0  0  0.124471  0  1.065844  0  0  0.115702  0.119573  0  1.067889  0
H  H21  1  0.86106308  0.33798956  0.99551616  1  0  0.087364  0  0.914673  0  0  0.10263  0  0.974462  0  0  0.103795  0  0.973361  0  0  0.113142  0.101478  0  0.975511  0
H  H22  1  0.13894792  0.66200814  0.00447834  1  0  0.087316  0  0.914646  0  0  0.102643  0  0.974388  0  0  0.103806  0  0.973285  0  0  0.113146  0.101493  0  0.975439  0
H  H23  1  0.83100215  0.32183617  0.86523358  1  0  0.09551  0  0.926675  0  0  0.110152  0  0.989658  0  0  0.111141  0  0.988944  0  0  0.118649  0.109291  0  0.9903  0
H  H24  1  0.16900032  0.67816061  0.13476362  1  0  0.095523  0  0.926606  0  0  0.11017  0  0.989609  0  0  0.111154  0  0.988894  0  0  0.118669  0.109311  0  0.990252  0
H  H25  1  0.64589261  0.39070064  0.15093474  1  0  0.09293  0  0.948617  0  0  0.103169  0  1.009222  0  0  0.105815  0  1.008711  0  0  0.099691  0.101645  0  1.008968  0
H  H26  1  0.35411887  0.60929990  0.84906288  1  0  0.09298  0  0.948691  0  0  0.103231  0  1.009263  0  0  0.105877  0  1.008755  0  0  0.099718  0.101709  0  1.009009  0
H  H27  1  0.62275532  0.51760262  0.77887879  1  0  0.10335  0  0.959432  0  0  0.112191  0  1.024166  0  0  0.115319  0  1.022664  0  0  0.100798  0.109857  0  1.025451  0
H  H28  1  0.37725507  0.48239791  0.22112079  1  0  0.103288  0  0.95933  0  0  0.112118  0  1.02408  0  0  0.115244  0  1.022581  0  0  0.100809  0.109785  0  1.025362  0
H  H29  1  0.36422499  0.49400312  0.44431157  1  0  0.429362  0  0.808618  0  0  0.415221  0  0.856003  0  0  0.423172  0  0.847252  0  0  0.329342  0.40935  0  0.862704  0
H  H30  1  0.63577708  0.50599555  0.55568929  1  0  0.429368  0  0.808652  0  0  0.415226  0  0.856038  0  0  0.42318  0  0.847282  0  0  0.329339  0.409355  0  0.86274  0
H  H31  1  0.21840726  0.43949327  0.46901727  1  0  0.424794  0  0.886389  0  0  0.388284  0  0.959939  0  0  0.399902  0  0.943321  0  0  0.287411  0.380129  0  0.971567  0
H  H32  1  0.78159374  0.56051018  0.53098075  1  0  0.424768  0  0.886419  0  0  0.388245  0  0.959995  0  0  0.399865  0  0.943372  0  0  0.287414  0.380093  0  0.971618  0
C  C33  1  0.84027090  0.76460486  0.52390130  1  0  0.674631  0  3.850544  0  0  0.620642  0  4.137149  0  0  0.655765  0  4.129713  0  0  0.219902  0.596818  0  4.141392  0
C  C34  1  0.15972658  0.23539478  0.47609972  1  0  0.674578  0  3.85074  0  0  0.620602  0  4.137309  0  0  0.655726  0  4.129871  0  0  0.219871  0.596778  0  4.141552  0
C  C35  1  0.67972000  0.81725384  0.57400471  1  0  -0.055034  0  3.768133  0  0  -0.026822  0  4.004868  0  0  -0.036087  0  4.028438  0  0  -0.017266  -0.021085  0  3.989461  0
C  C36  1  0.32027551  0.18274484  0.42599881  1  0  -0.055018  0  3.768077  0  0  -0.026832  0  4.004835  0  0  -0.0361  0  4.028406  0  0  -0.017243  -0.021099  0  3.98943  0
C  C37  1  0.64247417  0.89635772  0.65176562  1  0  -0.148671  0  3.673637  0  0  -0.189132  0  3.926355  0  0  -0.18842  0  3.942696  0  0  -0.085228  -0.188449  0  3.914692  0
C  C38  1  0.35752546  0.10363714  0.34823792  1  0  -0.148608  0  3.673683  0  0  -0.189076  0  3.926338  0  0  -0.188364  0  3.94267  0  0  -0.085231  -0.188393  0  3.91467  0
C  C39  1  0.49425781  0.94957725  0.69523045  1  0  0.250133  0  3.795254  0  0  0.246859  0  4.06284  0  0  0.253055  0  4.079401  0  0  0.078163  0.242174  0  4.050909  0
C  C40  1  0.50574121  0.05042046  0.30477404  1  0  0.249988  0  3.795539  0  0  0.24681  0  4.062977  0  0  0.253014  0  4.079526  0  0  0.07814  0.242119  0  4.051052  0
C  C41  1  0.38141847  0.92487580  0.66605124  1  0  -0.152935  0  3.70052  0  0  -0.191437  0  3.953909  0  0  -0.191209  0  3.971169  0  0  -0.08109  -0.190402  0  3.94155  0
C  C42  1  0.61858033  0.07512286  0.33395219  1  0  -0.152925  0  3.700554  0  0  -0.191447  0  3.953942  0  0  -0.191222  0  3.971199  0  0  -0.081103  -0.190418  0  3.941574  0
C  C43  1  0.41866675  0.84360956  0.59053185  1  0  -0.047087  0  3.76382  0  0  -0.018656  0  3.998196  0  0  -0.027807  0  4.022639  0  0  -0.013983  -0.012935  0  3.982  0
C  C44  1  0.58132746  0.15639008  0.40947257  1  0  -0.047142  0  3.763868  0  0  -0.018661  0  3.998202  0  0  -0.02781  0  4.022641  0  0  -0.013934  -0.012942  0  3.982008  0
C  C45  1  0.56780954  0.79006283  0.54423201  1  0  -0.07536  0  3.693957  0  0  -0.119372  0  3.949676  0  0  -0.116546  0  3.968101  0  0  -0.0775  -0.121555  0  3.938432  0
C  C46  1  0.43218707  0.20993585  0.45577203  1  0  -0.075269  0  3.693868  0  0  -0.119306  0  3.949607  0  0  -0.116481  0  3.968031  0  0  -0.077497  -0.121491  0  3.938361  0
C  C47  1  0.39515665  0.00422296  0.88312619  1  0  0.268724  0  3.770904  0  0  0.248574  0  4.038059  0  0  0.262694  0  4.053145  0  0  0.106194  0.238899  0  4.028003  0
C  C48  1  0.60484126  0.99577476  0.11687696  1  0  0.268839  0  3.77052  0  0  0.248667  0  4.037703  0  0  0.262781  0  4.052783  0  0  0.106213  0.238997  0  4.027642  0
C  C49  1  0.41487065  0.87653270  0.95119506  1  0  -0.2006  0  3.753081  0  0  -0.218951  0  4.011593  0  0  -0.228624  0  4.03348  0  0  -0.10299  -0.212785  0  3.997042  0
C  C50  1  0.58512227  0.12346788  0.04881109  1  0  -0.200707  0  3.752927  0  0  -0.219031  0  4.011456  0  0  -0.228697  0  4.033346  0  0  -0.102952  -0.212862  0  3.996894  0
C  C51  1  0.34689111  0.84448429  0.07565187  1  0  -0.010876  0  3.720961  0  0  -0.045526  0  3.983354  0  0  -0.039498  0  4.000001  0  0  -0.071077  -0.048934  0  3.971777  0
C  C52  1  0.65310289  0.15551630  0.92435232  1  0  -0.010803  0  3.720863  0  0  -0.045472  0  3.983236  0  0  -0.039445  0  3.999883  0  0  -0.071041  -0.048876  0  3.971648  0
C  C53  1  0.25378906  0.93739805  0.13579954  1  0  -0.070321  0  3.741504  0  0  -0.052475  0  3.987537  0  0  -0.06333  0  4.009248  0  0  -0.022141  -0.045745  0  3.973022  0
C  C54  1  0.74620560  0.06260446  0.86420139  1  0  -0.07045  0  3.741611  0  0  -0.052575  0  3.987668  0  0  -0.063432  0  4.009384  0  0  -0.022166  -0.045844  0  3.973153  0
C  C55  1  0.23311888  0.06451752  0.06909481  1  0  -0.079112  0  3.708918  0  0  -0.115081  0  3.963914  0  0  -0.109575  0  3.980173  0  0  -0.072176  -0.118501  0  3.953092  0
C  C56  1  0.76687797  0.93548498  0.93090715  1  0  -0.079063  0  3.708927  0  0  -0.115017  0  3.963895  0  0  -0.109521  0  3.980158  0  0  -0.072137  -0.118441  0  3.953087  0
C  C57  1  0.30460535  0.09792333  0.94438021  1  0  -0.038924  0  3.689421  0  0  -0.047065  0  3.946796  0  0  -0.054673  0  3.96775  0  0  0.067902  -0.042347  0  3.933002  0
C  C58  1  0.69539321  0.90207631  0.05561967  1  0  -0.038983  0  3.68946  0  0  -0.047135  0  3.946857  0  0  -0.054724  0  3.967792  0  0  0.067904  -0.04242  0  3.933071  0
C  C59  1  0.17880788  0.89792731  0.27001353  1  0  0.680475  0  3.867645  0  0  0.627059  0  4.15966  0  0  0.663358  0  4.151217  0  0  0.220134  0.602468  0  4.164726  0
C  C60  1  0.82118461  0.10207519  0.72999049  1  0  0.68056  0  3.867773  0  0  0.627046  0  4.159915  0  0  0.663348  0  4.151469  0  0  0.220102  0.602453  0  4.164984  0
C  C61  1  0.02214152  0.64599306  0.76796361  1  0  0.00157  0  3.746554  0  0  -0.031879  0  4.01368  0  0  -0.02993  0  4.03423  0  0  -0.009258  -0.033217  0  3.999641  0
C  C62  1  0.97785872  0.35400377  0.23202758  1  0  0.001659  0  3.746458  0  0  -0.031732  0  4.013603  0  0  -0.029777  0  4.034147  0  0  -0.009312  -0.033106  0  3.999553  0
C  C63  1  0.98673298  0.49040673  0.71941258  1  0  0.181491  0  3.622826  0  0  0.117258  0  3.891147  0  0  0.132146  0  3.902544  0  0  0.14405  0.107376  0  3.883456  0
C  C64  1  0.01327122  0.50959197  0.28057940  1  0  0.181285  0  3.622814  0  0  0.11709  0  3.891148  0  0  0.131981  0  3.902546  0  0  0.144013  0.107202  0  3.883459  0
C  C65  1  0.92774675  0.58238374  0.86939942  1  0  -0.076545  0  3.687203  0  0  -0.118391  0  3.949602  0  0  -0.118116  0  3.970025  0  0  -0.008894  -0.11815  0  3.93569  0
C  C66  1  0.07225657  0.41761401  0.13059392  1  0  -0.076768  0  3.687216  0  0  -0.118547  0  3.949639  0  0  -0.11827  0  3.970066  0  0  -0.008904  -0.118308  0  3.935733  0
C  C67  1  0.81569291  0.38984485  0.91735323  1  0  -0.04065  0  3.645892  0  0  -0.108897  0  3.897909  0  0  -0.10408  0  3.907949  0  0  -0.043326  -0.111856  0  3.891085  0
C  C68  1  0.18431503  0.61015189  0.08264491  1  0  -0.040775  0  3.645691  0  0  -0.109103  0  3.897788  0  0  -0.104276  0  3.907821  0  0  -0.043412  -0.112063  0  3.890968  0
C  C69  1  0.65268463  0.44804445  0.96011227  1  0  0.060749  0  3.758209  0  0  0.078696  0  4.000872  0  0  0.077505  0  4.026232  0  0  -0.014442  0.079387  0  3.983733  0
C  C70  1  0.34732379  0.55195514  0.03988733  1  0  0.06092  0  3.758084  0  0  0.078826  0  4.000805  0  0  0.077632  0  4.026162  0  0  -0.014378  0.079512  0  3.983676  0
C  C71  1  0.58192818  0.43823374  0.08441489  1  0  -0.115122  0  3.757001  0  0  -0.131901  0  4.001305  0  0  -0.134656  0  4.023596  0  0  -0.090599  -0.13008  0  3.985949  0
C  C72  1  0.41808111  0.56176679  0.91558418  1  0  -0.115245  0  3.756852  0  0  -0.132  0  4.001156  0  0  -0.134755  0  4.023448  0  0  -0.090636  -0.130181  0  3.98581  0
C  C73  1  0.56926624  0.51055786  0.87586809  1  0  -0.108563  0  3.731816  0  0  -0.127366  0  3.978127  0  0  -0.130096  0  3.999822  0  0  -0.092944  -0.125489  0  3.963541  0
C  C74  1  0.43074828  0.48944365  0.12412425  1  0  -0.10847  0  3.73202  0  0  -0.127227  0  3.978299  0  0  -0.129954  0  3.999996  0  0  -0.092931  -0.125349  0  3.963708  0
C  C75  1  0.29575464  0.82031851  0.55772087  1  0  0.665497  0  3.890341  0  0  0.613968  0  4.182638  0  0  0.648897  0  4.175004  0  0  0.213894  0.59013  0  4.187058  0
C  C76  1  0.70424112  0.17968398  0.44228223  1  0  0.665536  0  3.890377  0  0  0.613988  0  4.1827  0  0  0.648917  0  4.175064  0  0  0.213827  0.590145  0  4.187127  0
N  N77  1  0.28092212  0.23203882  0.87835340  1  0  0.517672  0  3.906812  0  0  0.546292  0  4.206077  0  0  0.568572  0  4.211699  0  0  0.055168  0.531287  0  4.202362  0
N  N78  1  0.71907974  0.76796080  0.12164722  1  0  0.517822  0  3.906825  0  0  0.546456  0  4.206067  0  0  0.568731  0  4.211683  0  0  0.055229  0.531448  0  4.202359  0
N  N79  1  0.05819318  0.58778450  0.67484630  1  0  -0.406301  0  3.295494  0  0  -0.330221  0  3.586034  0  0  -0.351782  0  3.600716  0  0  -0.357209  -0.31567  0  3.575894  0
N  N80  1  0.94180488  0.41221233  0.32514634  1  0  -0.406278  0  3.295513  0  0  -0.33024  0  3.586078  0  0  -0.351802  0  3.600753  0  0  -0.357236  -0.315688  0  3.57595  0
N  N81  1  0.90600440  0.48493348  0.83679158  1  0  -0.053024  0  3.581036  0  0  0.041399  0  3.799263  0  0  0.026385  0  3.825926  0  0  -0.241018  0.051213  0  3.78092  0
N  N82  1  0.09400376  0.51506711  0.16320035  1  0  -0.052758  0  3.580903  0  0  0.041703  0  3.799062  0  0  0.026684  0  3.825731  0  0  -0.24094  0.051519  0  3.780715  0
O  O83  1  0.93767769  0.81754688  0.52818988  1  0  -0.677259  0  2.173827  0  0  -0.599441  0  2.453319  0  0  -0.630355  0  2.438614  0  0  -0.304165  -0.577674  0  2.463457  0
O  O84  1  0.06231631  0.18245372  0.47181348  1  0  -0.677329  0  2.173948  0  0  -0.599469  0  2.453382  0  0  -0.630393  0  2.438692  0  0  -0.304141  -0.577694  0  2.463504  0
O  O85  1  0.87823260  0.66709856  0.48282753  1  0  -0.630211  0  1.986781  0  0  -0.573148  0  2.214176  0  0  -0.599116  0  2.203403  0  0  -0.307385  -0.554671  0  2.220606  0
O  O86  1  0.12176380  0.33290588  0.51716818  1  0  -0.630214  0  1.986839  0  0  -0.573144  0  2.214182  0  0  -0.599109  0  2.203406  0  0  -0.307392  -0.554667  0  2.220615  0
O  O87  1  0.45842178  0.04047007  0.76093972  1  0  -0.271445  0  2.371643  0  0  -0.206877  0  2.597674  0  0  -0.225724  0  2.601324  0  0  -0.140041  -0.193275  0  2.594589  0
O  O88  1  0.54157965  0.95952666  0.23906687  1  0  -0.271444  0  2.371503  0  0  -0.206883  0  2.597502  0  0  -0.225732  0  2.601151  0  0  -0.140043  -0.193282  0  2.594418  0
O  O89  1  0.38461130  0.27373625  0.79343435  1  0  -0.329746  0  1.709941  0  0  -0.32124  0  1.907108  0  0  -0.3293  0  1.901246  0  0  -0.122502  -0.315904  0  1.911272  0
O  O90  1  0.61539555  0.72626050  0.20656410  1  0  -0.329789  0  1.709997  0  0  -0.321285  0  1.907165  0  0  -0.329353  0  1.901311  0  0  -0.122538  -0.315946  0  1.911325  0
O  O91  1  0.15585570  0.29813196  0.91316124  1  0  -0.385254  0  1.789441  0  0  -0.368792  0  2.003647  0  0  -0.382043  0  1.99969  0  0  -0.136361  -0.359836  0  2.006392  0
O  O92  1  0.84414816  0.70187338  0.08683622  1  0  -0.385298  0  1.789397  0  0  -0.368878  0  2.003616  0  0  -0.382124  0  1.999657  0  0  -0.136372  -0.359915  0  2.006358  0
O  O93  1  0.17907333  0.77920843  0.31487484  1  0  -0.622969  0  2.060841  0  0  -0.558957  0  2.324532  0  0  -0.587397  0  2.31046  0  0  -0.314078  -0.539092  0  2.333749  0
O  O94  1  0.82091433  0.22079602  0.68512498  1  0  -0.622977  0  2.060786  0  0  -0.558939  0  2.324503  0  0  -0.587386  0  2.310442  0  0  -0.314042  -0.53907  0  2.333715  0
O  O95  1  0.12277088  0.98606815  0.32513628  1  0  -0.646359  0  2.09569  0  0  -0.577645  0  2.3573  0  0  -0.606072  0  2.342956  0  0  -0.309315  -0.558048  0  2.366936  0
O  O96  1  0.87722729  0.01393337  0.67486809  1  0  -0.646422  0  2.09575  0  0  -0.57765  0  2.357353  0  0  -0.606073  0  2.343006  0  0  -0.309321  -0.558056  0  2.366995  0
O  O97  1  0.17117282  0.89601065  0.57918767  1  0  -0.664067  0  2.091949  0  0  -0.603609  0  2.36468  0  0  -0.630769  0  2.350112  0  0  -0.317777  -0.583819  0  2.374945  0
O  O98  1  0.82882294  0.10399186  0.42081378  1  0  -0.664128  0  2.091972  0  0  -0.603646  0  2.364711  0  0  -0.630807  0  2.350143  0  0  -0.317747  -0.583856  0  2.374984  0
O  O99  1  0.32355641  0.72488377  0.51458081  1  0  -0.625394  0  2.004761  0  0  -0.561653  0  2.257327  0  0  -0.588928  0  2.242541  0  0  -0.318142  -0.542065  0  2.266841  0
O  O100  1  0.67643956  0.27511778  0.48542088  1  0  -0.625322  0  2.004711  0  0  -0.561629  0  2.257333  0  0  -0.588911  0  2.242552  0  0  -0.318129  -0.542037  0  2.266843  0
O  O101  1  0.26583450  0.51818645  0.43134013  1  0  -0.809486  0  1.885734  0  0  -0.750995  0  2.094789  0  0  -0.771604  0  2.062989  0  0  -0.559736  -0.736296  0  2.117136  0
O  O102  1  0.73416823  0.48181413  0.56865830  1  0  -0.809488  0  1.885743  0  0  -0.750998  0  2.094812  0  0  -0.771612  0  2.063007  0  0  -0.559752  -0.736301  0  2.117153  0
