# generated using pymatgen
data_Cu2H19C13SI2N3O
_symmetry_space_group_name_H-M   'P 1'
_cell_length_a   8.69444655
_cell_length_b   9.62376002
_cell_length_c   11.73849986
_cell_angle_alpha   93.40156324
_cell_angle_beta   110.12005397
_cell_angle_gamma   96.99101543
_symmetry_Int_Tables_number   1
_chemical_formula_structural   Cu2H19C13SI2N3O
_chemical_formula_sum   'Cu4 H38 C26 S2 I4 N6 O2'
_cell_volume   909.98937472
_cell_formula_units_Z   2
loop_
 _symmetry_equiv_pos_site_id
 _symmetry_equiv_pos_as_xyz
  1  'x, y, z'
loop_
 _atom_site_type_symbol
 _atom_site_label
 _atom_site_symmetry_multiplicity
 _atom_site_fract_x
 _atom_site_fract_y
 _atom_site_fract_z
 _atom_site_occupancy
 _atom_site_hle17_bader_spin_density
 _atom_site_hle17_ddec_charge
 _atom_site_hle17_ddec_spin_density
 _atom_site_hle17_ddec_sum_bond_order
 _atom_site_hle17_magmom
 _atom_site_hse06_10hf_bader_spin_density
 _atom_site_hse06_10hf_ddec_charge
 _atom_site_hse06_10hf_ddec_spin_density
 _atom_site_hse06_10hf_ddec_sum_bond_order
 _atom_site_hse06_10hf_magmom
 _atom_site_hse06_bader_spin_density
 _atom_site_hse06_ddec_charge
 _atom_site_hse06_ddec_spin_density
 _atom_site_hse06_ddec_sum_bond_order
 _atom_site_hse06_magmom
 _atom_site_pbe_bader_spin_density
 _atom_site_pbe_cm5_charge
 _atom_site_pbe_ddec_charge
 _atom_site_pbe_ddec_spin_density
 _atom_site_pbe_ddec_sum_bond_order
 _atom_site_pbe_magmom
Cu  Cu0  1  0.87499448  0.08546971  0.23811321  1  0  0.308414  0  2.268284  0  0  0.235874  0  2.763735  0  0  0.241318  0  2.713236  0  0  0.331456  0.234897  0  2.796179  0
Cu  Cu1  1  0.12499526  0.91453548  0.76188000  1  0  0.308495  0  2.268401  0  0  0.23599  0  2.763891  0  0  0.241411  0  2.713392  0  0  0.331539  0.234995  0  2.796337  0
Cu  Cu2  1  0.57011197  0.93884371  0.09629974  1  0  0.239268  0  2.161574  0  0  0.155464  0  2.643327  0  0  0.172093  0  2.584322  0  0  0.235261  0.145692  0  2.682949  0
Cu  Cu3  1  0.42988524  0.06115519  0.90369593  1  0  0.239225  0  2.161667  0  0  0.155401  0  2.643431  0  0  0.172014  0  2.584421  0  0  0.235252  0.145628  0  2.683066  0
H  H4  1  0.47639494  0.31126550  0.20991405  1  0  0.273982  0  0.940187  0  0  0.25353  0  1.01664  0  0  0.261192  0  1.011056  0  0  0.283176  0.248289  0  1.020715  0
H  H5  1  0.52360577  0.68873237  0.79008673  1  0  0.273961  0  0.94016  0  0  0.253519  0  1.016609  0  0  0.261181  0  1.011026  0  0  0.283181  0.248279  0  1.020678  0
H  H6  1  0.39835446  0.67928682  0.14609059  1  0  0.094053  0  0.994067  0  0  0.096617  0  1.067492  0  0  0.100239  0  1.064291  0  0  0.105705  0.093681  0  1.070495  0
H  H7  1  0.60164731  0.32071001  0.85391126  1  0  0.094054  0  0.994132  0  0  0.096616  0  1.067552  0  0  0.100235  0  1.06436  0  0  0.105705  0.093683  0  1.070553  0
H  H8  1  0.83754413  0.78080079  0.08382097  1  0  0.071032  0  0.967491  0  0  0.078257  0  1.036474  0  0  0.080519  0  1.034976  0  0  0.101226  0.076297  0  1.038277  0
H  H9  1  0.16245499  0.21919496  0.91617760  1  0  0.071025  0  0.967468  0  0  0.078295  0  1.036414  0  0  0.080521  0  1.034955  0  0  0.10125  0.076332  0  1.038222  0
H  H10  1  0.91241281  0.53833585  0.12089486  1  0  0.119414  0  0.956186  0  0  0.124495  0  1.021183  0  0  0.128565  0  1.019046  0  0  0.105931  0.121424  0  1.023175  0
H  H11  1  0.08758791  0.46166201  0.87910421  1  0  0.119397  0  0.95614  0  0  0.124467  0  1.021159  0  0  0.128537  0  1.019021  0  0  0.105923  0.121396  0  1.023147  0
H  H12  1  0.71584782  0.36120811  0.17098328  1  0  0.095539  0  0.987422  0  0  0.099195  0  1.064647  0  0  0.103056  0  1.061034  0  0  0.093524  0.095337  0  1.069362  0
H  H13  1  0.28415431  0.63879082  0.82901791  1  0  0.095562  0  0.987434  0  0  0.099242  0  1.064601  0  0  0.103103  0  1.060988  0  0  0.093544  0.095386  0  1.069314  0
H  H14  1  0.26574175  0.19678878  0.23662201  1  0  0.116456  0  0.964542  0  0  0.12664  0  1.030985  0  0  0.129451  0  1.030298  0  0  0.095166  0.124767  0  1.031484  0
H  H15  1  0.73425933  0.80321119  0.76337725  1  0  0.116511  0  0.964526  0  0  0.126699  0  1.030957  0  0  0.12951  0  1.030271  0  0  0.095191  0.124822  0  1.031453  0
H  H16  1  0.09678481  0.22670468  0.10921984  1  0  0.131103  0  0.947899  0  0  0.143893  0  1.011832  0  0  0.146952  0  1.010218  0  0  0.097577  0.141582  0  1.013339  0
H  H17  1  0.90321504  0.77329529  0.89077911  1  0  0.131123  0  0.947893  0  0  0.14392  0  1.011817  0  0  0.146979  0  1.010202  0  0  0.097579  0.141602  0  1.013322  0
H  H18  1  0.03186101  0.18035724  0.50795185  1  0  0.108743  0  0.962326  0  0  0.125717  0  1.030385  0  0  0.127704  0  1.029387  0  0  0.08266  0.124137  0  1.031331  0
H  H19  1  0.96814320  0.81963959  0.49204977  1  0  0.108793  0  0.962273  0  0  0.125765  0  1.03033  0  0  0.127753  0  1.029332  0  0  0.082688  0.124183  0  1.03128  0
H  H20  1  0.97526181  0.35146444  0.49427397  1  0  0.099186  0  0.975117  0  0  0.120469  0  1.036111  0  0  0.12184  0  1.036167  0  0  0.08104  0.119403  0  1.036233  0
H  H21  1  0.02473836  0.64853028  0.50572738  1  0  0.099251  0  0.975109  0  0  0.120535  0  1.036094  0  0  0.121906  0  1.036151  0  0  0.081082  0.119467  0  1.036223  0
H  H22  1  0.15123375  0.32297115  0.61916274  1  0  0.111505  0  0.956507  0  0  0.133773  0  1.014809  0  0  0.133525  0  1.018518  0  0  0.088127  0.133987  0  1.012166  0
H  H23  1  0.84876782  0.67702462  0.38083731  1  0  0.111499  0  0.95652  0  0  0.133783  0  1.014803  0  0  0.13354  0  1.018503  0  0  0.088141  0.134002  0  1.01215  0
H  H24  1  0.39592632  0.24655332  0.57579455  1  0  0.108945  0  0.946724  0  0  0.134236  0  1.002416  0  0  0.1348  0  1.003976  0  0  0.088614  0.13367  0  1.001673  0
H  H25  1  0.60407599  0.75344666  0.42420502  1  0  0.108935  0  0.946749  0  0  0.13423  0  1.002442  0  0  0.134798  0  1.004  0  0  0.0886  0.133664  0  1.001696  0
H  H26  1  0.41430172  0.25284300  0.43017351  1  0  0.095729  0  0.980997  0  0  0.114206  0  1.048458  0  0  0.115417  0  1.049131  0  0  0.07432  0.113284  0  1.048047  0
H  H27  1  0.58569973  0.74715907  0.56982509  1  0  0.095774  0  0.980944  0  0  0.114233  0  1.048422  0  0  0.115448  0  1.04909  0  0  0.074331  0.113312  0  1.048007  0
H  H28  1  0.27177432  0.11833803  0.45462467  1  0  0.106801  0  0.974049  0  0  0.127181  0  1.036622  0  0  0.12778  0  1.038397  0  0  0.082875  0.126679  0  1.035577  0
H  H29  1  0.72822779  0.88166088  0.54537310  1  0  0.106769  0  0.97413  0  0  0.127173  0  1.036658  0  0  0.12777  0  1.038442  0  0  0.082852  0.126671  0  1.035612  0
H  H30  1  0.17886413  0.55013729  0.45254674  1  0  0.100626  0  0.982272  0  0  0.121573  0  1.044694  0  0  0.122664  0  1.045405  0  0  0.084443  0.120736  0  1.04439  0
H  H31  1  0.82113451  0.44986268  0.54745445  1  0  0.100615  0  0.982287  0  0  0.121567  0  1.044699  0  0  0.122657  0  1.045411  0  0  0.084441  0.120726  0  1.044397  0
H  H32  1  0.35411277  0.50478279  0.42262133  1  0  0.103468  0  0.961151  0  0  0.125662  0  1.021398  0  0  0.126459  0  1.022647  0  0  0.085608  0.125041  0  1.020576  0
H  H33  1  0.64588568  0.49521612  0.57737722  1  0  0.10346  0  0.961151  0  0  0.125651  0  1.021406  0  0  0.126448  0  1.022654  0  0  0.085604  0.125028  0  1.020582  0
H  H34  1  0.34914713  0.50443418  0.57258728  1  0  0.103978  0  0.96212  0  0  0.122258  0  1.030032  0  0  0.123563  0  1.030661  0  0  0.082892  0.12112  0  1.03016  0
H  H35  1  0.65085518  0.49556580  0.42741400  1  0  0.103992  0  0.962117  0  0  0.122271  0  1.030031  0  0  0.123575  0  1.03066  0  0  0.082892  0.121133  0  1.030152  0
H  H36  1  0.36604121  0.86958445  0.31314999  1  0  0.147902  0  0.958721  0  0  0.16166  0  1.026131  0  0  0.164523  0  1.024919  0  0  0.096537  0.159094  0  1.027654  0
H  H37  1  0.63395241  0.13042183  0.68685022  1  0  0.147832  0  0.958681  0  0  0.161609  0  1.026098  0  0  0.164477  0  1.024881  0  0  0.096533  0.159039  0  1.027626  0
H  H38  1  0.23117233  0.70368311  0.27743328  1  0  0.171057  0  0.9492  0  0  0.186717  0  1.006865  0  0  0.189816  0  1.005053  0  0  0.115517  0.184258  0  1.008433  0
H  H39  1  0.76881166  0.29632419  0.72256199  1  0  0.171062  0  0.949167  0  0  0.18674  0  1.006836  0  0  0.189844  0  1.005016  0  0  0.115533  0.184277  0  1.008399  0
H  H40  1  0.30964535  0.79162629  0.43062966  1  0  0.147986  0  0.956457  0  0  0.16627  0  1.015596  0  0  0.168636  0  1.015043  0  0  0.101886  0.164581  0  1.015648  0
H  H41  1  0.69034895  0.20837685  0.56937228  1  0  0.147957  0  0.956405  0  0  0.166257  0  1.015549  0  0  0.168625  0  1.014994  0  0  0.101894  0.16457  0  1.015595  0
C  C42  1  0.51157823  0.64505074  0.14340723  1  0  0.016688  0  3.640884  0  0  -0.020847  0  3.896006  0  0  -0.016622  0  3.91148  0  0  0.027599  -0.023672  0  3.885813  0
C  C43  1  0.48842390  0.35494819  0.85659395  1  0  0.016676  0  3.640998  0  0  -0.020896  0  3.896145  0  0  -0.016685  0  3.911612  0  0  0.027575  -0.023715  0  3.88597  0
C  C44  1  0.75730491  0.70031840  0.10718164  1  0  0.102152  0  3.693363  0  0  0.070287  0  3.945335  0  0  0.075981  0  3.963221  0  0  0.026844  0.066006  0  3.934331  0
C  C45  1  0.24269580  0.29967946  0.89281828  1  0  0.102094  0  3.693143  0  0  0.070149  0  3.945142  0  0  0.075866  0  3.963016  0  0  0.026805  0.065884  0  3.934138  0
C  C46  1  0.79760064  0.56604669  0.12753693  1  0  -0.098447  0  3.740536  0  0  -0.110322  0  3.9928  0  0  -0.116109  0  4.013738  0  0  -0.085274  -0.106719  0  3.979213  0
C  C47  1  0.20240148  0.43395223  0.87246254  1  0  -0.098458  0  3.740399  0  0  -0.110316  0  3.99267  0  0  -0.116102  0  4.0136  0  0  -0.085311  -0.10671  0  3.979077  0
C  C48  1  0.68902875  0.46789677  0.15600853  1  0  -0.110543  0  3.698004  0  0  -0.134075  0  3.947167  0  0  -0.133204  0  3.965184  0  0  -0.077821  -0.134867  0  3.936357  0
C  C49  1  0.31097319  0.53210109  0.84399000  1  0  -0.110539  0  3.69785  0  0  -0.134059  0  3.946999  0  0  -0.133188  0  3.965018  0  0  -0.077807  -0.13485  0  3.936196  0
C  C50  1  0.54224617  0.50706021  0.16356205  1  0  0.204447  0  3.784918  0  0  0.204265  0  4.026426  0  0  0.207852  0  4.049087  0  0  0.097996  0.201787  0  4.010782  0
C  C51  1  0.45775700  0.49293766  0.83643850  1  0  0.204468  0  3.784864  0  0  0.204282  0  4.026401  0  0  0.207868  0  4.049063  0  0  0.098009  0.201788  0  4.010783  0
C  C52  1  0.27389615  0.41195564  0.18293810  1  0  0.591845  0  3.793774  0  0  0.550209  0  4.083703  0  0  0.578338  0  4.084663  0  0  0.238457  0.53138  0  4.082187  0
C  C53  1  0.72610580  0.58804224  0.81706299  1  0  0.591738  0  3.793833  0  0  0.550024  0  4.083902  0  0  0.578131  0  4.084892  0  0  0.238379  0.531197  0  4.08237  0
C  C54  1  0.18337246  0.27402237  0.20004778  1  0  -0.297923  0  3.639919  0  0  -0.330507  0  3.884081  0  0  -0.335689  0  3.890273  0  0  -0.155551  -0.327258  0  3.880329  0
C  C55  1  0.81662617  0.72597761  0.79995257  1  0  -0.29795  0  3.639835  0  0  -0.33053  0  3.884029  0  0  -0.335702  0  3.890222  0  0  -0.155533  -0.327255  0  3.880242  0
C  C56  1  0.19378464  0.32581925  0.44856458  1  0  0.23829  0  3.546159  0  0  0.274931  0  3.785877  0  0  0.277134  0  3.805399  0  0  -0.000162  0.273265  0  3.772458  0
C  C57  1  0.80621748  0.67417967  0.55143575  1  0  0.238455  0  3.546049  0  0  0.274999  0  3.785901  0  0  0.277206  0  3.805423  0  0  -0.000126  0.273326  0  3.772491  0
C  C58  1  0.08072260  0.29303121  0.52148677  1  0  -0.352491  0  3.66481  0  0  -0.428705  0  3.894885  0  0  -0.432109  0  3.905413  0  0  -0.2518  -0.425957  0  3.887372  0
C  C59  1  0.91928038  0.70696562  0.47851453  1  0  -0.352653  0  3.664818  0  0  -0.428868  0  3.894928  0  0  -0.432267  0  3.905439  0  0  -0.251891  -0.426122  0  3.887421  0
C  C60  1  0.32588710  0.22980766  0.47698983  1  0  -0.350912  0  3.67442  0  0  -0.427063  0  3.901083  0  0  -0.430971  0  3.913616  0  0  -0.252328  -0.424099  0  3.892635  0
C  C61  1  0.67411625  0.77019126  0.52300911  1  0  -0.350984  0  3.674481  0  0  -0.427094  0  3.901119  0  0  -0.431013  0  3.91365  0  0  -0.25233  -0.424128  0  3.892666  0
C  C62  1  0.27328095  0.48045008  0.47509111  1  0  -0.351453  0  3.669064  0  0  -0.430991  0  3.904409  0  0  -0.434445  0  3.915544  0  0  -0.250949  -0.428265  0  3.896773  0
C  C63  1  0.72672014  0.51954990  0.52490986  1  0  -0.351474  0  3.669017  0  0  -0.430985  0  3.90438  0  0  -0.434443  0  3.915515  0  0  -0.250956  -0.428266  0  3.896754  0
C  C64  1  0.12590382  0.88062310  0.30601002  1  0  0.424947  0  3.653991  0  0  0.414377  0  3.92812  0  0  0.430153  0  3.940096  0  0  0.211865  0.403132  0  3.920835  0
C  C65  1  0.87407836  0.11939474  0.69398868  1  0  0.424794  0  3.653516  0  0  0.414219  0  3.927719  0  0  0.43001  0  3.939692  0  0  0.211737  0.402965  0  3.920431  0
C  C66  1  0.26566001  0.80632920  0.33317563  1  0  -0.388506  0  3.73741  0  0  -0.451756  0  3.954489  0  0  -0.456547  0  3.956372  0  0  -0.2178  -0.447851  0  3.953773  0
C  C67  1  0.73433673  0.19367394  0.66682608  1  0  -0.388312  0  3.737691  0  0  -0.451614  0  3.954852  0  0  -0.456417  0  3.956736  0  0  -0.217764  -0.447704  0  3.954129  0
S  S68  1  0.04983342  0.29637697  0.28622885  1  0  0.008425  0  2.659726  0  0  0.030084  0  3.060588  0  0  0.029179  0  3.049306  0  0  -0.019501  0.030737  0  3.06813  0
S  S69  1  0.95016803  0.70362511  0.71377146  1  0  0.008343  0  2.659636  0  0  0.030013  0  3.060552  0  0  0.029107  0  3.049267  0  0  -0.019539  0.030668  0  3.068082  0
I  I70  1  0.76050066  0.07464035  0.99268899  1  0  -0.36495  0  1.663468  0  0  -0.306208  0  2.097246  0  0  -0.324086  0  2.058018  0  0  -0.172169  -0.294169  0  2.125849  0
I  I71  1  0.23950232  0.92535647  0.00731061  1  0  -0.364936  0  1.663414  0  0  -0.306232  0  2.097241  0  0  -0.324103  0  2.058006  0  0  -0.172162  -0.294185  0  2.125837  0
I  I72  1  0.62461858  0.09655764  0.31023444  1  0  -0.458765  0  1.438491  0  0  -0.403898  0  1.832182  0  0  -0.420056  0  1.7973  0  0  -0.204224  -0.391481  0  1.856081  0
I  I73  1  0.37538449  0.90344657  0.68977062  1  0  -0.458766  0  1.438521  0  0  -0.403915  0  1.832227  0  0  -0.420069  0  1.797346  0  0  -0.204225  -0.391484  0  1.856126  0
N  N74  1  0.61774668  0.73953389  0.11597288  1  0  -0.24764  0  3.38688  0  0  -0.172413  0  3.675101  0  0  -0.185831  0  3.686155  0  0  -0.359233  -0.163444  0  3.66747  0
N  N75  1  0.38225544  0.26046503  0.88402745  1  0  -0.24758  0  3.386796  0  0  -0.172277  0  3.674976  0  0  -0.185655  0  3.68598  0  0  -0.359182  -0.163327  0  3.667369  0
N  N76  1  0.43335646  0.40526342  0.19020756  1  0  -0.44321  0  3.367401  0  0  -0.385399  0  3.599832  0  0  -0.408144  0  3.610971  0  0  -0.397334  -0.369915  0  3.591725  0
N  N77  1  0.56664549  0.59473445  0.80979268  1  0  -0.443141  0  3.367341  0  0  -0.385337  0  3.599831  0  0  -0.408073  0  3.610973  0  0  -0.397348  -0.369852  0  3.591728  0
N  N78  1  0.01453905  0.94324077  0.28484989  1  0  -0.433902  0  3.113625  0  0  -0.398717  0  3.439562  0  0  -0.407372  0  3.434758  0  0  -0.386747  -0.394287  0  3.443614  0
N  N79  1  0.98546885  0.05675609  0.71515607  1  0  -0.433892  0  3.112829  0  0  -0.398735  0  3.438874  0  0  -0.407384  0  3.434056  0  0  -0.386727  -0.394302  0  3.442922  0
O  O80  1  0.20552588  0.51771477  0.16010461  1  0  -0.543241  0  1.955468  0  0  -0.496931  0  2.170435  0  0  -0.517559  0  2.165672  0  0  -0.285422  -0.482264  0  2.173521  0
O  O81  1  0.79447765  0.48228520  0.83989527  1  0  -0.543171  0  1.955514  0  0  -0.496803  0  2.170496  0  0  -0.517422  0  2.165737  0  0  -0.285346  -0.482138  0  2.173575  0
