# generated using pymatgen
data_CdH22C28(NO)4
_symmetry_space_group_name_H-M   'P 1'
_cell_length_a   9.11924531
_cell_length_b   14.33628960
_cell_length_c   20.69568635
_cell_angle_alpha   110.27545883
_cell_angle_beta   98.45490418
_cell_angle_gamma   90.00695066
_symmetry_Int_Tables_number   1
_chemical_formula_structural   CdH22C28(NO)4
_chemical_formula_sum   'Cd4 H88 C112 N16 O16'
_cell_volume   2506.63414169
_cell_formula_units_Z   4
loop_
 _symmetry_equiv_pos_site_id
 _symmetry_equiv_pos_as_xyz
  1  'x, y, z'
loop_
 _atom_site_type_symbol
 _atom_site_label
 _atom_site_symmetry_multiplicity
 _atom_site_fract_x
 _atom_site_fract_y
 _atom_site_fract_z
 _atom_site_occupancy
 _atom_site_pbe_bader_charge
 _atom_site_pbe_bader_spin_density
 _atom_site_pbe_cm5_charge
 _atom_site_pbe_ddec_charge
 _atom_site_pbe_ddec_spin_density
 _atom_site_pbe_ddec_sum_bond_order
 _atom_site_pbe_magmom
Cd  Cd0  1  0.61039503  0.16300000  0.79509413  1  1.230078  0  0.763181  0.829247  0  2.221468  0
Cd  Cd1  1  0.88943243  0.36826426  0.20490258  1  1.227962  0  0.763095  0.829107  0  2.221186  0
Cd  Cd2  1  0.38960633  0.83700026  0.20490601  1  1.230047  0  0.763186  0.829265  0  2.221404  0
Cd  Cd3  1  0.11056896  0.63173843  0.79509998  1  1.228088  0  0.763102  0.829113  0  2.221178  0
H  H4  1  0.53945170  0.18294322  0.56095236  1  0.100918  0  0.101036  0.106463  0  1.041167  0
H  H5  1  0.50737092  0.88892901  0.56982756  1  0.095956  0  0.103149  0.105354  0  1.016684  0
H  H6  1  0.13233470  0.25413686  0.87568090  1  0.127025  0  0.09983  0.099404  0  1.045145  0
H  H7  1  0.52553375  0.33419972  0.02944819  1  0.068256  0  0.103152  0.111058  0  1.012398  0
H  H8  1  0.90151152  0.15104525  0.70809066  1  0.168261  0  0.134218  0.103422  0  1.022973  0
H  H9  1  0.81309544  0.38464595  0.88680601  1  0.120611  0  0.125089  0.126835  0  0.98731  0
H  H10  1  0.04107550  0.44880137  0.83396520  1  0.138842  0  0.1204  0.120657  0  1.05516  0
H  H11  1  0.14219849  0.37376823  0.71974081  1  0.09022  0  0.116056  0.115526  0  1.000313  0
H  H12  1  0.21800109  0.26784737  0.73640455  1  0.103133  0  0.112516  0.106772  0  0.986345  0
H  H13  1  0.85471484  0.29524123  0.62861257  1  0.102534  0  0.101249  0.105305  0  1.021425  0
H  H14  1  0.79651318  0.20987518  0.50212319  1  0.065095  0  0.099065  0.099741  0  1.02226  0
H  H15  1  0.21591956  0.07099481  0.50375300  1  0.054735  0  0.097596  0.097746  0  1.039025  0
H  H16  1  0.27611503  0.16014452  0.63078552  1  0.106717  0  0.099277  0.105802  0  1.039762  0
H  H17  1  0.73651020  0.06870838  0.40855298  1  0.082913  0  0.0975  0.094598  0  1.051127  0
H  H18  1  0.68844294  0.99584687  0.28051028  1  0.100489  0  0.099647  0.105838  0  1.024738  0
H  H19  1  0.15681179  0.02613618  0.27507200  1  0.088397  0  0.097155  0.100865  0  1.037911  0
H  H20  1  0.20482270  0.09823544  0.40270086  1  0.052738  0  0.099508  0.100986  0  1.033102  0
H  H21  1  0.79420572  0.91103466  0.17150772  1  0.136348  0  0.111418  0.112061  0  1.031012  0
H  H22  1  0.98525353  0.93408843  0.16775227  1  0.05813  0  0.106576  0.092737  0  0.988599  0
H  H23  1  0.94844844  0.17560957  0.24934621  1  0.14989  0  0.136419  0.113901  0  1.028919  0
H  H24  1  0.70011300  0.15872492  0.05664580  1  0.099147  0  0.118727  0.113269  0  1.006178  0
H  H25  1  0.71367307  0.96765954  0.06349622  1  0.104453  0  0.124068  0.125239  0  1.006606  0
H  H26  1  0.96017814  0.62235004  0.43937282  1  0.089448  0  0.100765  0.106244  0  1.041576  0
H  H27  1  0.99271774  0.31919931  0.42985155  1  0.064382  0  0.102972  0.105282  0  1.017043  0
H  H28  1  0.36772326  0.37849072  0.12443601  1  0.076917  0  0.099401  0.098634  0  1.045069  0
H  H29  1  0.97454774  0.30522900  0.97065953  1  0.071668  0  0.103251  0.110824  0  1.012677  0
H  H30  1  0.59849371  0.44305352  0.29179697  1  0.17291  0  0.134407  0.103705  0  1.022556  0
H  H31  1  0.68641645  0.49823259  0.11312654  1  0.125329  0  0.125082  0.127358  0  0.986866  0
H  H32  1  0.45827927  0.61494766  0.16608004  1  0.132353  0  0.120418  0.121098  0  1.054316  0
H  H33  1  0.35750004  0.65402547  0.28040714  1  0.103624  0  0.116247  0.115515  0  0.999167  0
H  H34  1  0.28172838  0.53137051  0.26363542  1  0.108442  0  0.11248  0.10674  0  0.986437  0
H  H35  1  0.64524892  0.66640309  0.37129502  1  0.066056  0  0.10123  0.105713  0  1.02163  0
H  H36  1  0.70362449  0.70766507  0.49780100  1  0.070694  0  0.09902  0.099495  0  1.022397  0
H  H37  1  0.28435744  0.56706114  0.49631211  1  0.060412  0  0.097853  0.098154  0  1.038497  0
H  H38  1  0.22399986  0.52900545  0.36927089  1  0.079967  0  0.099176  0.105494  0  1.040407  0
H  H39  1  0.76353250  0.66018323  0.59145992  1  0.07553  0  0.097241  0.093849  0  1.051579  0
H  H40  1  0.81147436  0.71504027  0.71949398  1  0.098065  0  0.099662  0.106029  0  1.025077  0
H  H41  1  0.34311278  0.75083090  0.72487220  1  0.066125  0  0.096935  0.100915  0  1.03801  0
H  H42  1  0.29521046  0.69556404  0.59724865  1  0.087111  0  0.099271  0.100757  0  1.033453  0
H  H43  1  0.70565087  0.73921960  0.82844317  1  0.134692  0  0.111234  0.112033  0  1.030906  0
H  H44  1  0.51458174  0.76595617  0.83218611  1  0.050469  0  0.106488  0.092623  0  0.989149  0
H  H45  1  0.55160132  0.92582849  0.75053612  1  0.192784  0  0.136368  0.113474  0  1.02973  0
H  H46  1  0.79929037  0.10187613  0.94339613  1  0.121894  0  0.118266  0.112824  0  1.007102  0
H  H47  1  0.78578083  0.90397246  0.93652889  1  0.106189  0  0.123917  0.125264  0  1.007314  0
H  H48  1  0.46054746  0.81705837  0.43904909  1  0.100963  0  0.101055  0.106492  0  1.04116  0
H  H49  1  0.49262935  0.11107216  0.43017348  1  0.096045  0  0.103154  0.105371  0  1.016679  0
H  H50  1  0.86766577  0.74585963  0.12431846  1  0.127006  0  0.099835  0.099429  0  1.045136  0
H  H51  1  0.47446666  0.66579782  0.97055148  1  0.068272  0  0.10315  0.111067  0  1.012382  0
H  H52  1  0.09848872  0.84895446  0.29190894  1  0.168262  0  0.134215  0.103403  0  1.022986  0
H  H53  1  0.18690580  0.61535494  0.11319328  1  0.120602  0  0.125084  0.126848  0  0.987309  0
H  H54  1  0.95892462  0.55119897  0.16603354  1  0.138736  0  0.120424  0.120702  0  1.055164  0
H  H55  1  0.85780293  0.62623196  0.28026000  1  0.09024  0  0.116058  0.115509  0  1.000339  0
H  H56  1  0.78200354  0.73215414  0.26359610  1  0.103158  0  0.112536  0.106797  0  0.986371  0
H  H57  1  0.14528855  0.70476036  0.37138668  1  0.102538  0  0.101211  0.105245  0  1.021448  0
H  H58  1  0.20348928  0.79012466  0.49787654  1  0.065171  0  0.099077  0.099797  0  1.022232  0
H  H59  1  0.78408302  0.92900440  0.49624758  1  0.054717  0  0.097611  0.09779  0  1.038998  0
H  H60  1  0.72388849  0.83985644  0.36921458  1  0.106744  0  0.099277  0.105822  0  1.039747  0
H  H61  1  0.26349116  0.93129188  0.59144716  1  0.082844  0  0.097511  0.094599  0  1.051158  0
H  H62  1  0.31155615  0.00415381  0.71948954  1  0.100488  0  0.099648  0.105872  0  1.024734  0
H  H63  1  0.84318844  0.97386304  0.72492711  1  0.088383  0  0.097129  0.100815  0  1.037986  0
H  H64  1  0.79517993  0.90176175  0.59729846  1  0.052755  0  0.099498  0.101005  0  1.033126  0
H  H65  1  0.20579318  0.08896722  0.82849107  1  0.136304  0  0.111417  0.112054  0  1.030998  0
H  H66  1  0.01474549  0.06591233  0.83224689  1  0.058129  0  0.106578  0.092751  0  0.988583  0
H  H67  1  0.05154973  0.82439131  0.75065603  1  0.149956  0  0.13644  0.113931  0  1.028913  0
H  H68  1  0.29989044  0.84128008  0.94335682  1  0.099184  0  0.118725  0.113279  0  1.006187  0
H  H69  1  0.28632475  0.03234471  0.93650490  1  0.104383  0  0.124062  0.125256  0  1.006639  0
H  H70  1  0.03982453  0.37765104  0.56063036  1  0.089416  0  0.100774  0.106281  0  1.041582  0
H  H71  1  0.00728598  0.68080191  0.57015104  1  0.064207  0  0.10297  0.105311  0  1.0171  0
H  H72  1  0.63227716  0.62150682  0.87556366  1  0.07687  0  0.099431  0.09867  0  1.045102  0
H  H73  1  0.02545156  0.69476799  0.02933958  1  0.07088  0  0.103259  0.110843  0  1.012645  0
H  H74  1  0.40150011  0.55694305  0.70820247  1  0.172991  0  0.134419  0.103709  0  1.022614  0
H  H75  1  0.31358060  0.50176774  0.88687515  1  0.125434  0  0.125103  0.127352  0  0.98682  0
H  H76  1  0.54171555  0.38505059  0.83391958  1  0.132339  0  0.120429  0.121119  0  1.054263  0
H  H77  1  0.64249575  0.34597250  0.71959072  1  0.103653  0  0.116243  0.115547  0  0.99914  0
H  H78  1  0.71826314  0.46862948  0.73636591  1  0.108505  0  0.112468  0.106761  0  0.986509  0
H  H79  1  0.35474782  0.33359809  0.62870381  1  0.066091  0  0.101228  0.105729  0  1.021557  0
H  H80  1  0.29637115  0.29233653  0.50219824  1  0.070657  0  0.099039  0.099558  0  1.022357  0
H  H81  1  0.71564182  0.43293787  0.50368827  1  0.060434  0  0.097876  0.098185  0  1.038468  0
H  H82  1  0.77599923  0.47099620  0.63072990  1  0.079974  0  0.099175  0.105507  0  1.040442  0
H  H83  1  0.23646669  0.33981536  0.40853931  1  0.075528  0  0.097237  0.093814  0  1.051583  0
H  H84  1  0.18852385  0.28495762  0.28050603  1  0.098065  0  0.099656  0.106013  0  1.025109  0
H  H85  1  0.65688623  0.24916937  0.27512647  1  0.066072  0  0.096915  0.100922  0  1.037978  0
H  H86  1  0.70478860  0.30443518  0.40274973  1  0.087127  0  0.099274  0.100771  0  1.033468  0
H  H87  1  0.29434710  0.26078102  0.17155658  1  0.134735  0  0.111226  0.111996  0  1.030915  0
H  H88  1  0.48541617  0.23404403  0.16781249  1  0.050465  0  0.10647  0.092592  0  0.989153  0
H  H89  1  0.44840200  0.07417268  0.24946198  1  0.192783  0  0.136391  0.113484  0  1.029736  0
H  H90  1  0.20070565  0.89812406  0.05660616  1  0.121851  0  0.118224  0.112755  0  1.007147  0
H  H91  1  0.21421055  0.09602719  0.06347063  1  0.10615  0  0.123953  0.12535  0  1.007252  0
C  C92  1  0.54875457  0.08414594  0.65110456  1  1.516539  0  0.189301  0.551246  0  4.226493  0
C  C93  1  0.52554572  0.04041124  0.57306372  1  -0.075965  0  -0.014598  -0.025431  0  3.959927  0
C  C94  1  0.52287231  0.10293302  0.53375824  1  -0.012755  0  -0.083922  -0.096168  0  3.96922  0
C  C95  1  0.50325193  0.93705487  0.53876477  1  -0.035837  0  -0.085926  -0.109441  0  3.98887  0
C  C96  1  0.43363599  0.25582375  0.89119913  1  1.525497  0  0.185822  0.546417  0  4.238318  0
C  C97  1  0.33821087  0.28936580  0.94708730  1  -0.023947  0  -0.018632  -0.022758  0  3.973696  0
C  C98  1  0.18292180  0.28149205  0.93028185  1  -0.110521  0  -0.091111  -0.108902  0  3.997989  0
C  C99  1  0.40480929  0.32629968  0.01730252  1  0.001677  0  -0.088648  -0.104007  0  3.976415  0
C  C100  1  0.90708702  0.22232639  0.75011615  1  0.935373  0  0.139484  0.090158  0  3.920474  0
C  C101  1  0.86520635  0.34574075  0.84175795  1  0.404691  0  -0.001976  -0.037308  0  4.008052  0
C  C102  1  0.97738643  0.37827353  0.81574027  1  0.307694  0  0.006251  -0.097903  0  3.90315  0
C  C103  1  0.11773222  0.29624456  0.71470668  1  0.288978  0  -0.045488  -0.116338  0  3.868624  0
C  C104  1  0.07071459  0.23460302  0.63874404  1  -0.02244  0  -0.014868  0.080545  0  3.977895  0
C  C105  1  0.93404634  0.24534616  0.60172769  1  -0.121244  0  -0.0927  -0.131219  0  3.99052  0
C  C106  1  0.90082398  0.19642640  0.52991622  1  -0.043516  0  -0.088831  -0.122606  0  3.976512  0
C  C107  1  0.00331221  0.13523691  0.49263791  1  -0.018807  0  -0.00959  0.058302  0  4.003495  0
C  C108  1  0.13704521  0.12132694  0.53061720  1  -0.014459  0  -0.089562  -0.118629  0  3.969214  0
C  C109  1  0.17025594  0.17034128  0.60248990  1  -0.059944  0  -0.092204  -0.131894  0  3.983875  0
C  C110  1  0.97397459  0.08987595  0.41576475  1  -0.02369  0  -0.005704  0.067395  0  3.996554  0
C  C111  1  0.82891374  0.06094115  0.37953349  1  -0.103902  0  -0.089721  -0.118797  0  3.970238  0
C  C112  1  0.80173687  0.01956848  0.30709252  1  0.002361  0  -0.089541  -0.118977  0  3.958355  0
C  C113  1  0.91874037  0.00671370  0.26838606  1  -0.063995  0  -0.020366  0.071947  0  4.00487  0
C  C114  1  0.06368013  0.03523814  0.30398141  1  0.032444  0  -0.097438  -0.144288  0  4.008587  0
C  C115  1  0.09100949  0.07579726  0.37656585  1  -0.133599  0  -0.090531  -0.120978  0  3.958883  0
C  C116  1  0.88710458  0.96743669  0.18995808  1  0.251787  0  -0.053041  -0.123541  0  3.885954  0
C  C117  1  0.88590971  0.14588540  0.19717324  1  1.004489  0  0.137051  0.086694  0  3.919633  0
C  C118  1  0.75542464  0.13396342  0.09746557  1  0.397144  0  -0.008095  -0.04274  0  4.041765  0
C  C119  1  0.76166425  0.03908229  0.09980056  1  0.344441  0  -0.004961  -0.120391  0  3.938917  0
C  C120  1  0.95110591  0.43342787  0.34891051  1  1.506572  0  0.18986  0.552855  0  4.227948  0
C  C121  1  0.97434089  0.46759776  0.42695133  1  -0.059662  0  -0.014994  -0.026552  0  3.961093  0
C  C122  1  0.97690231  0.56937183  0.46642777  1  -0.064018  0  -0.08364  -0.095556  0  3.970161  0
C  C123  1  0.99685708  0.39834392  0.46107044  1  0.044569  0  -0.085466  -0.108893  0  3.989316  0
C  C124  1  0.06642094  0.36489366  0.10888602  1  1.539248  0  0.18573  0.546494  0  4.236719  0
C  C125  1  0.16185475  0.34256201  0.05302296  1  -0.041963  0  -0.019129  -0.02418  0  3.973824  0
C  C126  1  0.31715794  0.35124958  0.06982761  1  -0.059681  0  -0.089886  -0.106354  0  3.996109  0
C  C127  1  0.09526411  0.30931751  0.98281027  1  -0.001323  0  -0.088009  -0.102225  0  3.976276  0
C  C128  1  0.59275546  0.47234705  0.24979607  1  0.973998  0  0.139251  0.089645  0  3.921111  0
C  C129  1  0.63439344  0.50426653  0.15819173  1  0.415258  0  -0.00203  -0.038812  0  4.00923  0
C  C130  1  0.52214003  0.56267525  0.18425289  1  0.291511  0  0.006111  -0.097766  0  3.903251  0
C  C131  1  0.38202038  0.58147725  0.28533563  1  0.271676  0  -0.04604  -0.116111  0  3.867276  0
C  C132  1  0.42924242  0.59564597  0.36125380  1  -0.053684  0  -0.015177  0.080092  0  3.977632  0
C  C133  1  0.56597027  0.64342818  0.39822285  1  -0.03218  0  -0.092478  -0.131732  0  3.989431  0
C  C134  1  0.59929627  0.66638516  0.47003478  1  -0.090098  0  -0.089326  -0.123185  0  3.973935  0
C  C135  1  0.49683728  0.64255028  0.50735210  1  0.017198  0  -0.00917  0.059506  0  4.000828  0
C  C136  1  0.36315268  0.59051014  0.46940591  1  -0.070032  0  -0.089549  -0.11894  0  3.968591  0
C  C137  1  0.32986941  0.56755508  0.39752788  1  0.002744  0  -0.091666  -0.1308  0  3.984559  0
C  C138  1  0.52609388  0.67417943  0.58423197  1  -0.040981  0  -0.006089  0.066137  0  3.998216  0
C  C139  1  0.67111103  0.68140417  0.62046824  1  -0.093983  0  -0.088656  -0.116411  0  3.970553  0
C  C140  1  0.69821749  0.71226275  0.69290274  1  -0.00546  0  -0.09046  -0.120762  0  3.960171  0
C  C141  1  0.58116452  0.73801883  0.73157393  1  -0.04771  0  -0.019017  0.073574  0  4.005405  0
C  C142  1  0.43626131  0.73106599  0.69597756  1  -0.018724  0  -0.098182  -0.145482  0  4.010361  0
C  C143  1  0.40900331  0.69922940  0.62339184  1  -0.087447  0  -0.090136  -0.120427  0  3.960196  0
C  C144  1  0.61273344  0.77712988  0.80999894  1  0.259886  0  -0.052896  -0.123926  0  3.886573  0
C  C145  1  0.61395969  0.94834374  0.80275079  1  0.963507  0  0.137172  0.087186  0  3.918328  0
C  C146  1  0.74405500  0.03626051  0.90254437  1  0.351703  0  -0.007484  -0.041979  0  4.041903  0
C  C147  1  0.73784952  0.93904051  0.90022120  1  0.334882  0  -0.004176  -0.120431  0  3.938731  0
C  C148  1  0.45124685  0.91585425  0.34889625  1  1.516534  0  0.189228  0.551128  0  4.226584  0
C  C149  1  0.47445565  0.95958950  0.42693691  1  -0.075945  0  -0.014585  -0.025371  0  3.959925  0
C  C150  1  0.47712789  0.89706871  0.46624262  1  -0.012884  0  -0.083997  -0.096285  0  3.969201  0
C  C151  1  0.49674938  0.06294692  0.46123616  1  -0.035926  0  -0.085984  -0.10955  0  3.988969  0
C  C152  1  0.56636306  0.74417499  0.10879876  1  1.525471  0  0.185778  0.546398  0  4.238197  0
C  C153  1  0.66178838  0.71063223  0.05291211  1  -0.024202  0  -0.018623  -0.022709  0  3.973644  0
C  C154  1  0.81707973  0.71850653  0.06971885  1  -0.110095  0  -0.091112  -0.108924  0  3.997866  0
C  C155  1  0.59519223  0.67369842  0.98269770  1  0.001709  0  -0.088628  -0.10402  0  3.976415  0
C  C156  1  0.09291434  0.77767387  0.24988399  1  0.935298  0  0.139444  0.090087  0  3.920438  0
C  C157  1  0.13479384  0.65426001  0.15824194  1  0.404552  0  -0.002044  -0.037442  0  4.008268  0
C  C158  1  0.02261702  0.62172750  0.18425916  1  0.307829  0  0.006231  -0.097944  0  3.903212  0
C  C159  1  0.88227013  0.70375689  0.28529316  1  0.288925  0  -0.045526  -0.1164  0  3.868676  0
C  C160  1  0.92928893  0.76539793  0.36125606  1  -0.022421  0  -0.014909  0.080507  0  3.97769  0
C  C161  1  0.06595827  0.75465389  0.39827151  1  -0.120759  0  -0.092633  -0.131131  0  3.990381  0
C  C162  1  0.09917966  0.80357343  0.47008425  1  -0.044183  0  -0.088814  -0.122582  0  3.976402  0
C  C163  1  0.99669036  0.86476133  0.50736171  1  -0.018725  0  -0.009629  0.058217  0  4.003432  0
C  C164  1  0.86295621  0.87867276  0.46938313  1  -0.014489  0  -0.089579  -0.118662  0  3.969309  0
C  C165  1  0.82974432  0.82965940  0.39751065  1  -0.059937  0  -0.09219  -0.131885  0  3.983777  0
C  C166  1  0.02602804  0.91012172  0.58423506  1  -0.023678  0  -0.005703  0.067352  0  3.996536  0
C  C167  1  0.17108662  0.93905695  0.62046599  1  -0.103837  0  -0.089773  -0.1188  0  3.970285  0
C  C168  1  0.19826454  0.98043074  0.69290733  1  0.00223  0  -0.089543  -0.119012  0  3.95825  0
C  C169  1  0.08125877  0.99328642  0.73161395  1  -0.063837  0  -0.020371  0.071867  0  4.00483  0
C  C170  1  0.93631911  0.96475989  0.69601800  1  0.032464  0  -0.097357  -0.144121  0  4.008597  0
C  C171  1  0.90899086  0.92420084  0.62343363  1  -0.133655  0  -0.090506  -0.120988  0  3.958853  0
C  C172  1  0.11289450  0.03256350  0.81004125  1  0.25182  0  -0.053016  -0.123497  0  3.885835  0
C  C173  1  0.11409277  0.85411639  0.80282843  1  1.00442  0  0.137027  0.086657  0  3.919634  0
C  C174  1  0.24457885  0.86604053  0.90253676  1  0.396964  0  -0.008099  -0.042738  0  4.041836  0
C  C175  1  0.23833585  0.96092152  0.90020089  1  0.344415  0  -0.005015  -0.120512  0  3.939023  0
C  C176  1  0.04889991  0.56657509  0.65109233  1  1.506583  0  0.189725  0.552714  0  4.228225  0
C  C177  1  0.02566634  0.53240248  0.57305250  1  -0.059537  0  -0.014932  -0.026244  0  3.960833  0
C  C178  1  0.02310245  0.43062954  0.53357422  1  -0.064176  0  -0.083664  -0.09579  0  3.970309  0
C  C179  1  0.00314875  0.60166001  0.53893336  1  0.044669  0  -0.085521  -0.109203  0  3.989347  0
C  C180  1  0.93357610  0.63510521  0.89111422  1  1.53919  0  0.185773  0.546463  0  4.236708  0
C  C181  1  0.83814659  0.65743679  0.94697574  1  -0.042009  0  -0.019129  -0.024161  0  3.97388  0
C  C182  1  0.68283908  0.64874783  0.93017118  1  -0.059605  0  -0.089969  -0.106461  0  3.996047  0
C  C183  1  0.90473637  0.69067996  0.01719006  1  -0.000725  0  -0.08798  -0.10222  0  3.976217  0
C  C184  1  0.40723712  0.52764960  0.75020196  1  0.973859  0  0.139186  0.08956  0  3.921071  0
C  C185  1  0.36560464  0.49573199  0.84180743  1  0.415155  0  -0.002065  -0.03882  0  4.009241  0
C  C186  1  0.47785596  0.43732299  0.81574746  1  0.291479  0  0.006138  -0.09779  0  3.903135  0
C  C187  1  0.61797642  0.41852386  0.71466387  1  0.271615  0  -0.046054  -0.116274  0  3.867201  0
C  C188  1  0.57075228  0.40435340  0.63874544  1  -0.053464  0  -0.01516  0.08021  0  3.977567  0
C  C189  1  0.43402975  0.35657425  0.60177648  1  -0.032162  0  -0.092478  -0.13179  0  3.989405  0
C  C190  1  0.40069826  0.33361588  0.52996391  1  -0.090059  0  -0.08936  -0.123231  0  3.973839  0
C  C191  1  0.50316286  0.35745152  0.49264809  1  0.017341  0  -0.009172  0.059485  0  4.000893  0
C  C192  1  0.63684424  0.40948936  0.53059348  1  -0.070067  0  -0.089557  -0.118905  0  3.96869  0
C  C193  1  0.67012967  0.43244512  0.60247146  1  0.002364  0  -0.091691  -0.130915  0  3.984625  0
C  C194  1  0.47390408  0.32582070  0.41576730  1  -0.040911  0  -0.006141  0.066028  0  3.998223  0
C  C195  1  0.32888816  0.31859442  0.37953099  1  -0.094014  0  -0.088603  -0.116221  0  3.97059  0
C  C196  1  0.30178065  0.28773521  0.30709660  1  -0.005404  0  -0.090448  -0.120808  0  3.960229  0
C  C197  1  0.41883356  0.26197969  0.26842522  1  -0.047732  0  -0.019077  0.07348  0  4.005489  0
C  C198  1  0.56373567  0.26893296  0.30402201  1  -0.018725  0  -0.098152  -0.145478  0  4.010491  0
C  C199  1  0.59099797  0.30076996  0.37660668  1  -0.087468  0  -0.090102  -0.120403  0  3.960204  0
C  C200  1  0.38726558  0.22287087  0.19000021  1  0.259808  0  -0.052871  -0.123778  0  3.886508  0
C  C201  1  0.38604264  0.05165674  0.19724808  1  0.963619  0  0.137112  0.087161  0  3.918343  0
C  C202  1  0.25593983  0.96373822  0.09745573  1  0.351694  0  -0.007485  -0.041923  0  4.041764  0
C  C203  1  0.26214612  0.06096109  0.09977805  1  0.33493  0  -0.004188  -0.120501  0  3.938552  0
N  N204  1  0.82269969  0.24826466  0.80035506  1  -1.211765  0  -0.370412  -0.31188  0  3.571698  0
N  N205  1  0.00221969  0.29931637  0.75777478  1  -1.233766  0  -0.235937  0.05775  0  3.751734  0
N  N206  1  0.83315019  0.19976934  0.15868338  1  -1.237517  0  -0.364738  -0.302458  0  3.549666  0
N  N207  1  0.84496881  0.04833481  0.16332333  1  -1.23581  0  -0.236052  0.057219  0  3.756715  0
N  N208  1  0.67710701  0.44818392  0.19954561  1  -1.242354  0  -0.369847  -0.310212  0  3.571974  0
N  N209  1  0.49745031  0.54159652  0.24218577  1  -1.240386  0  -0.235951  0.056831  0  3.752984  0
N  N210  1  0.66654987  0.04075353  0.84127576  1  -1.227667  0  -0.364686  -0.302691  0  3.5501  0
N  N211  1  0.65478153  0.88467893  0.83663292  1  -1.217783  0  -0.23686  0.057525  0  3.75515  0
N  N212  1  0.17730167  0.75173560  0.19964509  1  -1.211616  0  -0.370357  -0.311758  0  3.57173  0
N  N213  1  0.99778166  0.70068341  0.24222489  1  -1.2337  0  -0.235862  0.057875  0  3.751442  0
N  N214  1  0.16685336  0.80023405  0.84131914  1  -1.237362  0  -0.364704  -0.302426  0  3.549716  0
N  N215  1  0.15503023  0.95166741  0.83667727  1  -1.23573  0  -0.236081  0.057216  0  3.756588  0
N  N216  1  0.32288898  0.55181432  0.80045474  1  -1.242344  0  -0.369854  -0.310188  0  3.571909  0
N  N217  1  0.50254238  0.45839901  0.75781263  1  -1.24032  0  -0.235875  0.056997  0  3.75259  0
N  N218  1  0.33344915  0.95924771  0.15872388  1  -1.227643  0  -0.364654  -0.302666  0  3.550079  0
N  N219  1  0.34521754  0.11532078  0.16336594  1  -1.217886  0  -0.236824  0.057475  0  3.755187  0
O  O220  1  0.57470825  0.02546600  0.68552684  1  -1.161403  0  -0.334184  -0.562005  0  2.194868  0
O  O221  1  0.54095964  0.17788112  0.68064342  1  -1.179384  0  -0.331912  -0.55899  0  2.184816  0
O  O222  1  0.57073495  0.28403065  0.90600947  1  -1.165683  0  -0.339597  -0.553625  0  2.139016  0
O  O223  1  0.37459870  0.19686882  0.83039299  1  -1.167712  0  -0.335244  -0.560312  0  2.198948  0
O  O224  1  0.92512219  0.34033510  0.31441656  1  -1.168509  0  -0.334557  -0.562763  0  2.196227  0
O  O225  1  0.95895215  0.49769479  0.31945085  1  -1.164553  0  -0.331826  -0.559581  0  2.185852  0
O  O226  1  0.92930164  0.37824819  0.09404732  1  -1.164198  0  -0.339751  -0.553437  0  2.138047  0
O  O227  1  0.12537104  0.36672132  0.16968616  1  -1.163621  0  -0.33491  -0.560498  0  2.199443  0
O  O228  1  0.42529422  0.97453384  0.31447289  1  -1.161379  0  -0.334149  -0.561964  0  2.194861  0
O  O229  1  0.45903637  0.82211858  0.31935838  1  -1.179376  0  -0.331886  -0.558955  0  2.184854  0
O  O230  1  0.42926406  0.71596963  0.09398920  1  -1.165654  0  -0.339575  -0.553567  0  2.139014  0
O  O231  1  0.62540032  0.80313242  0.16960665  1  -1.167656  0  -0.335229  -0.560362  0  2.19881  0
O  O232  1  0.07488275  0.65966507  0.68558646  1  -1.1684  0  -0.334493  -0.562725  0  2.196396  0
O  O233  1  0.04105162  0.50230588  0.68055192  1  -1.164798  0  -0.331779  -0.559536  0  2.185794  0
O  O234  1  0.07069766  0.62174880  0.90595179  1  -1.164184  0  -0.339815  -0.553446  0  2.137822  0
O  O235  1  0.87462817  0.63327873  0.83031451  1  -1.163609  0  -0.334888  -0.56046  0  2.199495  0
