# generated using pymatgen
data_ZnH19C26N3O5
_symmetry_space_group_name_H-M   'P 1'
_cell_length_a   12.79531864
_cell_length_b   13.06684629
_cell_length_c   13.86733078
_cell_angle_alpha   90.00006846
_cell_angle_beta   102.87339630
_cell_angle_gamma   89.99995239
_symmetry_Int_Tables_number   1
_chemical_formula_structural   ZnH19C26N3O5
_chemical_formula_sum   'Zn4 H76 C104 N12 O20'
_cell_volume   2260.26380039
_cell_formula_units_Z   4
loop_
 _symmetry_equiv_pos_site_id
 _symmetry_equiv_pos_as_xyz
  1  'x, y, z'
loop_
 _atom_site_type_symbol
 _atom_site_label
 _atom_site_symmetry_multiplicity
 _atom_site_fract_x
 _atom_site_fract_y
 _atom_site_fract_z
 _atom_site_occupancy
 _atom_site_pbe_bader_charge
 _atom_site_pbe_bader_spin_density
 _atom_site_pbe_cm5_charge
 _atom_site_pbe_ddec_charge
 _atom_site_pbe_ddec_spin_density
 _atom_site_pbe_ddec_sum_bond_order
 _atom_site_pbe_magmom
Zn  Zn0  1  0.63744960  0.43490740  0.19371454  1  1.248165  0  0.691671  0.751067  0  2.433147  0
Zn  Zn1  1  0.86255275  0.93490791  0.30628591  1  1.248163  0  0.691706  0.751123  0  2.433088  0
Zn  Zn2  1  0.36255095  0.56509234  0.80628549  1  1.248171  0  0.691666  0.751066  0  2.433126  0
Zn  Zn3  1  0.13744780  0.06509184  0.69371483  1  1.248176  0  0.691688  0.751094  0  2.433134  0
H  H4  1  0.81518551  0.62639604  0.61700878  1  0.625453  0  0.279968  0.284749  0  1.079971  0
H  H5  1  0.68481394  0.12639497  0.88299127  1  0.625465  0  0.279976  0.284739  0  1.079994  0
H  H6  1  0.18481343  0.37360370  0.38299019  1  0.625464  0  0.279979  0.284764  0  1.079971  0
H  H7  1  0.31518581  0.87360477  0.11700859  1  0.625455  0  0.279974  0.284755  0  1.079968  0
H  H8  1  0.79326328  0.54480320  0.46739409  1  0.072111  0  0.100458  0.112284  0  1.04678  0
H  H9  1  0.70673771  0.04480167  0.03260564  1  0.072116  0  0.100452  0.112254  0  1.046799  0
H  H10  1  0.20673727  0.45519655  0.53260522  1  0.072094  0  0.10045  0.11226  0  1.046791  0
H  H11  1  0.29326124  0.95519884  0.96739550  1  0.072124  0  0.100462  0.112267  0  1.046822  0
H  H12  1  0.99564511  0.42742148  0.73596989  1  0.04016  0  0.099758  0.110112  0  1.035937  0
H  H13  1  0.50435415  0.92742069  0.76403047  1  0.040174  0  0.099795  0.110157  0  1.035921  0
H  H14  1  0.00435303  0.57257750  0.26403037  1  0.039935  0  0.099786  0.110158  0  1.035953  0
H  H15  1  0.49564640  0.07257905  0.23596955  1  0.040156  0  0.099782  0.110138  0  1.035946  0
H  H16  1  0.95767946  0.25923996  0.46357542  1  0.094898  0  0.097757  0.104135  0  1.038167  0
H  H17  1  0.54231979  0.75923962  0.03642492  1  0.094902  0  0.097769  0.104173  0  1.038124  0
H  H18  1  0.04232029  0.74075978  0.53642444  1  0.094924  0  0.097775  0.104195  0  1.038141  0
H  H19  1  0.45767996  0.24076012  0.96357566  1  0.094894  0  0.097753  0.104142  0  1.038178  0
H  H20  1  0.76422302  0.62490653  0.20428936  1  0.136271  0  0.124276  0.102718  0  0.985054  0
H  H21  1  0.73577952  0.12490608  0.29571006  1  0.136181  0  0.12427  0.102715  0  0.985051  0
H  H22  1  0.23577673  0.37509398  0.79571050  1  0.136268  0  0.124278  0.102707  0  0.985074  0
H  H23  1  0.26422183  0.87509443  0.70428869  1  0.136203  0  0.124286  0.102731  0  0.985047  0
H  H24  1  0.84469669  0.73104375  0.09385268  1  0.126323  0  0.113414  0.13498  0  1.018561  0
H  H25  1  0.65530338  0.23104503  0.40614564  1  0.126565  0  0.113389  0.13495  0  1.018598  0
H  H26  1  0.15530306  0.26895600  0.90614719  1  0.126312  0  0.113403  0.134967  0  1.018581  0
H  H27  1  0.34469637  0.76895548  0.59385351  1  0.126343  0  0.113404  0.134994  0  1.018587  0
H  H28  1  0.68963344  0.53557478  0.85108146  1  0.093433  0  0.106493  0.114337  0  1.01419  0
H  H29  1  0.81036607  0.03557561  0.64891778  1  0.093465  0  0.106509  0.114367  0  1.014166  0
H  H30  1  0.31036631  0.46442496  0.14891840  1  0.09344  0  0.106501  0.114365  0  1.014169  0
H  H31  1  0.18963368  0.96442490  0.35108136  1  0.093442  0  0.106507  0.114391  0  1.014125  0
H  H32  1  0.61260179  0.43696732  0.97435013  1  0.143531  0  0.11858  0.092015  0  1.009221  0
H  H33  1  0.88739827  0.93696821  0.52564968  1  0.143519  0  0.118569  0.092032  0  1.00922  0
H  H34  1  0.38739796  0.56303166  0.02564973  1  0.143549  0  0.11857  0.092035  0  1.009203  0
H  H35  1  0.11260148  0.06303153  0.47435018  1  0.143535  0  0.118581  0.092056  0  1.009257  0
H  H36  1  0.83235885  0.66210103  0.82754921  1  0.094982  0  0.108034  0.109585  0  1.016916  0
H  H37  1  0.66764057  0.16210201  0.67244872  1  0.095019  0  0.108042  0.109606  0  1.016958  0
H  H38  1  0.16764090  0.33789795  0.17245065  1  0.09499  0  0.108052  0.109623  0  1.016867  0
H  H39  1  0.33235837  0.83789850  0.32755026  1  0.095007  0  0.108042  0.109587  0  1.016937  0
H  H40  1  0.82525290  0.84247671  0.96998344  1  0.099303  0  0.107596  0.109181  0  1.009188  0
H  H41  1  0.67474642  0.34247750  0.53001611  1  0.099287  0  0.107585  0.109164  0  1.009201  0
H  H42  1  0.17474685  0.15752304  0.03001642  1  0.099289  0  0.107592  0.109181  0  1.009194  0
H  H43  1  0.32525333  0.65752301  0.46998375  1  0.099295  0  0.107592  0.10918  0  1.009218  0
H  H44  1  0.88480668  0.00485067  0.92466256  1  0.100819  0  0.109778  0.120403  0  1.005668  0
H  H45  1  0.61519285  0.50485185  0.57533738  1  0.100835  0  0.109774  0.12037  0  1.005663  0
H  H46  1  0.11519307  0.99514831  0.07533730  1  0.100825  0  0.109781  0.120393  0  1.005652  0
H  H47  1  0.38480690  0.49514790  0.42466249  1  0.100831  0  0.109774  0.120383  0  1.005655  0
H  H48  1  0.99439097  0.10690273  0.82920414  1  0.135581  0  0.116899  0.094513  0  1.030699  0
H  H49  1  0.50560849  0.60690336  0.67079662  1  0.135569  0  0.116895  0.094497  0  1.030707  0
H  H50  1  0.00560958  0.89309625  0.17079589  1  0.135572  0  0.11688  0.094481  0  1.030721  0
H  H51  1  0.49439126  0.39309562  0.32920396  1  0.13555  0  0.116893  0.094499  0  1.030709  0
H  H52  1  0.04493699  0.85104355  0.66820941  1  0.160161  0  0.119656  0.09139  0  1.022634  0
H  H53  1  0.45506399  0.35104449  0.83179169  1  0.160174  0  0.119663  0.091413  0  1.022678  0
H  H54  1  0.95506356  0.14895619  0.33179134  1  0.160178  0  0.119661  0.091384  0  1.022653  0
H  H55  1  0.54493656  0.64895448  0.16820833  1  0.160171  0  0.119644  0.091391  0  1.022645  0
H  H56  1  0.93979313  0.74038532  0.75273068  1  0.132644  0  0.114253  0.130691  0  1.01255  0
H  H57  1  0.56020785  0.24038572  0.74727054  1  0.132658  0  0.114244  0.1307  0  1.012536  0
H  H58  1  0.06020742  0.25961442  0.24726934  1  0.132651  0  0.114237  0.130664  0  1.012613  0
H  H59  1  0.43979270  0.75961326  0.25273021  1  0.132674  0  0.11424  0.130695  0  1.012582  0
H  H60  1  0.75221587  0.20775378  0.08010546  1  0.08792  0  0.118975  0.095609  0  0.986239  0
H  H61  1  0.74778582  0.70775299  0.41989604  1  0.087914  0  0.118948  0.095522  0  0.986197  0
H  H62  1  0.24778548  0.79224750  0.91989545  1  0.087915  0  0.118934  0.095511  0  0.986109  0
H  H63  1  0.25221473  0.29224752  0.58010470  1  0.08791  0  0.118947  0.095521  0  0.986191  0
H  H64  1  0.87247555  0.35209846  0.14048296  1  0.136358  0  0.107977  0.127918  0  1.026862  0
H  H65  1  0.62752685  0.85209846  0.35951813  1  0.136376  0  0.107962  0.127887  0  1.026882  0
H  H66  1  0.12752580  0.64790204  0.85951795  1  0.136363  0  0.107979  0.127901  0  1.026867  0
H  H67  1  0.37247450  0.14790205  0.64048134  1  0.136375  0  0.107961  0.12786  0  1.026972  0
H  H68  1  0.99538678  0.48361062  0.10919190  1  0.066779  0  0.106796  0.107805  0  1.003177  0
H  H69  1  0.50461474  0.98360922  0.39080844  1  0.066788  0  0.106812  0.107821  0  1.003141  0
H  H70  1  0.00461377  0.51639066  0.89080885  1  0.0668  0  0.106808  0.107826  0  1.003179  0
H  H71  1  0.49538581  0.01639129  0.60919086  1  0.066805  0  0.106814  0.107831  0  1.003167  0
H  H72  1  0.93786341  0.36963793  0.84600986  1  0.100931  0  0.104906  0.1109  0  1.052368  0
H  H73  1  0.56213750  0.86963849  0.65399149  1  0.10092  0  0.104928  0.110943  0  1.052347  0
H  H74  1  0.06213795  0.63036258  0.15399105  1  0.100936  0  0.104913  0.110895  0  1.052372  0
H  H75  1  0.43786145  0.13036279  0.34600820  1  0.100931  0  0.104917  0.110927  0  1.052339  0
H  H76  1  0.81521048  0.22506749  0.79940432  1  0.071908  0  0.111115  0.077999  0  1.009388  0
H  H77  1  0.68479051  0.72506724  0.70059689  1  0.071878  0  0.111114  0.078005  0  1.009383  0
H  H78  1  0.18479087  0.77493302  0.20059731  1  0.071876  0  0.111111  0.078003  0  1.009389  0
H  H79  1  0.31520843  0.27493251  0.29940281  1  0.071876  0  0.11111  0.077986  0  1.009402  0
C  C80  1  0.81985053  0.38957897  0.34693379  1  1.571375  0  0.199908  0.573788  0  4.219906  0
C  C81  1  0.68015025  0.88957866  0.15306701  1  1.571393  0  0.199929  0.573854  0  4.219714  0
C  C82  1  0.18014922  0.61042078  0.65306607  1  1.571372  0  0.199893  0.573754  0  4.219886  0
C  C83  1  0.31985110  0.11042261  0.84693318  1  1.571492  0  0.199892  0.573774  0  4.220008  0
C  C84  1  0.87186082  0.40209849  0.45477769  1  -0.045495  0  -0.023248  -0.012957  0  4.007792  0
C  C85  1  0.62814075  0.90209885  0.04522329  1  -0.045531  0  -0.023233  -0.012928  0  4.007628  0
C  C86  1  0.12813973  0.59790126  0.54522234  1  -0.045506  0  -0.023257  -0.012911  0  4.007762  0
C  C87  1  0.37185980  0.09790242  0.95477746  1  -0.045499  0  -0.023248  -0.012922  0  4.007687  0
C  C88  1  0.84760929  0.48717874  0.50713587  1  0.039269  0  -0.103036  -0.234262  0  3.942282  0
C  C89  1  0.65239235  0.98717735  0.99286504  1  0.039258  0  -0.103055  -0.234225  0  3.942272  0
C  C90  1  0.15239046  0.51282101  0.49286399  1  0.039254  0  -0.103043  -0.234248  0  3.942248  0
C  C91  1  0.34760740  0.01282316  0.00713626  1  0.039261  0  -0.10306  -0.234268  0  3.942304  0
C  C92  1  0.89211969  0.49793425  0.60875884  1  0.455509  0  0.075533  0.324596  0  4.097073  0
C  C93  1  0.60788033  0.99793277  0.89124176  1  0.45559  0  0.075531  0.324582  0  4.097084  0
C  C94  1  0.10787925  0.50206550  0.39124230  1  0.455573  0  0.075545  0.324634  0  4.097018  0
C  C95  1  0.39211942  0.00206774  0.10875811  1  0.455485  0  0.075513  0.324615  0  4.097084  0
C  C96  1  0.95972112  0.42077868  0.65739103  1  0.042603  0  -0.100591  -0.216532  0  3.930682  0
C  C97  1  0.54027815  0.92077796  0.84261005  1  0.042099  0  -0.100623  -0.216586  0  3.930843  0
C  C98  1  0.04027783  0.57922030  0.34260939  1  0.042774  0  -0.100608  -0.216634  0  3.930732  0
C  C99  1  0.45972240  0.07922178  0.15739142  1  0.042644  0  -0.100617  -0.216613  0  3.930788  0
C  C100  1  0.98185900  0.33453442  0.60557538  1  -0.04024  0  -0.026134  -0.019935  0  4.029092  0
C  C101  1  0.51814033  0.83453455  0.89442561  1  -0.039809  0  -0.026157  -0.02002  0  4.02918  0
C  C102  1  0.01813995  0.66546533  0.39442504  1  -0.040255  0  -0.02613  -0.019864  0  4.029054  0
C  C103  1  0.48186103  0.16546520  0.10557530  1  -0.040255  0  -0.026106  -0.019868  0  4.029089  0
C  C104  1  0.04332341  0.24761332  0.66068506  1  1.528076  0  0.19855  0.565464  0  4.211327  0
C  C105  1  0.45667523  0.74761456  0.83931544  1  1.528397  0  0.19865  0.565628  0  4.211247  0
C  C106  1  0.95667554  0.75238566  0.33931464  1  1.52807  0  0.19856  0.565473  0  4.211464  0
C  C107  1  0.54332452  0.25238519  0.16068514  1  1.528428  0  0.198644  0.56558  0  4.211307  0
C  C108  1  0.93998050  0.32602198  0.50381517  1  -0.035143  0  -0.096779  -0.142728  0  3.974423  0
C  C109  1  0.56001963  0.82602145  0.99618597  1  -0.035148  0  -0.096789  -0.14276  0  3.974319  0
C  C110  1  0.06001925  0.67397699  0.49618541  1  -0.035136  0  -0.096802  -0.142861  0  3.974468  0
C  C111  1  0.43998012  0.17397830  0.00381461  1  -0.035141  0  -0.096803  -0.142821  0  3.974463  0
C  C112  1  0.74759014  0.60912456  0.12518335  1  0.439332  0  0.053859  0.10525  0  3.926788  0
C  C113  1  0.75241241  0.10912496  0.37481605  1  0.439452  0  0.053884  0.105296  0  3.926714  0
C  C114  1  0.25240961  0.39087518  0.87481651  1  0.439318  0  0.053844  0.105236  0  3.926829  0
C  C115  1  0.24758814  0.89087631  0.62518325  1  0.439413  0  0.053889  0.105318  0  3.926711  0
C  C116  1  0.79153383  0.66887496  0.06207824  1  0.011421  0  -0.073659  -0.161127  0  3.898485  0
C  C117  1  0.70846708  0.16887547  0.43792018  1  0.011252  0  -0.073651  -0.161159  0  3.898567  0
C  C118  1  0.20846592  0.33112478  0.93792090  1  0.011402  0  -0.073654  -0.161128  0  3.898519  0
C  C119  1  0.29153347  0.83112504  0.56207913  1  0.011399  0  -0.073675  -0.161234  0  3.898546  0
C  C120  1  0.77116895  0.64422154  0.96099464  1  0.003947  0  0.013275  0.151451  0  4.013884  0
C  C121  1  0.72883129  0.14422306  0.53900343  1  0.003521  0  0.013337  0.151543  0  4.013961  0
C  C122  1  0.22883080  0.35577744  0.03900450  1  0.004009  0  0.013339  0.151553  0  4.013886  0
C  C123  1  0.27116846  0.85577745  0.46099571  1  0.003682  0  0.013319  0.151524  0  4.013886  0
C  C124  1  0.70620247  0.55876864  0.92844300  1  -0.01325  0  -0.080923  -0.167354  0  3.9197  0
C  C125  1  0.79379782  0.05877091  0.57155571  1  -0.012719  0  -0.080982  -0.167439  0  3.919758  0
C  C126  1  0.29379728  0.44123034  0.07155686  1  -0.012991  0  -0.08096  -0.167434  0  3.919681  0
C  C127  1  0.20620193  0.94123036  0.42844343  1  -0.012708  0  -0.080953  -0.167412  0  3.919671  0
C  C128  1  0.66317854  0.50391537  0.99586182  1  0.43586  0  0.046383  0.095865  0  3.950103  0
C  C129  1  0.83682258  0.00391676  0.50413773  1  0.435734  0  0.046384  0.095828  0  3.950093  0
C  C130  1  0.33682121  0.49608361  0.00413805  1  0.435621  0  0.046381  0.095833  0  3.950086  0
C  C131  1  0.16317797  0.99608451  0.49586230  1  0.435676  0  0.046381  0.095817  0  3.950197  0
C  C132  1  0.81889726  0.70288674  0.89264390  1  -0.06125  0  -0.072915  -0.112814  0  3.938841  0
C  C133  1  0.68110214  0.20288762  0.60735479  1  -0.061231  0  -0.072964  -0.112898  0  3.939045  0
C  C134  1  0.18110249  0.29711300  0.10735596  1  -0.06129  0  -0.072926  -0.112847  0  3.938825  0
C  C135  1  0.31889600  0.79711212  0.39264330  1  -0.061528  0  -0.072936  -0.112821  0  3.938977  0
C  C136  1  0.84595353  0.80249073  0.90752787  1  -0.061108  0  -0.074166  -0.110348  0  3.940379  0
C  C137  1  0.65404582  0.30249161  0.59247092  1  -0.061114  0  -0.074109  -0.110271  0  3.940438  0
C  C138  1  0.15404622  0.19750825  0.09247127  1  -0.061113  0  -0.074148  -0.110341  0  3.940373  0
C  C139  1  0.34595313  0.69750890  0.40752806  1  -0.060883  0  -0.074143  -0.110352  0  3.940549  0
C  C140  1  0.90188852  0.86324289  0.84728056  1  -0.006529  0  0.011163  0.149293  0  4.02033  0
C  C141  1  0.59811158  0.36324390  0.65271990  1  -0.006886  0  0.011177  0.149323  0  4.020307  0
C  C142  1  0.09811203  0.13675608  0.15271947  1  -0.006572  0  0.011143  0.149275  0  4.020362  0
C  C143  1  0.40188817  0.63675584  0.34727996  1  -0.006871  0  0.01116  0.149283  0  4.020409  0
C  C144  1  0.91827312  0.96839605  0.86750471  1  -0.071364  0  -0.081358  -0.176751  0  3.927327  0
C  C145  1  0.58172612  0.46839704  0.63249570  1  -0.071337  0  -0.081393  -0.176759  0  3.92731  0
C  C146  1  0.08172663  0.03160293  0.13249516  1  -0.071337  0  -0.081378  -0.176759  0  3.927382  0
C  C147  1  0.41827363  0.53160194  0.36750417  1  -0.071329  0  -0.081381  -0.176746  0  3.9273  0
C  C148  1  0.97859296  0.02555716  0.81546750  1  0.474537  0  0.04335  0.083393  0  3.953223  0
C  C149  1  0.52140655  0.52555779  0.68453318  1  0.474675  0  0.0434  0.083477  0  3.953135  0
C  C150  1  0.02140759  0.97444258  0.18453325  1  0.474522  0  0.043426  0.083483  0  3.953226  0
C  C151  1  0.47859320  0.47444119  0.31546668  1  0.474668  0  0.043389  0.083474  0  3.953124  0
C  C152  1  0.00605084  0.88353423  0.72359344  1  0.418712  0  0.051155  0.095944  0  3.933834  0
C  C153  1  0.49395013  0.38353507  0.77640770  1  0.419065  0  0.051146  0.095873  0  3.933919  0
C  C154  1  0.99395051  0.11646552  0.27640676  1  0.419051  0  0.051173  0.095965  0  3.933795  0
C  C155  1  0.50605043  0.61646391  0.22359305  1  0.419108  0  0.05117  0.095908  0  3.9339  0
C  C156  1  0.94679697  0.82131381  0.77215411  1  -0.018988  0  -0.074015  -0.159873  0  3.894057  0
C  C157  1  0.55320236  0.32131495  0.72784614  1  -0.019164  0  -0.074  -0.159865  0  3.894018  0
C  C158  1  0.05320277  0.17868593  0.22784503  1  -0.019471  0  -0.073981  -0.159827  0  3.894108  0
C  C159  1  0.44679739  0.67868479  0.27215372  1  -0.019182  0  -0.073984  -0.159832  0  3.894113  0
C  C160  1  0.79493734  0.24554402  0.03015374  1  0.491369  0  0.04826  0.099828  0  3.949628  0
C  C161  1  0.70506513  0.74554410  0.46984797  1  0.491445  0  0.048273  0.099929  0  3.949413  0
C  C162  1  0.20506402  0.75445495  0.96984790  1  0.49145  0  0.048301  0.099979  0  3.949368  0
C  C163  1  0.29493462  0.25445565  0.53015189  1  0.491457  0  0.0483  0.099952  0  3.949461  0
C  C164  1  0.86258504  0.32777886  0.06356399  1  -0.03629  0  -0.08154  -0.177959  0  3.909843  0
C  C165  1  0.63741658  0.82777894  0.43643763  1  -0.036331  0  -0.081453  -0.177846  0  3.909804  0
C  C166  1  0.13741552  0.67222165  0.93643748  1  -0.036346  0  -0.081493  -0.177903  0  3.909898  0
C  C167  1  0.36258397  0.17222080  0.56356240  1  -0.036334  0  -0.081482  -0.17788  0  3.909937  0
C  C168  1  0.91423787  0.37822924  0.99745028  1  -0.000186  0  0.004114  0.138698  0  4.029539  0
C  C169  1  0.58576303  0.87822959  0.50255036  1  -0.000205  0  0.004066  0.138605  0  4.02967  0
C  C170  1  0.08576268  0.62177127  0.00254975  1  -0.000104  0  0.004073  0.138599  0  4.029639  0
C  C171  1  0.41423671  0.12177092  0.49744950  1  -0.000183  0  0.004093  0.138681  0  4.029533  0
C  C172  1  0.97999829  0.46809727  0.02983209  1  -0.068355  0  -0.078198  -0.114043  0  3.947823  0
C  C173  1  0.52000324  0.96809673  0.47016824  1  0.045536  0  -0.078201  -0.114018  0  3.94779  0
C  C174  1  0.02000306  0.53190401  0.97016883  1  0.045439  0  -0.078184  -0.114007  0  3.947854  0
C  C175  1  0.47999731  0.03190378  0.52983107  1  -0.068348  0  -0.078181  -0.114013  0  3.947755  0
C  C176  1  0.89758834  0.33859070  0.90077293  1  -0.12223  0  -0.083921  -0.171277  0  3.927483  0
C  C177  1  0.60241339  0.83859116  0.59922855  1  -0.1222  0  -0.083933  -0.171334  0  3.927564  0
C  C178  1  0.10241302  0.66140981  0.09922798  1  -0.122231  0  -0.083938  -0.171264  0  3.927532  0
C  C179  1  0.39758796  0.16141165  0.40077164  1  -0.122215  0  -0.083939  -0.171352  0  3.927441  0
C  C180  1  0.82931919  0.25605435  0.87433857  1  0.528116  0  0.03945  0.084687  0  3.986637  0
C  C181  1  0.67068179  0.75605478  0.62566339  1  0.528089  0  0.03951  0.084813  0  3.986584  0
C  C182  1  0.17068136  0.74394540  0.12566290  1  0.528094  0  0.039481  0.084759  0  3.986521  0
C  C183  1  0.32931796  0.24394649  0.37433719  1  0.528086  0  0.039485  0.084796  0  3.986511  0
N  N184  1  0.68393584  0.52818767  0.09275523  1  -1.276655  0  -0.337605  -0.245854  0  3.587599  0
N  N185  1  0.81606596  0.02818806  0.40724393  1  -1.276753  0  -0.337627  -0.245849  0  3.587521  0
N  N186  1  0.31606391  0.47181207  0.90724464  1  -1.276653  0  -0.337597  -0.245828  0  3.587587  0
N  N187  1  0.18393379  0.97181169  0.59275521  1  -1.276707  0  -0.337652  -0.245905  0  3.587595  0
N  N188  1  0.02219900  0.98391194  0.74447519  1  -1.247302  0  -0.332083  -0.23443  0  3.571748  0
N  N189  1  0.47780110  0.48391353  0.75552588  1  -1.247319  0  -0.332114  -0.234438  0  3.571694  0
N  N190  1  0.97780155  0.01608704  0.25552556  1  -1.247156  0  -0.33218  -0.234535  0  3.571745  0
N  N191  1  0.52219945  0.51608621  0.24447414  1  -1.247337  0  -0.332131  -0.234482  0  3.571746  0
N  N192  1  0.77710507  0.21006321  0.93687014  1  -1.245806  0  -0.312943  -0.25269  0  3.423745  0
N  N193  1  0.72289593  0.71006352  0.56313178  1  -1.245818  0  -0.313048  -0.252868  0  3.423722  0
N  N194  1  0.22289628  0.78993730  0.06313150  1  -1.245817  0  -0.312987  -0.25281  0  3.423564  0
N  N195  1  0.27710301  0.28993699  0.43686864  1  -1.245859  0  -0.313017  -0.25283  0  3.423681  0
O  O196  1  0.74489130  0.45671607  0.31456613  1  -1.18197  0  -0.349683  -0.576946  0  2.378824  0
O  O197  1  0.75511024  0.95671497  0.18543418  1  -1.18197  0  -0.349696  -0.576996  0  2.378776  0
O  O198  1  0.25510925  0.54328368  0.68543317  1  -1.181974  0  -0.349685  -0.576947  0  2.378806  0
O  O199  1  0.24489192  0.04328554  0.81456690  1  -1.182026  0  -0.349677  -0.576947  0  2.37885  0
O  O200  1  0.84637044  0.31887403  0.29668818  1  -1.181681  0  -0.325765  -0.557817  0  2.130395  0
O  O201  1  0.65363038  0.81887381  0.20331255  1  -1.181691  0  -0.325758  -0.55784  0  2.130347  0
O  O202  1  0.15362931  0.68112571  0.70331168  1  -1.181671  0  -0.325743  -0.557794  0  2.130368  0
O  O203  1  0.34637017  0.18112747  0.79668748  1  -1.18174  0  -0.325731  -0.557781  0  2.130446  0
O  O204  1  0.86975692  0.57947883  0.66148973  1  -1.194146  0  -0.374717  -0.478903  0  2.353564  0
O  O205  1  0.63024337  0.07947852  0.83851117  1  -1.194123  0  -0.374716  -0.478894  0  2.353611  0
O  O206  1  0.13024283  0.42052091  0.33851013  1  -1.19414  0  -0.374718  -0.478909  0  2.35352  0
O  O207  1  0.36975719  0.92052123  0.16148958  1  -1.194124  0  -0.374707  -0.478916  0  2.353554  0
O  O208  1  0.05483306  0.23997113  0.75279393  1  -1.178436  0  -0.321234  -0.563165  0  2.172487  0
O  O209  1  0.44516639  0.73996997  0.74720673  1  -1.178786  0  -0.321305  -0.563227  0  2.172407  0
O  O210  1  0.94516589  0.76002861  0.24720649  1  -1.178431  0  -0.321211  -0.563147  0  2.172574  0
O  O211  1  0.55483416  0.26002978  0.25279330  1  -1.1788  0  -0.321314  -0.56323  0  2.172432  0
O  O212  1  0.07959792  0.17982033  0.60758629  1  -1.1784  0  -0.33885  -0.562883  0  2.342091  0
O  O213  1  0.42039996  0.67982090  0.89241398  1  -1.178368  0  -0.338887  -0.562965  0  2.342145  0
O  O214  1  0.92040183  0.82017941  0.39241429  1  -1.178406  0  -0.338886  -0.562932  0  2.342173  0
O  O215  1  0.57959979  0.32017885  0.10758660  1  -1.178399  0  -0.338869  -0.562924  0  2.342161  0
