# generated using pymatgen
data_CaP2H20(C4O3)4
_symmetry_space_group_name_H-M   'P 1'
_cell_length_a   5.23534700
_cell_length_b   5.76894503
_cell_length_c   16.43407198
_cell_angle_alpha   92.68637785
_cell_angle_beta   91.77541067
_cell_angle_gamma   93.02999003
_symmetry_Int_Tables_number   1
_chemical_formula_structural   CaP2H20(C4O3)4
_chemical_formula_sum   'Ca1 P2 H20 C16 O12'
_cell_volume   494.83168839
_cell_formula_units_Z   1
loop_
 _symmetry_equiv_pos_site_id
 _symmetry_equiv_pos_as_xyz
  1  'x, y, z'
loop_
 _atom_site_type_symbol
 _atom_site_label
 _atom_site_symmetry_multiplicity
 _atom_site_fract_x
 _atom_site_fract_y
 _atom_site_fract_z
 _atom_site_occupancy
 _atom_site_hle17_bader_spin_density
 _atom_site_hle17_ddec_charge
 _atom_site_hle17_ddec_spin_density
 _atom_site_hle17_ddec_sum_bond_order
 _atom_site_hle17_magmom
 _atom_site_hse06_10hf_bader_spin_density
 _atom_site_hse06_10hf_ddec_charge
 _atom_site_hse06_10hf_ddec_spin_density
 _atom_site_hse06_10hf_ddec_sum_bond_order
 _atom_site_hse06_10hf_magmom
 _atom_site_hse06_bader_spin_density
 _atom_site_hse06_ddec_charge
 _atom_site_hse06_ddec_spin_density
 _atom_site_hse06_ddec_sum_bond_order
 _atom_site_hse06_magmom
 _atom_site_pbe_bader_spin_density
 _atom_site_pbe_cm5_charge
 _atom_site_pbe_ddec_charge
 _atom_site_pbe_ddec_spin_density
 _atom_site_pbe_ddec_sum_bond_order
 _atom_site_pbe_magmom
Ca  Ca0  1  0.50000283  0.49999499  0.50000382  1  0  1.610405  0  1.05957  0  0  1.484359  0  1.406205  0  0  1.521991  0  1.364808  0  0  0.897119  1.455655  0  1.436227  0
P  P1  1  0.80050638  0.01657717  0.40118565  1  0  1.533459  0  4.708905  0  0  1.375258  0  5.208947  0  0  1.423702  0  5.17164  0  0  0.380833  1.341398  0  5.234039  0
P  P2  1  0.19948994  0.98342135  0.59881475  1  0  1.533434  0  4.708835  0  0  1.375246  0  5.208866  0  0  1.423682  0  5.171563  0  0  0.380834  1.341386  0  5.233957  0
H  H3  1  0.19728252  0.04864564  0.44580294  1  0  0.423815  0  0.873939  0  0  0.391417  0  0.951363  0  0  0.403132  0  0.934371  0  0  0.322986  0.383237  0  0.960559  0
H  H4  1  0.80271948  0.95135286  0.55419628  1  0  0.42382  0  0.873906  0  0  0.391433  0  0.951335  0  0  0.403143  0  0.934349  0  0  0.322995  0.383249  0  0.960524  0
H  H5  1  0.04996748  0.85468926  0.19354014  1  0  0.104523  0  0.946237  0  0  0.115916  0  1.007251  0  0  0.119174  0  1.005419  0  0  0.105786  0.113371  0  1.009026  0
H  H6  1  0.95004586  0.14530750  0.80645851  1  0  0.104504  0  0.946312  0  0  0.115923  0  1.007294  0  0  0.119178  0  1.005469  0  0  0.1058  0.113375  0  1.009073  0
H  H7  1  0.96643062  0.47811052  0.06331728  1  0  0.108853  0  0.964646  0  0  0.114738  0  1.03463  0  0  0.11863  0  1.030886  0  0  0.106293  0.111931  0  1.037374  0
H  H8  1  0.03356335  0.52188442  0.93667758  1  0  0.108841  0  0.964684  0  0  0.114759  0  1.034616  0  0  0.118648  0  1.03088  0  0  0.106296  0.111955  0  1.037358  0
H  H9  1  0.60660619  0.58195099  0.14987293  1  0  0.103514  0  0.948172  0  0  0.116025  0  1.003184  0  0  0.118939  0  1.002395  0  0  0.105309  0.11374  0  1.004308  0
H  H10  1  0.39339015  0.41804924  0.85012567  1  0  0.103497  0  0.948206  0  0  0.11601  0  1.003219  0  0  0.118923  0  1.002431  0  0  0.10531  0.113725  0  1.004342  0
H  H11  1  0.47127657  0.32684064  0.26044835  1  0  0.103975  0  0.943654  0  0  0.114435  0  1.006404  0  0  0.117703  0  1.004479  0  0  0.106262  0.112144  0  1.0077  0
H  H12  1  0.52873304  0.67315785  0.73955031  1  0  0.103864  0  0.943715  0  0  0.114412  0  1.006389  0  0  0.117673  0  1.004464  0  0  0.106228  0.112119  0  1.007685  0
H  H13  1  0.71922490  0.74021714  0.28973786  1  0  0.143888  0  0.946085  0  0  0.157118  0  1.003296  0  0  0.15922  0  1.003507  0  0  0.115926  0.155524  0  1.003372  0
H  H14  1  0.28077346  0.25978313  0.71026319  1  0  0.143883  0  0.946095  0  0  0.157117  0  1.003306  0  0  0.159216  0  1.00352  0  0  0.115929  0.155524  0  1.003381  0
H  H15  1  0.45976519  0.92053418  0.30768721  1  0  0.15664  0  0.937818  0  0  0.170682  0  0.991589  0  0  0.173163  0  0.990928  0  0  0.120091  0.168927  0  0.992024  0
H  H16  1  0.54023907  0.07947125  0.69231091  1  0  0.156645  0  0.937851  0  0  0.170685  0  0.99162  0  0  0.173162  0  0.990962  0  0  0.120108  0.168929  0  0.992056  0
H  H17  1  0.44051062  0.17020456  0.97699059  1  0  0.39549  0  0.896247  0  0  0.365113  0  0.972883  0  0  0.378229  0  0.959142  0  0  0.30389  0.355891  0  0.982468  0
H  H18  1  0.55947645  0.82980086  0.02300743  1  0  0.395506  0  0.896335  0  0  0.365116  0  0.97298  0  0  0.378249  0  0.959208  0  0  0.303918  0.355893  0  0.982569  0
H  H19  1  0.16097186  0.68594450  0.38393596  1  0  0.411509  0  0.896773  0  0  0.382295  0  0.958528  0  0  0.392429  0  0.943566  0  0  0.299117  0.375086  0  0.969153  0
H  H20  1  0.83903791  0.31405068  0.61607117  1  0  0.411445  0  0.896884  0  0  0.382273  0  0.958556  0  0  0.392402  0  0.943604  0  0  0.299083  0.375062  0  0.969186  0
H  H21  1  0.03660658  0.43415119  0.39324487  1  0  0.426628  0  0.876938  0  0  0.395868  0  0.941298  0  0  0.406399  0  0.925905  0  0  0.300628  0.38835  0  0.9523  0
H  H22  1  0.96340342  0.56584747  0.60676292  1  0  0.426719  0  0.876839  0  0  0.395934  0  0.941241  0  0  0.406465  0  0.925847  0  0  0.300634  0.388415  0  0.952247  0
C  C23  1  0.75360163  0.07512115  0.23541978  1  0  0.14279  0  3.763703  0  0  0.163232  0  4.002477  0  0  0.162759  0  4.027671  0  0  -0.006179  0.163366  0  3.985565  0
C  C24  1  0.24639502  0.92488259  0.76458131  1  0  0.142795  0  3.763718  0  0  0.163262  0  4.002473  0  0  0.162791  0  4.027665  0  0  -0.00622  0.163398  0  3.985556  0
C  C25  1  0.95369996  0.01562366  0.18572132  1  0  -0.110249  0  3.675209  0  0  -0.146474  0  3.924078  0  0  -0.14631  0  3.944202  0  0  -0.080457  -0.146417  0  3.910896  0
C  C26  1  0.04630054  0.98438179  0.81427800  1  0  -0.110324  0  3.675416  0  0  -0.146586  0  3.924301  0  0  -0.146418  0  3.944414  0  0  -0.080503  -0.146525  0  3.911119  0
C  C27  1  0.03027619  0.15925579  0.12336716  1  0  -0.086003  0  3.798523  0  0  -0.060687  0  4.035524  0  0  -0.070767  0  4.06089  0  0  -0.022186  -0.054234  0  4.018246  0
C  C28  1  0.96972041  0.84074963  0.87663031  1  0  -0.085824  0  3.798439  0  0  -0.060514  0  4.035443  0  0  -0.070593  0  4.060808  0  0  -0.022093  -0.054062  0  4.018169  0
C  C29  1  0.90760890  0.36572428  0.11133734  1  0  -0.052182  0  3.695058  0  0  -0.085783  0  3.950462  0  0  -0.083339  0  3.968237  0  0  -0.081507  -0.086997  0  3.938225  0
C  C30  1  0.09238734  0.63427421  0.88866124  1  0  -0.052372  0  3.695126  0  0  -0.085993  0  3.950578  0  0  -0.083549  0  3.968353  0  0  -0.081583  -0.087198  0  3.938323  0
C  C31  1  0.70684328  0.42484140  0.16068023  1  0  -0.073595  0  3.762779  0  0  -0.084397  0  4.017789  0  0  -0.088053  0  4.038509  0  0  -0.090998  -0.081998  0  4.004067  0
C  C32  1  0.29315288  0.57515367  0.83932134  1  0  -0.073493  0  3.76247  0  0  -0.084303  0  4.01751  0  0  -0.087958  0  4.038229  0  0  -0.091004  -0.081911  0  4.003794  0
C  C33  1  0.63016999  0.28111514  0.22240348  1  0  -0.103887  0  3.694213  0  0  -0.130351  0  3.946082  0  0  -0.131021  0  3.965851  0  0  -0.081924  -0.12966  0  3.93247  0
C  C34  1  0.36983619  0.71889029  0.77759465  1  0  -0.103783  0  3.693868  0  0  -0.130327  0  3.945747  0  0  -0.130991  0  3.96551  0  0  -0.081849  -0.129632  0  3.932133  0
C  C35  1  0.66839530  0.92065072  0.30182390  1  0  -0.495641  0  3.691597  0  0  -0.514835  0  3.923426  0  0  -0.524364  0  3.931724  0  0  -0.154282  -0.508031  0  3.917725  0
C  C36  1  0.33161065  0.07934953  0.69817598  1  0  -0.495671  0  3.691683  0  0  -0.514851  0  3.923459  0  0  -0.52438  0  3.93176  0  0  -0.154302  -0.508051  0  3.917761  0
C  C37  1  0.23679032  0.08558535  0.06973478  1  0  0.655435  0  3.813216  0  0  0.600892  0  4.114452  0  0  0.634688  0  4.106833  0  0  0.236865  0.578066  0  4.118813  0
C  C38  1  0.76320445  0.91442349  0.93025968  1  0  0.655492  0  3.813031  0  0  0.600943  0  4.114301  0  0  0.634737  0  4.106687  0  0  0.236915  0.578111  0  4.118669  0
O  O39  1  0.75857744  0.27213132  0.42002787  1  0  -0.922416  0  1.922939  0  0  -0.836588  0  2.183122  0  0  -0.863888  0  2.163879  0  0  -0.4177  -0.81691  0  2.1961  0
O  O40  1  0.24142456  0.72786548  0.57997376  1  0  -0.922401  0  1.922789  0  0  -0.836566  0  2.18297  0  0  -0.863869  0  2.163731  0  0  -0.417722  -0.816887  0  2.19595  0
O  O41  1  0.70263649  0.85151905  0.46514878  1  0  -0.922076  0  1.948651  0  0  -0.835357  0  2.210485  0  0  -0.862562  0  2.190997  0  0  -0.415687  -0.81572  0  2.223041  0
O  O42  1  0.29736386  0.14848295  0.53485170  1  0  -0.922111  0  1.948677  0  0  -0.83539  0  2.210501  0  0  -0.862596  0  2.191017  0  0  -0.415711  -0.815757  0  2.223065  0
O  O43  1  0.10373575  0.98803308  0.39264161  1  0  -0.76461  0  2.040324  0  0  -0.682397  0  2.265032  0  0  -0.704864  0  2.241053  0  0  -0.370423  -0.666731  0  2.279529  0
O  O44  1  0.89626442  0.01196545  0.60735943  1  0  -0.764544  0  2.040293  0  0  -0.682387  0  2.265025  0  0  -0.704832  0  2.241033  0  0  -0.370392  -0.666715  0  2.279508  0
O  O45  1  0.29278623  0.22896041  0.01174184  1  0  -0.537157  0  2.123124  0  0  -0.482374  0  2.343538  0  0  -0.506021  0  2.331488  0  0  -0.316084  -0.465919  0  2.351318  0
O  O46  1  0.70720872  0.77104851  0.98825688  1  0  -0.53721  0  2.122984  0  0  -0.482414  0  2.343427  0  0  -0.506071  0  2.331361  0  0  -0.316154  -0.465953  0  2.351208  0
O  O47  1  0.34501781  0.89994566  0.07889316  1  0  -0.569371  0  1.997312  0  0  -0.518633  0  2.217885  0  0  -0.541492  0  2.21016  0  0  -0.284281  -0.502858  0  2.222792  0
O  O48  1  0.65497275  0.10005623  0.92110178  1  0  -0.569401  0  1.997274  0  0  -0.518689  0  2.217878  0  0  -0.54154  0  2.210158  0  0  -0.284312  -0.502914  0  2.222789  0
O  O49  1  0.20317151  0.52196215  0.38761315  1  0  -0.878507  0  1.775522  0  0  -0.827255  0  1.951168  0  0  -0.846453  0  1.92031  0  0  -0.630817  -0.813347  0  1.972803  0
O  O50  1  0.79683839  0.47803477  0.61239461  1  0  -0.878543  0  1.775505  0  0  -0.827309  0  1.951183  0  0  -0.846499  0  1.920313  0  0  -0.630783  -0.813401  0  1.97282  0
