# generated using pymatgen
data_CdH14C16N2O7
_symmetry_space_group_name_H-M   'P 1'
_cell_length_a   9.14799317
_cell_length_b   9.51959773
_cell_length_c   10.53317950
_cell_angle_alpha   117.19304944
_cell_angle_beta   89.85805727
_cell_angle_gamma   90.22207589
_symmetry_Int_Tables_number   1
_chemical_formula_structural   CdH14C16N2O7
_chemical_formula_sum   'Cd2 H28 C32 N4 O14'
_cell_volume   815.89206035
_cell_formula_units_Z   2
loop_
 _symmetry_equiv_pos_site_id
 _symmetry_equiv_pos_as_xyz
  1  'x, y, z'
loop_
 _atom_site_type_symbol
 _atom_site_label
 _atom_site_symmetry_multiplicity
 _atom_site_fract_x
 _atom_site_fract_y
 _atom_site_fract_z
 _atom_site_occupancy
 _atom_site_hle17_bader_spin_density
 _atom_site_hle17_ddec_charge
 _atom_site_hle17_ddec_spin_density
 _atom_site_hle17_ddec_sum_bond_order
 _atom_site_hle17_magmom
 _atom_site_hse06_10hf_bader_spin_density
 _atom_site_hse06_10hf_ddec_charge
 _atom_site_hse06_10hf_ddec_spin_density
 _atom_site_hse06_10hf_ddec_sum_bond_order
 _atom_site_hse06_10hf_magmom
 _atom_site_hse06_bader_spin_density
 _atom_site_hse06_ddec_charge
 _atom_site_hse06_ddec_spin_density
 _atom_site_hse06_ddec_sum_bond_order
 _atom_site_hse06_magmom
 _atom_site_pbe_bader_spin_density
 _atom_site_pbe_cm5_charge
 _atom_site_pbe_ddec_charge
 _atom_site_pbe_ddec_spin_density
 _atom_site_pbe_ddec_sum_bond_order
 _atom_site_pbe_magmom
Cd  Cd0  1  0.74977166  0.08179819  0.33617103  1  0  1.12986  0  1.648233  0  0  0.93121  0  2.09334  0  0  0.990695  0  2.03918  0  0  0.766081  0.89104  0  2.127837  0
Cd  Cd1  1  0.25024049  0.91820055  0.66382787  1  0  1.129814  0  1.648182  0  0  0.931168  0  2.093277  0  0  0.990658  0  2.039114  0  0  0.766069  0.890993  0  2.127774  0
H  H2  1  0.23922184  0.04793401  0.18742918  1  0  0.11275  0  0.92987  0  0  0.128591  0  0.987729  0  0  0.131198  0  0.986521  0  0  0.104329  0.126428  0  0.98912  0
H  H3  1  0.76078911  0.95206484  0.81257450  1  0  0.112682  0  0.929923  0  0  0.128483  0  0.987768  0  0  0.131089  0  0.98656  0  0  0.104266  0.126317  0  0.989157  0
H  H4  1  0.34496715  0.94961257  0.02962558  1  0  0.144885  0  0.928381  0  0  0.156484  0  0.988375  0  0  0.160085  0  0.985672  0  0  0.109945  0.153653  0  0.990812  0
H  H5  1  0.65504330  0.05039332  0.97037146  1  0  0.14489  0  0.928381  0  0  0.156444  0  0.988376  0  0  0.160047  0  0.98567  0  0  0.109944  0.153612  0  0.990814  0
H  H6  1  0.38430214  0.44053039  0.99746473  1  0  0.402204  0  0.88669  0  0  0.369721  0  0.967716  0  0  0.382992  0  0.952844  0  0  0.307063  0.360426  0  0.978085  0
H  H7  1  0.61568383  0.55946864  0.00253103  1  0  0.402141  0  0.886741  0  0  0.369684  0  0.967741  0  0  0.38296  0  0.95286  0  0  0.30701  0.360385  0  0.978107  0
H  H8  1  0.08207334  0.65714667  0.11449809  1  0  0.125818  0  0.952257  0  0  0.134314  0  1.016951  0  0  0.137814  0  1.014611  0  0  0.11379  0.131322  0  1.019079  0
H  H9  1  0.91791359  0.34287003  0.88550297  1  0  0.125788  0  0.952414  0  0  0.134262  0  1.017138  0  0  0.137761  0  1.014801  0  0  0.113733  0.13127  0  1.019262  0
H  H10  1  0.84353997  0.97955668  0.54378785  1  0  0.418633  0  0.887484  0  0  0.386742  0  0.953432  0  0  0.398146  0  0.936992  0  0  0.280781  0.378616  0  0.965148  0
H  H11  1  0.15646221  0.02044389  0.45622018  1  0  0.418585  0  0.887539  0  0  0.38666  0  0.953552  0  0  0.398065  0  0.937111  0  0  0.280735  0.378532  0  0.965272  0
H  H12  1  0.67115754  0.97943942  0.54695557  1  0  0.420983  0  0.887832  0  0  0.387539  0  0.956726  0  0  0.39897  0  0.940258  0  0  0.281762  0.37912  0  0.968986  0
H  H13  1  0.32884678  0.02055743  0.45304529  1  0  0.42099  0  0.887826  0  0  0.387528  0  0.956747  0  0  0.398964  0  0.940271  0  0  0.281748  0.379109  0  0.969009  0
H  H14  1  0.97286820  0.17501115  0.13705388  1  0  0.08165  0  0.929184  0  0  0.090683  0  0.991589  0  0  0.09296  0  0.990199  0  0  0.117403  0.088853  0  0.993073  0
H  H15  1  0.02713634  0.82500569  0.86294371  1  0  0.081624  0  0.929219  0  0  0.090661  0  0.991616  0  0  0.092937  0  0.990227  0  0  0.117418  0.088832  0  0.993097  0
H  H16  1  0.09236850  0.40918007  0.13314200  1  0  0.117463  0  0.946997  0  0  0.126058  0  1.007795  0  0  0.129791  0  1.005997  0  0  0.110448  0.123263  0  1.009158  0
H  H17  1  0.90763711  0.59084275  0.86687228  1  0  0.117444  0  0.94704  0  0  0.126043  0  1.007837  0  0  0.129778  0  1.00603  0  0  0.110462  0.123247  0  1.0092  0
H  H18  1  0.02591223  0.68177146  0.32945736  1  0  0.096608  0  0.944108  0  0  0.111226  0  0.999  0  0  0.113069  0  0.99804  0  0  0.11027  0.109815  0  0.999872  0
H  H19  1  0.97409194  0.31824675  0.67055882  1  0  0.096583  0  0.944146  0  0  0.11121  0  0.999014  0  0  0.113058  0  0.998059  0  0  0.110223  0.109797  0  0.999894  0
H  H20  1  0.84544991  0.70458805  0.50991908  1  0  0.115598  0  0.959749  0  0  0.124398  0  1.02251  0  0  0.128291  0  1.020154  0  0  0.109787  0.121618  0  1.024629  0
H  H21  1  0.15454092  0.29542378  0.49008955  1  0  0.115527  0  0.959906  0  0  0.124403  0  1.022588  0  0  0.128298  0  1.020226  0  0  0.109724  0.121616  0  1.024724  0
H  H22  1  0.67467285  0.71048802  0.63121047  1  0  0.104407  0  0.965486  0  0  0.115984  0  1.025046  0  0  0.118495  0  1.024709  0  0  0.10892  0.114116  0  1.025686  0
H  H23  1  0.32528896  0.28951003  0.36878546  1  0  0.104409  0  0.965419  0  0  0.115972  0  1.025049  0  0  0.118448  0  1.024752  0  0  0.108928  0.114123  0  1.025669  0
H  H24  1  0.48422762  0.70742923  0.79635469  1  0  0.113476  0  0.95194  0  0  0.122714  0  1.010583  0  0  0.125492  0  1.008973  0  0  0.111422  0.120643  0  1.012026  0
H  H25  1  0.51574123  0.29253891  0.20363584  1  0  0.113464  0  0.951966  0  0  0.122631  0  1.010684  0  0  0.125409  0  1.009076  0  0  0.111444  0.12057  0  1.012132  0
H  H26  1  0.40228585  0.44253480  0.77658342  1  0  0.102326  0  0.961  0  0  0.113674  0  1.018019  0  0  0.116144  0  1.018325  0  0  0.108044  0.111585  0  1.018305  0
H  H27  1  0.59771846  0.55742067  0.22340252  1  0  0.102328  0  0.961043  0  0  0.113674  0  1.018063  0  0  0.116143  0  1.01837  0  0  0.108046  0.111584  0  1.018349  0
H  H28  1  0.52994807  0.20014361  0.60396532  1  0  0.095852  0  0.969494  0  0  0.102479  0  1.034181  0  0  0.105387  0  1.031764  0  0  0.118311  0.100513  0  1.035587  0
H  H29  1  0.47007568  0.79982248  0.39601384  1  0  0.095879  0  0.969414  0  0  0.102511  0  1.034044  0  0  0.105422  0  1.031626  0  0  0.118258  0.100544  0  1.03545  0
C  C30  1  0.46142539  0.00137861  0.22193981  1  0  0.700591  0  3.857333  0  0  0.646549  0  4.168004  0  0  0.680435  0  4.161511  0  0  0.20193  0.624223  0  4.170573  0
C  C31  1  0.53857676  0.99862198  0.77807013  1  0  0.700579  0  3.857113  0  0  0.6465  0  4.167761  0  0  0.680382  0  4.161278  0  0  0.201906  0.624171  0  4.170332  0
C  C32  1  0.32063287  0.95434574  0.13391364  1  0  -0.295255  0  3.683204  0  0  -0.338809  0  3.927607  0  0  -0.344451  0  3.93493  0  0  -0.162501  -0.334821  0  3.922492  0
C  C33  1  0.67937355  0.04564861  0.86608433  1  0  -0.295218  0  3.683172  0  0  -0.338558  0  3.927318  0  0  -0.344198  0  3.93463  0  0  -0.162433  -0.334567  0  3.9222  0
C  C34  1  0.25751047  0.79973213  0.11419897  1  0  -0.00339  0  3.718974  0  0  0.009915  0  3.972547  0  0  0.004426  0  3.993981  0  0  -0.011991  0.013591  0  3.957039  0
C  C35  1  0.74248749  0.20026380  0.88579097  1  0  -0.003315  0  3.718929  0  0  0.009942  0  3.972496  0  0  0.004455  0  3.993926  0  0  -0.011955  0.013622  0  3.956973  0
C  C36  1  0.35907613  0.66339860  0.05736803  1  0  0.641046  0  3.790519  0  0  0.586982  0  4.094837  0  0  0.62013  0  4.087085  0  0  0.236439  0.564131  0  4.099804  0
C  C37  1  0.64091384  0.33659069  0.94261813  1  0  0.640856  0  3.791013  0  0  0.586751  0  4.095393  0  0  0.619906  0  4.087623  0  0  0.236383  0.5639  0  4.100358  0
C  C38  1  0.11854899  0.77733798  0.14401487  1  0  -0.192441  0  3.596354  0  0  -0.230157  0  3.866086  0  0  -0.230651  0  3.87608  0  0  -0.073876  -0.228479  0  3.85818  0
C  C39  1  0.88145097  0.22267318  0.85597654  1  0  -0.192508  0  3.596532  0  0  -0.23024  0  3.866334  0  0  -0.230741  0  3.876327  0  0  -0.073849  -0.228557  0  3.858426  0
C  C40  1  0.00384317  0.90067418  0.21184356  1  0  0.671352  0  3.947863  0  0  0.625792  0  4.242258  0  0  0.659438  0  4.23551  0  0  0.19422  0.602587  0  4.246266  0
C  C41  1  0.99616172  0.09934975  0.78815787  1  0  0.671691  0  3.947659  0  0  0.626139  0  4.242051  0  0  0.659795  0  4.235284  0  0  0.194263  0.602929  0  4.246066  0
C  C42  1  0.94788286  0.29440038  0.21878804  1  0  0.136617  0  3.716045  0  0  0.105541  0  3.972835  0  0  0.111663  0  3.992709  0  0  0.050708  0.101948  0  3.958217  0
C  C43  1  0.05211558  0.70560862  0.78121576  1  0  0.136547  0  3.716243  0  0  0.105492  0  3.973014  0  0  0.111616  0  3.992889  0  0  0.050648  0.101899  0  3.958391  0
C  C44  1  0.01364626  0.42570926  0.21659818  1  0  -0.119112  0  3.713259  0  0  -0.133145  0  3.967687  0  0  -0.140087  0  3.989737  0  0  -0.080759  -0.127392  0  3.951279  0
C  C45  1  0.98635614  0.57431251  0.78340993  1  0  -0.11908  0  3.713325  0  0  -0.133135  0  3.967753  0  0  -0.140074  0  3.989804  0  0  -0.08078  -0.127383  0  3.951343  0
C  C46  1  0.97614325  0.57491682  0.32375350  1  0  0.005146  0  3.705353  0  0  -0.013446  0  3.95354  0  0  -0.010268  0  3.972481  0  0  -0.065605  -0.016033  0  3.941084  0
C  C47  1  0.02386079  0.42509783  0.67625934  1  0  0.005291  0  3.705035  0  0  -0.013292  0  3.953167  0  0  -0.010128  0  3.972121  0  0  -0.065444  -0.015882  0  3.940706  0
C  C48  1  0.87443106  0.58799516  0.42687594  1  0  -0.128718  0  3.68279  0  0  -0.148894  0  3.932356  0  0  -0.154911  0  3.95223  0  0  -0.076394  -0.145701  0  3.920701  0
C  C49  1  0.12556884  0.41201964  0.57312740  1  0  -0.128795  0  3.682934  0  0  -0.149057  0  3.932507  0  0  -0.155073  0  3.952376  0  0  -0.076413  -0.145862  0  3.92085  0
C  C50  1  0.81335866  0.45059970  0.42217822  1  0  0.16975  0  3.778552  0  0  0.166222  0  4.019182  0  0  0.172184  0  4.041081  0  0  0.119077  0.161528  0  4.005373  0
C  C51  1  0.18663783  0.54941052  0.57781845  1  0  0.169812  0  3.778797  0  0  0.166348  0  4.019365  0  0  0.172314  0  4.041259  0  0  0.119069  0.161649  0  4.005552  0
C  C52  1  0.70401692  0.45667566  0.52890597  1  0  0.167891  0  3.795846  0  0  0.164974  0  4.034295  0  0  0.17145  0  4.056885  0  0  0.117715  0.160226  0  4.019646  0
C  C53  1  0.29598763  0.54332350  0.47109108  1  0  0.167734  0  3.796209  0  0  0.1648  0  4.034663  0  0  0.17127  0  4.057259  0  0  0.117669  0.160058  0  4.020015  0
C  C54  1  0.64199567  0.59909569  0.62832172  1  0  -0.138265  0  3.690246  0  0  -0.156173  0  3.936226  0  0  -0.163559  0  3.958672  0  0  -0.079282  -0.152359  0  3.923098  0
C  C55  1  0.35799287  0.40089501  0.37168209  1  0  -0.138248  0  3.690271  0  0  -0.156184  0  3.936331  0  0  -0.163542  0  3.95879  0  0  -0.079322  -0.152391  0  3.923209  0
C  C56  1  0.53362417  0.59676842  0.72024894  1  0  0.010639  0  3.684463  0  0  -0.009634  0  3.936387  0  0  -0.005508  0  3.953762  0  0  -0.0663  -0.013519  0  3.92625  0
C  C57  1  0.46636024  0.40320113  0.27973577  1  0  0.010892  0  3.684553  0  0  -0.009325  0  3.936544  0  0  -0.005198  0  3.953909  0  0  -0.066188  -0.01322  0  3.926426  0
C  C58  1  0.48938425  0.45184948  0.71043802  1  0  -0.114007  0  3.721932  0  0  -0.129101  0  3.977896  0  0  -0.136276  0  3.999792  0  0  -0.085346  -0.124282  0  3.963228  0
C  C59  1  0.51061719  0.54811444  0.28955226  1  0  -0.114178  0  3.722086  0  0  -0.129297  0  3.978026  0  0  -0.136472  0  3.999922  0  0  -0.08544  -0.124474  0  3.963359  0
C  C60  1  0.55856778  0.31530408  0.61241354  1  0  0.135654  0  3.69516  0  0  0.103628  0  3.95071  0  0  0.110572  0  3.969156  0  0  0.046859  0.099642  0  3.937238  0
C  C61  1  0.44143880  0.68467132  0.38757484  1  0  0.135543  0  3.694956  0  0  0.103587  0  3.95042  0  0  0.110529  0  3.968865  0  0  0.046947  0.099604  0  3.936946  0
N  N62  1  0.85125146  0.30636495  0.31898595  1  0  -0.365196  0  3.237314  0  0  -0.297873  0  3.499501  0  0  -0.316591  0  3.518242  0  0  -0.320588  -0.283694  0  3.485649  0
N  N63  1  0.14874694  0.69364164  0.68101308  1  0  -0.365151  0  3.23743  0  0  -0.29787  0  3.4996  0  0  -0.31659  0  3.51834  0  0  -0.320565  -0.283688  0  3.485744  0
N  N64  1  0.66341662  0.31819145  0.52443626  1  0  -0.377035  0  3.271149  0  0  -0.304798  0  3.53178  0  0  -0.325732  0  3.551731  0  0  -0.328641  -0.289846  0  3.517547  0
N  N65  1  0.33659425  0.68180381  0.47556121  1  0  -0.376787  0  3.271003  0  0  -0.30458  0  3.531619  0  0  -0.325518  0  3.551585  0  0  -0.328602  -0.289629  0  3.517383  0
O  O66  1  0.56947940  0.04683137  0.17333948  1  0  -0.626862  0  1.989571  0  0  -0.559857  0  2.237762  0  0  -0.589079  0  2.226971  0  0  -0.321034  -0.540681  0  2.244073  0
O  O67  1  0.43053224  0.95316277  0.82666894  1  0  -0.626755  0  1.989503  0  0  -0.55976  0  2.237724  0  0  -0.588982  0  2.226945  0  0  -0.321013  -0.540577  0  2.244024  0
O  O68  1  0.46595667  0.99782120  0.34124753  1  0  -0.666206  0  1.994524  0  0  -0.597011  0  2.224771  0  0  -0.624744  0  2.215866  0  0  -0.323259  -0.577546  0  2.229853  0
O  O69  1  0.53405222  0.00218254  0.65876285  1  0  -0.666211  0  1.994382  0  0  -0.597096  0  2.224726  0  0  -0.624825  0  2.215822  0  0  -0.323263  -0.577631  0  2.229809  0
O  O70  1  0.49192412  0.68467387  0.04468532  1  0  -0.546975  0  2.014104  0  0  -0.487323  0  2.224917  0  0  -0.508971  0  2.216783  0  0  -0.266414  -0.471907  0  2.229835  0
O  O71  1  0.50807545  0.31531857  0.95531937  1  0  -0.546955  0  2.014547  0  0  -0.487198  0  2.225285  0  0  -0.508841  0  2.21714  0  0  -0.266413  -0.471785  0  2.230198  0
O  O72  1  0.30168404  0.52278021  0.02503242  1  0  -0.547733  0  2.104596  0  0  -0.499473  0  2.326131  0  0  -0.521252  0  2.312138  0  0  -0.326889  -0.484373  0  2.335805  0
O  O73  1  0.69830289  0.47721760  0.97496571  1  0  -0.54767  0  2.104566  0  0  -0.499398  0  2.326052  0  0  -0.521178  0  2.312044  0  0  -0.326829  -0.484293  0  2.335723  0
O  O74  1  0.88699118  0.88438783  0.14165912  1  0  -0.605863  0  1.875289  0  0  -0.54214  0  2.091223  0  0  -0.571139  0  2.08191  0  0  -0.321035  -0.522955  0  2.096657  0
O  O75  1  0.11301949  0.11564047  0.85834037  1  0  -0.605958  0  1.875289  0  0  -0.542216  0  2.091203  0  0  -0.571213  0  2.081873  0  0  -0.321027  -0.523035  0  2.09665  0
O  O76  1  0.02413092  0.01134534  0.33800172  1  0  -0.64617  0  1.955101  0  0  -0.578304  0  2.178081  0  0  -0.607943  0  2.169241  0  0  -0.315849  -0.556766  0  2.183414  0
O  O77  1  0.97586793  0.98866950  0.66199972  1  0  -0.646338  0  1.95477  0  0  -0.578523  0  2.177794  0  0  -0.60817  0  2.168944  0  0  -0.315906  -0.556987  0  2.183133  0
O  O78  1  0.75650220  0.95918797  0.48088445  1  0  -0.847978  0  1.870458  0  0  -0.785261  0  2.071589  0  0  -0.808653  0  2.036632  0  0  -0.599523  -0.768509  0  2.096155  0
O  O79  1  0.24350442  0.04081232  0.51912069  1  0  -0.847916  0  1.870469  0  0  -0.785183  0  2.071622  0  0  -0.808576  0  2.036663  0  0  -0.599468  -0.768426  0  2.096186  0
