# generated using pymatgen
data_ZnH16C18N2(ClO)2
_symmetry_space_group_name_H-M   'P 1'
_cell_length_a   8.75814680
_cell_length_b   10.26256893
_cell_length_c   10.54105784
_cell_angle_alpha   86.97044042
_cell_angle_beta   72.34713045
_cell_angle_gamma   73.02648197
_symmetry_Int_Tables_number   1
_chemical_formula_structural   ZnH16C18N2(ClO)2
_chemical_formula_sum   'Zn2 H32 C36 N4 Cl4 O4'
_cell_volume   862.83868039
_cell_formula_units_Z   2
loop_
 _symmetry_equiv_pos_site_id
 _symmetry_equiv_pos_as_xyz
  1  'x, y, z'
loop_
 _atom_site_type_symbol
 _atom_site_label
 _atom_site_symmetry_multiplicity
 _atom_site_fract_x
 _atom_site_fract_y
 _atom_site_fract_z
 _atom_site_occupancy
 _atom_site_hle17_bader_spin_density
 _atom_site_hle17_ddec_charge
 _atom_site_hle17_ddec_spin_density
 _atom_site_hle17_ddec_sum_bond_order
 _atom_site_hle17_magmom
 _atom_site_hse06_10hf_bader_spin_density
 _atom_site_hse06_10hf_ddec_charge
 _atom_site_hse06_10hf_ddec_spin_density
 _atom_site_hse06_10hf_ddec_sum_bond_order
 _atom_site_hse06_10hf_magmom
 _atom_site_hse06_bader_spin_density
 _atom_site_hse06_ddec_charge
 _atom_site_hse06_ddec_spin_density
 _atom_site_hse06_ddec_sum_bond_order
 _atom_site_hse06_magmom
 _atom_site_pbe_bader_spin_density
 _atom_site_pbe_cm5_charge
 _atom_site_pbe_ddec_charge
 _atom_site_pbe_ddec_spin_density
 _atom_site_pbe_ddec_sum_bond_order
 _atom_site_pbe_magmom
Zn  Zn0  1  0.70870947  0.79052811  0.29415920  1  0  0.846736  0  2.062283  0  0  0.662758  0  2.549139  0  0  0.703497  0  2.503768  0  0  0.563743  0.63466  0  2.580226  0
Zn  Zn1  1  0.29129123  0.20947139  0.70584037  1  0  0.846683  0  2.062316  0  0  0.662721  0  2.549169  0  0  0.703463  0  2.503803  0  0  0.563726  0.634628  0  2.580255  0
H  H2  1  0.89057394  0.57747093  0.42198965  1  0  0.071256  0  0.977263  0  0  0.079876  0  1.043149  0  0  0.081883  0  1.041653  0  0  0.106414  0.078076  0  1.044985  0
H  H3  1  0.10942594  0.42252754  0.57800922  1  0  0.071235  0  0.977202  0  0  0.079846  0  1.043111  0  0  0.081853  0  1.041613  0  0  0.106404  0.078046  0  1.044949  0
H  H4  1  0.05300205  0.32918362  0.39067644  1  0  0.106071  0  0.976469  0  0  0.114437  0  1.040525  0  0  0.117469  0  1.04009  0  0  0.096738  0.112157  0  1.041027  0
H  H5  1  0.94699425  0.67081482  0.60932331  1  0  0.106065  0  0.976428  0  0  0.114422  0  1.040488  0  0  0.117449  0  1.040049  0  0  0.096752  0.112139  0  1.040988  0
H  H6  1  0.05402848  0.19742152  0.19478686  1  0  0.089663  0  0.950486  0  0  0.100602  0  1.011726  0  0  0.102428  0  1.010952  0  0  0.103971  0.099399  0  1.012094  0
H  H7  1  0.94596735  0.80257488  0.80521500  1  0  0.089735  0  0.950469  0  0  0.100635  0  1.011744  0  0  0.102462  0  1.010969  0  0  0.104  0.09943  0  1.012112  0
H  H8  1  0.89207365  0.31827493  0.04338708  1  0  0.12458  0  0.955771  0  0  0.127802  0  1.023379  0  0  0.13199  0  1.021112  0  0  0.106935  0.124672  0  1.025282  0
H  H9  1  0.10792182  0.68172249  0.95661387  1  0  0.124533  0  0.955698  0  0  0.127797  0  1.023265  0  0  0.131984  0  1.020997  0  0  0.10693  0.124669  0  1.025166  0
H  H10  1  0.57413418  0.61648214  0.12172308  1  0  0.06763  0  0.950084  0  0  0.078639  0  1.020399  0  0  0.078328  0  1.021819  0  0  0.102884  0.078798  0  1.019572  0
H  H11  1  0.42586615  0.38351838  0.87827654  1  0  0.067627  0  0.95008  0  0  0.078638  0  1.020409  0  0  0.078328  0  1.021827  0  0  0.102883  0.078791  0  1.019576  0
H  H12  1  0.74557504  0.68090429  0.03350996  1  0  0.058994  0  0.964674  0  0  0.067314  0  1.04274  0  0  0.067577  0  1.042188  0  0  0.096386  0.066888  0  1.043644  0
H  H13  1  0.25442878  0.31909317  0.96649084  1  0  0.058964  0  0.964663  0  0  0.067342  0  1.042687  0  0  0.067609  0  1.04213  0  0  0.096388  0.066911  0  1.043589  0
H  H14  1  0.77671391  0.36406780  0.74670399  1  0  0.104554  0  0.965306  0  0  0.115898  0  1.025463  0  0  0.118347  0  1.025096  0  0  0.099027  0.114492  0  1.025392  0
H  H15  1  0.22328400  0.63593270  0.25329907  1  0  0.10449  0  0.965314  0  0  0.115836  0  1.02548  0  0  0.118286  0  1.025111  0  0  0.098999  0.114432  0  1.025411  0
H  H16  1  0.64737242  0.44543113  0.56380728  1  0  0.112025  0  0.976896  0  0  0.117887  0  1.044546  0  0  0.12168  0  1.042356  0  0  0.100092  0.11488  0  1.046762  0
H  H17  1  0.35262391  0.55457037  0.43619706  1  0  0.111978  0  0.976928  0  0  0.117842  0  1.044585  0  0  0.121629  0  1.042408  0  0  0.100091  0.114846  0  1.046767  0
H  H18  1  0.39997864  0.83672153  0.77201271  1  0  0.101016  0  0.985326  0  0  0.107982  0  1.055134  0  0  0.110843  0  1.053737  0  0  0.092069  0.106432  0  1.055389  0
H  H19  1  0.60001771  0.16327998  0.22798973  1  0  0.100984  0  0.985369  0  0  0.107994  0  1.055128  0  0  0.110854  0  1.053733  0  0  0.092091  0.106443  0  1.055386  0
H  H20  1  0.52269226  0.75576532  0.95118802  1  0  0.090439  0  0.992651  0  0  0.101436  0  1.057913  0  0  0.103657  0  1.057308  0  0  0.09477  0.099949  0  1.058249  0
H  H21  1  0.47730731  0.24423723  0.04881359  1  0  0.090437  0  0.992664  0  0  0.101446  0  1.057912  0  0  0.103668  0  1.057306  0  0  0.094762  0.09996  0  1.05825  0
H  H22  1  0.43310400  0.88994233  0.56143376  1  0  0.072647  0  0.966033  0  0  0.077885  0  1.044071  0  0  0.079066  0  1.042498  0  0  0.094819  0.076978  0  1.045403  0
H  H23  1  0.56689513  0.11005817  0.43856710  1  0  0.072604  0  0.966017  0  0  0.077856  0  1.044073  0  0  0.079037  0  1.042501  0  0  0.09481  0.076949  0  1.045408  0
H  H24  1  0.24424719  0.84221153  0.62746775  1  0  0.069503  0  0.931675  0  0  0.080829  0  0.999112  0  0  0.081445  0  0.998518  0  0  0.101015  0.080458  0  0.999323  0
H  H25  1  0.75575159  0.15779001  0.37253030  1  0  0.069538  0  0.931685  0  0  0.080868  0  0.999137  0  0  0.081485  0  0.998543  0  0  0.101042  0.080498  0  0.999344  0
H  H26  1  0.06684492  0.86327173  0.49409177  1  0  0.108344  0  0.96778  0  0  0.116463  0  1.032539  0  0  0.119097  0  1.033017  0  0  0.101016  0.114538  0  1.0324  0
H  H27  1  0.93315745  0.13672983  0.50590540  1  0  0.108312  0  0.96788  0  0  0.116422  0  1.032652  0  0  0.119057  0  1.033131  0  0  0.101001  0.114497  0  1.032514  0
H  H28  1  0.00768986  0.92801158  0.27907847  1  0  0.093239  0  0.983092  0  0  0.097595  0  1.055127  0  0  0.100529  0  1.052581  0  0  0.093093  0.095481  0  1.056846  0
H  H29  1  0.99231324  0.07198793  0.72091957  1  0  0.093233  0  0.983069  0  0  0.097571  0  1.055113  0  0  0.100505  0  1.052566  0  0  0.093093  0.095457  0  1.056832  0
H  H30  1  0.24351775  0.95736098  0.08167461  1  0  0.115787  0  0.969582  0  0  0.122706  0  1.033024  0  0  0.125976  0  1.032137  0  0  0.098557  0.120348  0  1.033867  0
H  H31  1  0.75648417  0.04263853  0.91832182  1  0  0.115774  0  0.969683  0  0  0.122715  0  1.033085  0  0  0.125983  0  1.032198  0  0  0.098536  0.120354  0  1.033932  0
H  H32  1  0.53106602  0.90403020  0.10884374  1  0  0.068671  0  0.975269  0  0  0.07759  0  1.040679  0  0  0.079968  0  1.038425  0  0  0.105049  0.075766  0  1.042301  0
H  H33  1  0.46893791  0.09597034  0.89115309  1  0  0.068611  0  0.975266  0  0  0.077511  0  1.040698  0  0  0.079888  0  1.038445  0  0  0.105042  0.075688  0  1.042318  0
C  C34  1  0.89456174  0.51486858  0.34008086  1  0  0.143262  0  3.687982  0  0  0.111614  0  3.93487  0  0  0.119496  0  3.952565  0  0  0.046483  0.105695  0  3.924181  0
C  C35  1  0.10543895  0.48513091  0.65992062  1  0  0.143253  0  3.688059  0  0  0.111565  0  3.934977  0  0  0.119447  0  3.952668  0  0  0.04648  0.105645  0  3.924295  0
C  C36  1  0.98308436  0.37734967  0.32244535  1  0  -0.118611  0  3.719688  0  0  -0.132246  0  3.969226  0  0  -0.140282  0  3.991229  0  0  -0.084157  -0.126334  0  3.954703  0
C  C37  1  0.01691314  0.62264879  0.67755411  1  0  -0.118526  0  3.719577  0  0  -0.132089  0  3.969042  0  0  -0.140116  0  3.991037  0  0  -0.08412  -0.126177  0  3.954519  0
C  C38  1  0.98360180  0.30484835  0.21421500  1  0  0.015065  0  3.708006  0  0  -0.001611  0  3.956997  0  0  0.003111  0  3.974721  0  0  -0.061833  -0.005163  0  3.944814  0
C  C39  1  0.01639174  0.69515110  0.78578538  1  0  0.014891  0  3.707993  0  0  -0.001787  0  3.956974  0  0  0.002934  0  3.974693  0  0  -0.061952  -0.00534  0  3.944791  0
C  C40  1  0.89424787  0.37164134  0.12890644  1  0  -0.147364  0  3.680696  0  0  -0.16852  0  3.931801  0  0  -0.176349  0  3.952147  0  0  -0.082036  -0.162915  0  3.918154  0
C  C41  1  0.10574952  0.62835405  0.87109603  1  0  -0.147249  0  3.680576  0  0  -0.168395  0  3.931652  0  0  -0.176222  0  3.951998  0  0  -0.081968  -0.162793  0  3.918008  0
C  C42  1  0.80829448  0.50994672  0.15266535  1  0  0.249194  0  3.676781  0  0  0.247333  0  3.919682  0  0  0.255743  0  3.939454  0  0  0.125506  0.241508  0  3.906844  0
C  C43  1  0.19170271  0.49005581  0.84733494  1  0  0.249127  0  3.676553  0  0  0.247181  0  3.919609  0  0  0.255587  0  3.939382  0  0  0.125448  0.241351  0  3.906768  0
C  C44  1  0.70868996  0.58706912  0.06484157  1  0  0.005228  0  3.680769  0  0  -0.058195  0  3.940505  0  0  -0.051668  0  3.945377  0  0  -0.064561  -0.063018  0  3.938164  0
C  C45  1  0.29130954  0.41293036  0.93515924  1  0  0.005261  0  3.680622  0  0  -0.058192  0  3.940393  0  0  -0.051667  0  3.945267  0  0  -0.064569  -0.062984  0  3.938013  0
C  C46  1  0.65998400  0.55472204  0.85963213  1  0  0.249743  0  3.828613  0  0  0.238329  0  4.091291  0  0  0.247994  0  4.107403  0  0  0.067618  0.231556  0  4.080653  0
C  C47  1  0.34001437  0.44528050  0.14036977  1  0  0.249646  0  3.828559  0  0  0.238226  0  4.091257  0  0  0.24789  0  4.107368  0  0  0.067578  0.231456  0  4.080617  0
C  C48  1  0.69372014  0.46709548  0.75054214  1  0  -0.172318  0  3.785532  0  0  -0.19131  0  4.040059  0  0  -0.194191  0  4.058862  0  0  -0.111515  -0.190016  0  4.027669  0
C  C49  1  0.30628253  0.53290504  0.24946165  1  0  -0.172172  0  3.785495  0  0  -0.191166  0  4.040013  0  0  -0.194046  0  4.058819  0  0  -0.111443  -0.189877  0  4.027628  0
C  C50  1  0.62363211  0.51228076  0.64871553  1  0  -0.158746  0  3.757714  0  0  -0.181393  0  4.016721  0  0  -0.184055  0  4.03488  0  0  -0.107714  -0.179452  0  4.005272  0
C  C51  1  0.37636344  0.48771972  0.35128526  1  0  -0.158653  0  3.757633  0  0  -0.181288  0  4.016619  0  0  -0.183957  0  4.034782  0  0  -0.107729  -0.179344  0  4.005178  0
C  C52  1  0.51971910  0.64620562  0.65402358  1  0  0.24781  0  3.815345  0  0  0.238566  0  4.074756  0  0  0.247202  0  4.092122  0  0  0.065096  0.233355  0  4.062277  0
C  C53  1  0.48028119  0.35379489  0.34598080  1  0  0.247607  0  3.815421  0  0  0.238368  0  4.074839  0  0  0.247005  0  4.092195  0  0  0.065025  0.233159  0  4.062362  0
C  C54  1  0.48268087  0.73299129  0.76361049  1  0  -0.17244  0  3.781966  0  0  -0.190551  0  4.030988  0  0  -0.194042  0  4.051523  0  0  -0.11317  -0.188377  0  4.01584  0
C  C55  1  0.51731750  0.26701125  0.23639141  1  0  -0.172379  0  3.782165  0  0  -0.190523  0  4.031179  0  0  -0.194018  0  4.051716  0  0  -0.113191  -0.188346  0  4.016026  0
C  C56  1  0.55317770  0.68674809  0.86653150  1  0  -0.17882  0  3.780357  0  0  -0.197149  0  4.02913  0  0  -0.20045  0  4.048946  0  0  -0.115565  -0.193867  0  4.014896  0
C  C57  1  0.44682058  0.31325139  0.13347151  1  0  -0.178751  0  3.78038  0  0  -0.197085  0  4.029158  0  0  -0.200385  0  4.048975  0  0  -0.115497  -0.193808  0  4.014927  0
C  C58  1  0.36335372  0.82143493  0.54642303  1  0  -0.004941  0  3.67856  0  0  -0.071009  0  3.946661  0  0  -0.063648  0  3.948671  0  0  -0.070941  -0.075945  0  3.944853  0
C  C59  1  0.63664900  0.17856560  0.45357600  1  0  -0.004821  0  3.678377  0  0  -0.070965  0  3.946564  0  0  -0.063611  0  3.948575  0  0  -0.070915  -0.075898  0  3.944758  0
C  C60  1  0.32876673  0.84854297  0.41491849  1  0  0.252006  0  3.68793  0  0  0.249313  0  3.930606  0  0  0.257866  0  3.9493  0  0  0.124334  0.243464  0  3.918145  0
C  C61  1  0.67123682  0.15145859  0.58507934  1  0  0.252022  0  3.687789  0  0  0.249402  0  3.930454  0  0  0.257949  0  3.949148  0  0  0.124321  0.243554  0  3.917992  0
C  C62  1  0.16704566  0.87325832  0.40651344  1  0  -0.146712  0  3.691173  0  0  -0.164525  0  3.937259  0  0  -0.172928  0  3.958859  0  0  -0.078167  -0.15916  0  3.922863  0
C  C63  1  0.83295707  0.12674221  0.59348463  1  0  -0.146701  0  3.691275  0  0  -0.164512  0  3.937327  0  0  -0.172915  0  3.958929  0  0  -0.078148  -0.159147  0  3.92293  0
C  C64  1  0.13353478  0.91105017  0.28666207  1  0  0.010047  0  3.706504  0  0  -0.008346  0  3.954687  0  0  -0.003368  0  3.971052  0  0  -0.063214  -0.011279  0  3.943316  0
C  C65  1  0.86646833  0.08894935  0.71333501  1  0  0.010055  0  3.706618  0  0  -0.008319  0  3.9548  0  0  -0.00334  0  3.971164  0  0  -0.063225  -0.011252  0  3.943422  0
C  C66  1  0.26402443  0.92524926  0.17698016  1  0  -0.119011  0  3.712111  0  0  -0.12881  0  3.957107  0  0  -0.136724  0  3.978533  0  0  -0.081802  -0.123867  0  3.942573  0
C  C67  1  0.73597905  0.07474923  0.82301688  1  0  -0.119039  0  3.712224  0  0  -0.128849  0  3.957178  0  0  -0.136763  0  3.978604  0  0  -0.0818  -0.123906  0  3.942643  0
C  C68  1  0.42331748  0.89558494  0.19096632  1  0  0.121059  0  3.714157  0  0  0.090869  0  3.959168  0  0  0.097565  0  3.978713  0  0  0.041202  0.086804  0  3.945197  0
C  C69  1  0.57668448  0.10441762  0.80903470  1  0  0.121197  0  3.714033  0  0  0.091052  0  3.959056  0  0  0.097743  0  3.978598  0  0  0.041289  0.086985  0  3.945086  0
N  N70  1  0.80948777  0.58089422  0.25693419  1  0  -0.355544  0  3.250062  0  0  -0.272327  0  3.51669  0  0  -0.292075  0  3.531135  0  0  -0.324683  -0.259364  0  3.50751  0
N  N71  1  0.19050975  0.41910425  0.74306336  1  0  -0.355472  0  3.249951  0  0  -0.272208  0  3.516569  0  0  -0.291967  0  3.531049  0  0  -0.324643  -0.259244  0  3.507379  0
N  N72  1  0.45677581  0.85531965  0.30602950  1  0  -0.348969  0  3.256242  0  0  -0.265352  0  3.522814  0  0  -0.284891  0  3.537806  0  0  -0.324281  -0.252411  0  3.512634  0
N  N73  1  0.54322654  0.14468190  0.69396862  1  0  -0.349023  0  3.256185  0  0  -0.265498  0  3.522831  0  0  -0.285023  0  3.537814  0  0  -0.324325  -0.25256  0  3.512655  0
Cl  Cl74  1  0.76901171  0.83570179  0.47620405  1  0  -0.539437  0  1.026569  0  0  -0.470705  0  1.31369  0  0  -0.486949  0  1.293881  0  0  -0.275189  -0.458955  0  1.32709  0
Cl  Cl75  1  0.23099211  0.16429568  0.52379675  1  0  -0.539401  0  1.026583  0  0  -0.470653  0  1.313684  0  0  -0.4869  0  1.29388  0  0  -0.275169  -0.458905  0  1.327086  0
Cl  Cl76  1  0.82771701  0.90134676  0.11679237  1  0  -0.567561  0  0.909258  0  0  -0.500668  0  1.168381  0  0  -0.515654  0  1.145611  0  0  -0.304575  -0.490432  0  1.183966  0
Cl  Cl77  1  0.17227943  0.09865782  0.88320896  1  0  -0.567559  0  0.909255  0  0  -0.500655  0  1.168371  0  0  -0.515643  0  1.145602  0  0  -0.304581  -0.490425  0  1.183963  0
O  O78  1  0.73985327  0.50143434  0.95281551  1  0  -0.277558  0  2.356992  0  0  -0.205105  0  2.590521  0  0  -0.222511  0  2.594937  0  0  -0.179108  -0.192447  0  2.587467  0
O  O79  1  0.26014705  0.49856617  0.04718505  1  0  -0.27756  0  2.356986  0  0  -0.205107  0  2.590546  0  0  -0.222514  0  2.594963  0  0  -0.179106  -0.192458  0  2.587481  0
O  O80  1  0.46083062  0.68237750  0.54585262  1  0  -0.286545  0  2.329374  0  0  -0.215928  0  2.567814  0  0  -0.232995  0  2.570355  0  0  -0.184309  -0.203383  0  2.565089  0
O  O81  1  0.53916849  0.31762301  0.45414919  1  0  -0.286552  0  2.329366  0  0  -0.215938  0  2.567841  0  0  -0.232986  0  2.57037  0  0  -0.184306  -0.203395  0  2.565113  0
