# generated using pymatgen
data_ZnH11C17SN5O4
_symmetry_space_group_name_H-M   'P 1'
_cell_length_a   10.74536411
_cell_length_b   11.43952055
_cell_length_c   17.78933625
_cell_angle_alpha   89.99975149
_cell_angle_beta   90.00005191
_cell_angle_gamma   118.10526656
_symmetry_Int_Tables_number   1
_chemical_formula_structural   ZnH11C17SN5O4
_chemical_formula_sum   'Zn4 H44 C68 S4 N20 O16'
_cell_volume   1928.84990886
_cell_formula_units_Z   4
loop_
 _symmetry_equiv_pos_site_id
 _symmetry_equiv_pos_as_xyz
  1  'x, y, z'
loop_
 _atom_site_type_symbol
 _atom_site_label
 _atom_site_symmetry_multiplicity
 _atom_site_fract_x
 _atom_site_fract_y
 _atom_site_fract_z
 _atom_site_occupancy
 _atom_site_pbe_bader_charge
 _atom_site_pbe_bader_spin_density
 _atom_site_pbe_cm5_charge
 _atom_site_pbe_ddec_charge
 _atom_site_pbe_ddec_spin_density
 _atom_site_pbe_ddec_sum_bond_order
 _atom_site_pbe_magmom
Zn  Zn0  1  0.96439249  0.64771003  0.86735888  1  1.252887  0  0.700978  0.785116  0  2.385578  0
Zn  Zn1  1  0.53560537  0.85228962  0.36734439  1  1.252669  0  0.701086  0.785211  0  2.385645  0
Zn  Zn2  1  0.03561758  0.35229902  0.13264308  1  1.252959  0  0.700982  0.785064  0  2.385817  0
Zn  Zn3  1  0.46438287  0.14769940  0.63265195  1  1.252737  0  0.700989  0.785097  0  2.385793  0
H  H4  1  0.90118387  0.12848388  0.85030604  1  0.111856  0  0.105646  0.12449  0  1.004164  0
H  H5  1  0.59881258  0.37151608  0.35029433  1  0.111833  0  0.105664  0.124509  0  1.004092  0
H  H6  1  0.09882245  0.87152510  0.14969872  1  0.111869  0  0.105704  0.124562  0  1.004053  0
H  H7  1  0.40118458  0.62847408  0.64970706  1  0.111844  0  0.105683  0.124531  0  1.004059  0
H  H8  1  0.06611202  0.05376856  0.77764222  1  0.123561  0  0.103941  0.121062  0  1.025275  0
H  H9  1  0.43387215  0.44622835  0.27763776  1  0.123699  0  0.103973  0.121064  0  1.025264  0
H  H10  1  0.93388435  0.94623337  0.22235973  1  0.123678  0  0.103949  0.121053  0  1.025247  0
H  H11  1  0.56613075  0.55376976  0.72236419  1  0.123602  0  0.10397  0.12109  0  1.025228  0
H  H12  1  0.83041280  0.40951281  0.99245376  1  0.163826  0  0.124282  0.133406  0  1.009904  0
H  H13  1  0.66956920  0.09048178  0.49243997  1  0.163604  0  0.124279  0.133487  0  1.009872  0
H  H14  1  0.16958918  0.59048726  0.00754820  1  0.163782  0  0.124274  0.133421  0  1.009908  0
H  H15  1  0.33042659  0.90951130  0.50755524  1  0.163321  0  0.124239  0.133431  0  1.009734  0
H  H16  1  0.82984379  0.77707060  0.97441215  1  0.208157  0  0.140357  0.118736  0  1.01402  0
H  H17  1  0.67016047  0.72293416  0.47439691  1  0.208516  0  0.140329  0.118682  0  1.013882  0
H  H18  1  0.17017755  0.22293865  0.02559036  1  0.208578  0  0.140318  0.118735  0  1.013954  0
H  H19  1  0.32983251  0.27705887  0.52559718  1  0.208211  0  0.140292  0.118709  0  1.013886  0
H  H20  1  0.46351685  0.46498393  0.11772621  1  0.071585  0  0.109127  0.126071  0  1.009823  0
H  H21  1  0.03647244  0.03502031  0.61771666  1  0.071483  0  0.109143  0.126113  0  1.00984  0
H  H22  1  0.53648997  0.53502801  0.88226844  1  0.071394  0  0.109126  0.126059  0  1.009949  0
H  H23  1  0.96352331  0.96496884  0.38227968  1  0.07132  0  0.109081  0.125975  0  1.009877  0
H  H24  1  0.32695099  0.55922977  0.18367176  1  0.163756  0  0.111747  0.118534  0  1.022451  0
H  H25  1  0.17303356  0.94077855  0.68367023  1  0.163856  0  0.111796  0.118663  0  1.022404  0
H  H26  1  0.67305162  0.44078307  0.81631952  1  0.163559  0  0.111763  0.118546  0  1.022496  0
H  H27  1  0.82695704  0.05921149  0.31632835  1  0.163712  0  0.111812  0.118627  0  1.022504  0
H  H28  1  0.42332867  0.80456862  0.19067285  1  0.108515  0  0.116645  0.138175  0  0.996356  0
H  H29  1  0.07665210  0.69543958  0.69068202  1  0.108464  0  0.11671  0.138321  0  0.996297  0
H  H30  1  0.57667815  0.19544332  0.80931842  1  0.108477  0  0.116656  0.138158  0  0.996322  0
H  H31  1  0.92333238  0.30454937  0.30932106  1  0.10867  0  0.116695  0.138258  0  0.996346  0
H  H32  1  0.89144689  0.03095222  0.10043783  1  0.194456  0  0.144631  0.121692  0  1.00331  0
H  H33  1  0.60853742  0.46904667  0.60044127  1  0.194398  0  0.144664  0.121794  0  1.00334  0
H  H34  1  0.10856557  0.96905982  0.89955570  1  0.194538  0  0.144617  0.121671  0  1.003418  0
H  H35  1  0.39144995  0.53094822  0.39955732  1  0.194306  0  0.144644  0.121765  0  1.003427  0
H  H36  1  0.72136603  0.27384166  0.17905425  1  0.135611  0  0.119929  0.120515  0  1.014134  0
H  H37  1  0.77863425  0.22617258  0.67906455  1  0.135743  0  0.119879  0.120347  0  1.014338  0
H  H38  1  0.27865013  0.72616652  0.82095164  1  0.135815  0  0.119951  0.120488  0  1.014167  0
H  H39  1  0.22135122  0.77382032  0.32093347  1  0.135653  0  0.119886  0.120296  0  1.014342  0
H  H40  1  0.64844494  0.42015127  0.10088700  1  0.143191  0  0.125751  0.124623  0  1.015124  0
H  H41  1  0.85152618  0.07984346  0.60088082  1  0.142954  0  0.125771  0.124523  0  1.015144  0
H  H42  1  0.35155945  0.57985375  0.89911383  1  0.143172  0  0.125809  0.124729  0  1.015168  0
H  H43  1  0.14846873  0.92015354  0.39911495  1  0.142819  0  0.125779  0.12457  0  1.01522  0
H  H44  1  0.50779666  0.01344252  0.17600721  1  0.13176  0  0.120863  0.117866  0  1.054427  0
H  H45  1  0.99219239  0.48657351  0.67602086  1  0.131959  0  0.120808  0.117768  0  1.05425  0
H  H46  1  0.49222044  0.98656568  0.82399981  1  0.131726  0  0.120897  0.117914  0  1.054471  0
H  H47  1  0.00778976  0.51341638  0.32398559  1  0.131805  0  0.120848  0.117796  0  1.05432  0
C  C48  1  0.96356687  0.40259509  0.83803881  1  1.613625  0  0.188724  0.567165  0  4.30274  0
C  C49  1  0.53642114  0.09740286  0.33803002  1  1.613111  0  0.188774  0.567147  0  4.302472  0
C  C50  1  0.03643851  0.59741388  0.16196595  1  1.613557  0  0.188615  0.56709  0  4.302629  0
C  C51  1  0.46357033  0.90258130  0.66197082  1  1.6129  0  0.1885  0.566789  0  4.302756  0
C  C52  1  0.03000439  0.32632981  0.80526742  1  -0.208926  0  -0.031167  -0.127652  0  3.986137  0
C  C53  1  0.46998773  0.17366996  0.30525803  1  -0.208537  0  -0.030995  -0.127507  0  3.986073  0
C  C54  1  0.97000469  0.67367529  0.19473791  1  -0.20905  0  -0.031122  -0.127525  0  3.986032  0
C  C55  1  0.53000477  0.82632208  0.69474280  1  -0.208679  0  -0.030976  -0.127351  0  3.986241  0
C  C56  1  0.99039269  0.19332891  0.81549805  1  -0.04341  0  -0.100176  -0.112695  0  4.000323  0
C  C57  1  0.50960048  0.30666440  0.31548815  1  -0.043057  0  -0.100244  -0.112782  0  4.000299  0
C  C58  1  0.00960978  0.80667214  0.18450728  1  -0.043352  0  -0.100233  -0.112858  0  4.000285  0
C  C59  1  0.49039819  0.69333266  0.68451436  1  -0.043051  0  -0.100279  -0.112898  0  4.00031  0
C  C60  1  0.07904046  0.15386278  0.77670053  1  0.013707  0  -0.104044  -0.115195  0  4.010869  0
C  C61  1  0.42094371  0.34613415  0.27669125  1  0.013601  0  -0.104066  -0.115119  0  4.010711  0
C  C62  1  0.92095639  0.84614015  0.22330312  1  0.013567  0  -0.10407  -0.115121  0  4.010842  0
C  C63  1  0.57905965  0.65386300  0.72331183  1  0.01361  0  -0.104066  -0.115147  0  4.010683  0
C  C64  1  0.18504530  0.25689785  0.73685970  1  -0.257998  0  -0.035005  -0.135245  0  3.993826  0
C  C65  1  0.31494038  0.24310042  0.23685682  1  -0.257841  0  -0.034982  -0.135186  0  3.993886  0
C  C66  1  0.81495295  0.74310411  0.26314001  1  -0.25804  0  -0.035027  -0.135278  0  3.993882  0
C  C67  1  0.68505453  0.75689658  0.76314457  1  -0.257972  0  -0.035004  -0.135195  0  3.993896  0
C  C68  1  0.29992008  0.25655676  0.69090072  1  1.599386  0  0.188839  0.565646  0  4.285489  0
C  C69  1  0.20007045  0.24344591  0.19089780  1  1.599339  0  0.188826  0.565429  0  4.285442  0
C  C70  1  0.70007199  0.74343822  0.30909561  1  1.599209  0  0.188834  0.565562  0  4.285474  0
C  C71  1  0.79993628  0.75655817  0.80910359  1  1.599389  0  0.188929  0.565604  0  4.285528  0
C  C72  1  0.80452374  0.48765401  0.00653773  1  0.437037  0  0.008002  -0.006849  0  3.952103  0
C  C73  1  0.69546314  0.01234670  0.50652604  1  0.436935  0  0.007895  -0.007182  0  3.952491  0
C  C74  1  0.19548296  0.51234810  0.99346479  1  0.437409  0  0.007958  -0.007038  0  3.95235  0
C  C75  1  0.30453179  0.98765226  0.49347030  1  0.437238  0  0.008009  -0.006964  0  3.952294  0
C  C76  1  0.80938741  0.68036742  0.99477222  1  0.942267  0  0.153008  0.119974  0  3.863791  0
C  C77  1  0.69061305  0.81963710  0.49475955  1  0.941014  0  0.152997  0.120117  0  3.863094  0
C  C78  1  0.19062779  0.31963877  0.00523311  1  0.942087  0  0.152983  0.119965  0  3.863628  0
C  C79  1  0.30938467  0.18035995  0.50523847  1  0.941929  0  0.153019  0.119958  0  3.863221  0
C  C80  1  0.63285809  0.66022714  0.08952371  1  0.904648  0  0.226024  0.317416  0  4.058323  0
C  C81  1  0.86713011  0.83977860  0.58951914  1  0.904059  0  0.226079  0.317607  0  4.0581  0
C  C82  1  0.36715860  0.33978595  0.91047656  1  0.904468  0  0.226128  0.31761  0  4.058305  0
C  C83  1  0.13286145  0.16021343  0.41048001  1  0.904317  0  0.22612  0.317455  0  4.058233  0
C  C84  1  0.50413983  0.57169458  0.12156715  1  -0.01311  0  -0.090207  -0.224247  0  3.952122  0
C  C85  1  0.99584782  0.92830990  0.62156184  1  -0.013138  0  -0.090193  -0.224152  0  3.952166  0
C  C86  1  0.49586981  0.42831742  0.87842974  1  -0.013216  0  -0.090242  -0.224235  0  3.952388  0
C  C87  1  0.00414281  0.07168210  0.37843449  1  -0.013351  0  -0.090122  -0.223962  0  3.952411  0
C  C88  1  0.42778646  0.62524250  0.15799620  1  0.009761  0  -0.06052  0.017516  0  3.94613  0
C  C89  1  0.07220048  0.87476510  0.65799536  1  0.010374  0  -0.060492  0.017452  0  3.946225  0
C  C90  1  0.57222176  0.37476848  0.84199676  1  0.009864  0  -0.0605  0.017427  0  3.946279  0
C  C91  1  0.92778680  0.12522194  0.34200434  1  0.010655  0  -0.060561  0.017376  0  3.946351  0
C  C92  1  0.48122341  0.76188372  0.16150095  1  0.018652  0  -0.077992  -0.191828  0  3.907825  0
C  C93  1  0.01876119  0.73812479  0.66150324  1  0.018385  0  -0.078236  -0.192341  0  3.908053  0
C  C94  1  0.51878344  0.23813019  0.83849370  1  0.018594  0  -0.07801  -0.191742  0  3.907811  0
C  C95  1  0.98122850  0.26186720  0.33849703  1  0.018101  0  -0.078071  -0.191942  0  3.90798  0
C  C96  1  0.61186939  0.83995635  0.12773963  1  0.926354  0  0.233623  0.331858  0  4.024178  0
C  C97  1  0.88811401  0.66004702  0.62774114  1  0.92638  0  0.233684  0.332103  0  4.024044  0
C  C98  1  0.38814164  0.16005469  0.87226007  1  0.92632  0  0.233665  0.33178  0  4.024287  0
C  C99  1  0.11186956  0.33994388  0.37225857  1  0.92634  0  0.233601  0.331774  0  4.024506  0
C  C100  1  0.81696097  0.06350008  0.11910008  1  0.983037  0  0.15905  0.128193  0  3.859371  0
C  C101  1  0.68303135  0.43650567  0.61910475  1  0.982972  0  0.159087  0.128175  0  3.859509  0
C  C102  1  0.18304912  0.93651093  0.88089738  1  0.983201  0  0.158938  0.128051  0  3.85909  0
C  C103  1  0.31695975  0.56348732  0.38089440  1  0.983318  0  0.159008  0.128094  0  3.859372  0
C  C104  1  0.72303007  0.18430913  0.16065964  1  0.405603  0  0.001181  -0.02457  0  3.961468  0
C  C105  1  0.77696548  0.31569928  0.66066914  1  0.405417  0  0.001313  -0.024069  0  3.961164  0
C  C106  1  0.27698281  0.81569997  0.83934401  1  0.405252  0  0.001181  -0.024514  0  3.961658  0
C  C107  1  0.22301994  0.68428969  0.33933000  1  0.405433  0  0.001225  -0.024252  0  3.961047  0
C  C108  1  0.71199075  0.49058659  0.05835864  1  0.247305  0  0.001933  -0.102286  0  3.920469  0
C  C109  1  0.78799033  0.00940965  0.55834868  1  0.247889  0  0.001993  -0.101829  0  3.920403  0
C  C110  1  0.28801978  0.50942148  0.94164332  1  0.24714  0  0.0019  -0.102261  0  3.920555  0
C  C111  1  0.21200075  0.99058138  0.44164653  1  0.247774  0  0.001947  -0.102096  0  3.920621  0
C  C112  1  0.61727966  0.05623552  0.15944107  1  0.315766  0  0.007118  -0.08197  0  3.901827  0
C  C113  1  0.88270793  0.44377375  0.65945086  1  0.315742  0  0.007112  -0.081976  0  3.901248  0
C  C114  1  0.38273462  0.94377262  0.84056313  1  0.315534  0  0.007063  -0.082055  0  3.901853  0
C  C115  1  0.11727744  0.55621129  0.34055278  1  0.31565  0  0.00713  -0.081923  0  3.901624  0
S  S116  1  0.17535133  0.40210259  0.74750353  1  0.243162  0  0.09078  0.145402  0  2.956954  0
S  S117  1  0.32463339  0.09789557  0.24749877  1  0.242813  0  0.090793  0.145374  0  2.956782  0
S  S118  1  0.82464786  0.59789939  0.25249899  1  0.243312  0  0.090784  0.14538  0  2.956782  0
S  S119  1  0.67535964  0.90210139  0.75250318  1  0.243098  0  0.09079  0.145336  0  2.956704  0
N  N120  1  0.86355360  0.60611827  0.96697983  1  -1.219061  0  -0.35273  -0.284305  0  3.583463  0
N  N121  1  0.63644173  0.89388345  0.46696527  1  -1.218768  0  -0.352731  -0.284297  0  3.58326  0
N  N122  1  0.13646160  0.39388792  0.03302156  1  -1.219216  0  -0.352681  -0.28414  0  3.583667  0
N  N123  1  0.36355034  0.10611153  0.53302994  1  -1.21915  0  -0.352732  -0.284211  0  3.58334  0
N  N124  1  0.71578868  0.61312672  0.05036831  1  -1.252922  0  -0.218413  -0.015936  0  3.78175  0
N  N125  1  0.78420241  0.88687743  0.55035796  1  -1.252392  0  -0.218402  -0.016315  0  3.781653  0
N  N126  1  0.28422660  0.38688537  0.94963590  1  -1.252967  0  -0.218435  -0.016182  0  3.781772  0
N  N127  1  0.21579199  0.11311661  0.44963781  1  -1.252362  0  -0.218319  -0.015975  0  3.781555  0
N  N128  1  0.68633340  0.79155822  0.09164055  1  -1.240696  0  -0.31194  -0.395448  0  3.313078  0
N  N129  1  0.81365335  0.70844453  0.59163910  1  -1.240634  0  -0.311956  -0.39553  0  3.312957  0
N  N130  1  0.31368416  0.20844900  0.90836084  1  -1.240366  0  -0.311984  -0.395398  0  3.312941  0
N  N131  1  0.18633633  0.29154746  0.40835892  1  -1.240613  0  -0.31207  -0.395536  0  3.31305  0
N  N132  1  0.67765323  0.98036463  0.13283635  1  -1.279075  0  -0.213005  -0.007304  0  3.747448  0
N  N133  1  0.82233256  0.51964365  0.63284268  1  -1.279586  0  -0.212999  -0.007414  0  3.747486  0
N  N134  1  0.32236156  0.01964647  0.86716336  1  -1.279318  0  -0.212869  -0.007186  0  3.747327  0
N  N135  1  0.17765387  0.48035123  0.36715759  1  -1.279717  0  -0.212939  -0.007256  0  3.747779  0
N  N136  1  0.84672751  0.18721706  0.13547209  1  -1.229956  0  -0.352737  -0.280577  0  3.586205  0
N  N137  1  0.65326664  0.31278663  0.63547875  1  -1.229311  0  -0.352838  -0.280874  0  3.586114  0
N  N138  1  0.15328777  0.81279503  0.86452817  1  -1.229341  0  -0.352736  -0.280544  0  3.586139  0
N  N139  1  0.34672064  0.68720041  0.36451983  1  -1.228957  0  -0.352791  -0.280727  0  3.585923  0
O  O140  1  0.85368507  0.34514157  0.87597226  1  -1.175429  0  -0.322654  -0.53723  0  2.120731  0
O  O141  1  0.64631123  0.15485032  0.37595718  1  -1.175135  0  -0.322694  -0.537251  0  2.1208  0
O  O142  1  0.14632871  0.65486362  0.12403869  1  -1.17545  0  -0.322558  -0.53715  0  2.120662  0
O  O143  1  0.35367932  0.84513580  0.62404140  1  -1.175133  0  -0.322515  -0.53703  0  2.120752  0
O  O144  1  0.03027190  0.52945725  0.82295248  1  -1.192919  0  -0.348611  -0.586302  0  2.368237  0
O  O145  1  0.46970554  0.97053209  0.32294628  1  -1.192927  0  -0.348771  -0.586381  0  2.367976  0
O  O146  1  0.96973057  0.47054380  0.17705060  1  -1.192845  0  -0.348623  -0.586366  0  2.368215  0
O  O147  1  0.53028325  0.02946381  0.67705455  1  -1.192789  0  -0.348676  -0.586311  0  2.36803  0
O  O148  1  0.31818420  0.15281272  0.69943069  1  -1.167573  0  -0.331497  -0.550522  0  2.34278  0
O  O149  1  0.18180830  0.34719974  0.19942919  1  -1.167947  0  -0.331459  -0.550442  0  2.342594  0
O  O150  1  0.68180175  0.84718117  0.30056509  1  -1.167421  0  -0.331433  -0.550433  0  2.342838  0
O  O151  1  0.81820134  0.65281225  0.80057052  1  -1.167842  0  -0.331446  -0.55041  0  2.342666  0
O  O152  1  0.37089319  0.35219766  0.64794398  1  -1.188111  0  -0.331548  -0.563335  0  2.13224  0
O  O153  1  0.12908859  0.14781209  0.14793678  1  -1.188305  0  -0.331571  -0.563205  0  2.132208  0
O  O154  1  0.62909984  0.64779930  0.35205348  1  -1.188117  0  -0.331558  -0.563306  0  2.132236  0
O  O155  1  0.87090872  0.85218986  0.85206517  1  -1.188416  0  -0.331599  -0.563273  0  2.132234  0
