# generated using pymatgen
data_Zn2In3H18C30N9O13
_symmetry_space_group_name_H-M   'P 1'
_cell_length_a   14.12084714
_cell_length_b   14.12084839
_cell_length_c   18.52537183
_cell_angle_alpha   90.00007104
_cell_angle_beta   89.99992935
_cell_angle_gamma   120.00032083
_symmetry_Int_Tables_number   1
_chemical_formula_structural   Zn2In3H18C30N9O13
_chemical_formula_sum   'Zn4 In6 H36 C60 N18 O26'
_cell_volume   3199.02550920
_cell_formula_units_Z   2
loop_
 _symmetry_equiv_pos_site_id
 _symmetry_equiv_pos_as_xyz
  1  'x, y, z'
loop_
 _atom_site_type_symbol
 _atom_site_label
 _atom_site_symmetry_multiplicity
 _atom_site_fract_x
 _atom_site_fract_y
 _atom_site_fract_z
 _atom_site_occupancy
 _atom_site_pbe_bader_charge
 _atom_site_pbe_bader_spin_density
 _atom_site_pbe_cm5_charge
 _atom_site_pbe_ddec_charge
 _atom_site_pbe_ddec_spin_density
 _atom_site_pbe_ddec_sum_bond_order
 _atom_site_pbe_magmom
Zn  Zn0  1  0.99999943  0.99999926  0.65109894  1  0.591179  0  0.327459  0.056648  0  2.097453  0
Zn  Zn1  1  0.99999990  0.00000025  0.15110311  1  0.59133  0  0.32759  0.056941  0  2.097238  0
Zn  Zn2  1  0.99999979  0.00000035  0.34888106  1  0.598643  0  0.327676  0.056839  0  2.097412  0
Zn  Zn3  1  0.99999993  0.00000022  0.84888290  1  0.598743  0  0.327626  0.056781  0  2.097515  0
In  In4  1  0.75070848  0.24929021  0.75000037  1  1.908374  0  0.778134  1.46316  0  2.884267  0
In  In5  1  0.75070952  0.50141829  0.75000048  1  1.911696  0  0.778077  1.463103  0  2.884423  0
In  In6  1  0.49858219  0.24929016  0.75000048  1  1.911604  0  0.778088  1.463111  0  2.884343  0
In  In7  1  0.24929025  0.75071118  0.25000062  1  1.908447  0  0.778058  1.463077  0  2.884399  0
In  In8  1  0.24928801  0.49857862  0.25000104  1  1.91194  0  0.77807  1.463102  0  2.884429  0
In  In9  1  0.50142041  0.75071019  0.25000104  1  1.911838  0  0.778038  1.463037  0  2.884496  0
H  H10  1  0.67557232  0.04698843  0.56015526  1  0.097716  0  0.102463  0.10129  0  1.018671  0
H  H11  1  0.95301143  0.62858404  0.56015433  1  0.084372  0  0.102453  0.101276  0  1.018677  0
H  H12  1  0.37141846  0.32442841  0.56015662  1  0.100671  0  0.102448  0.101277  0  1.018646  0
H  H13  1  0.32442373  0.95300005  0.06014808  1  0.099322  0  0.102502  0.101348  0  1.018789  0
H  H14  1  0.04699826  0.37142054  0.06014847  1  0.084101  0  0.102466  0.101232  0  1.018817  0
H  H15  1  0.62858044  0.67557846  0.06014726  1  0.102015  0  0.102486  0.101321  0  1.018772  0
H  H16  1  0.04700104  0.67557942  0.43985490  1  0.099273  0  0.102558  0.101419  0  1.018707  0
H  H17  1  0.62857698  0.95299718  0.43985637  1  0.084393  0  0.102533  0.10137  0  1.018761  0
H  H18  1  0.32442197  0.37142206  0.43985732  1  0.101727  0  0.102542  0.101425  0  1.0187  0
H  H19  1  0.95300803  0.32442862  0.93985021  1  0.099067  0  0.102483  0.101332  0  1.018791  0
H  H20  1  0.37141714  0.04699182  0.93984981  1  0.084114  0  0.102453  0.101227  0  1.01874  0
H  H21  1  0.67557603  0.62858147  0.93984886  1  0.101777  0  0.102448  0.101238  0  1.018762  0
H  H22  1  0.32442099  0.95299854  0.43985598  1  0.099282  0  0.10254  0.101382  0  1.018762  0
H  H23  1  0.04700212  0.37142236  0.43985637  1  0.084395  0  0.102496  0.101272  0  1.018751  0
H  H24  1  0.62857830  0.67557918  0.43985678  1  0.101717  0  0.102554  0.101405  0  1.018736  0
H  H25  1  0.67557331  0.04699311  0.93984913  1  0.099073  0  0.102475  0.101315  0  1.018757  0
H  H26  1  0.95300769  0.62858070  0.93985035  1  0.084087  0  0.102465  0.101252  0  1.018768  0
H  H27  1  0.37141930  0.32442475  0.93984994  1  0.101799  0  0.102452  0.101234  0  1.018789  0
H  H28  1  0.95301188  0.32443043  0.56015472  1  0.097746  0  0.102492  0.101328  0  1.01866  0
H  H29  1  0.37141715  0.04698897  0.56015595  1  0.084383  0  0.102452  0.101267  0  1.018654  0
H  H30  1  0.67557337  0.62858412  0.56015662  1  0.100634  0  0.102473  0.101331  0  1.018634  0
H  H31  1  0.04699882  0.67557597  0.06014862  1  0.099297  0  0.102504  0.101347  0  1.018797  0
H  H32  1  0.62858021  0.95300245  0.06014848  1  0.084089  0  0.102472  0.101267  0  1.018779  0
H  H33  1  0.32442259  0.37142144  0.06014780  1  0.102097  0  0.102478  0.101267  0  1.018834  0
H  H34  1  0.86160817  0.13839054  0.63658337  1  0.14136  0  0.141284  0.09929  0  0.996732  0
H  H35  1  0.86160874  0.72321741  0.63658365  1  0.144762  0  0.141254  0.099236  0  0.996827  0
H  H36  1  0.27678265  0.13839134  0.63658311  1  0.141118  0  0.141283  0.099268  0  0.996725  0
H  H37  1  0.13839325  0.86160674  0.13658438  1  0.141381  0  0.141251  0.099212  0  0.99681  0
H  H38  1  0.13839446  0.27678658  0.13658410  1  0.141216  0  0.141246  0.099217  0  0.996879  0
H  H39  1  0.72321318  0.86160444  0.13658410  1  0.141226  0  0.141261  0.099258  0  0.996838  0
H  H40  1  0.13839067  0.86160932  0.36340735  1  0.141617  0  0.141305  0.099332  0  0.996699  0
H  H41  1  0.72321731  0.86160881  0.36340762  1  0.144984  0  0.14128  0.099262  0  0.996804  0
H  H42  1  0.13839121  0.27678275  0.36340762  1  0.14501  0  0.141282  0.099255  0  0.996796  0
H  H43  1  0.86161050  0.13838821  0.86340797  1  0.141621  0  0.141335  0.099342  0  0.996649  0
H  H44  1  0.27677817  0.13838874  0.86340717  1  0.144818  0  0.141345  0.09937  0  0.996653  0
H  H45  1  0.86161064  0.72322118  0.86340771  1  0.144807  0  0.141321  0.09934  0  0.996656  0
C  C46  1  0.59896580  0.02610175  0.53330347  1  -0.020939  0  -0.081543  -0.089565  0  3.973763  0
C  C47  1  0.97389637  0.57286109  0.53330139  1  0.032238  0  -0.081502  -0.089585  0  3.973978  0
C  C48  1  0.42713979  0.40103689  0.53330372  1  -0.056229  0  -0.081459  -0.089482  0  3.973831  0
C  C49  1  0.40102772  0.97389068  0.03329461  1  -0.092169  0  -0.081555  -0.089693  0  3.973792  0
C  C50  1  0.02610747  0.42714085  0.03329777  1  -0.03759  0  -0.081475  -0.08954  0  3.974115  0
C  C51  1  0.57286148  0.59896903  0.03329813  1  -0.104512  0  -0.081553  -0.089679  0  3.973958  0
C  C52  1  0.02611019  0.59897283  0.46670723  1  -0.092119  0  -0.081632  -0.089853  0  3.97385  0
C  C53  1  0.57286099  0.97389072  0.46670715  1  -0.03827  0  -0.08156  -0.089808  0  3.973891  0
C  C54  1  0.40102937  0.42713739  0.46670913  1  -0.104183  0  -0.081645  -0.08994  0  3.973833  0
C  C55  1  0.97389624  0.40102936  0.96670206  1  -0.021981  0  -0.081587  -0.089697  0  3.973888  0
C  C56  1  0.42714069  0.02610346  0.96670106  1  0.032312  0  -0.081501  -0.089492  0  3.974035  0
C  C57  1  0.59896629  0.57286140  0.96670069  1  -0.057323  0  -0.081477  -0.089513  0  3.973848  0
C  C58  1  0.40102678  0.97389021  0.46670831  1  -0.092103  0  -0.081654  -0.089887  0  3.973893  0
C  C59  1  0.02611029  0.42714087  0.46670661  1  -0.038273  0  -0.081518  -0.089678  0  3.973794  0
C  C60  1  0.57286367  0.59897250  0.46670913  1  -0.104216  0  -0.081658  -0.089854  0  3.973894  0
C  C61  1  0.59896881  0.02610441  0.96670205  1  -0.022276  0  -0.08155  -0.089633  0  3.973921  0
C  C62  1  0.97389602  0.57286285  0.96670322  1  0.03236  0  -0.081503  -0.089528  0  3.974023  0
C  C63  1  0.42713866  0.40103377  0.96670177  1  -0.057395  0  -0.081496  -0.089511  0  3.973954  0
C  C64  1  0.97389807  0.40103318  0.53330347  1  -0.020926  0  -0.081543  -0.089585  0  3.973657  0
C  C65  1  0.42713910  0.02610222  0.53330301  1  0.032148  0  -0.081484  -0.089528  0  3.974  0
C  C66  1  0.59896459  0.57286168  0.53330426  1  -0.056213  0  -0.081506  -0.08962  0  3.974035  0
C  C67  1  0.02610778  0.59897240  0.03329569  1  -0.092228  0  -0.081599  -0.089775  0  3.973995  0
C  C68  1  0.57285877  0.97389294  0.03329561  1  -0.037545  0  -0.081496  -0.089575  0  3.974125  0
C  C69  1  0.40103243  0.42713999  0.03329597  1  -0.104621  0  -0.081512  -0.089607  0  3.97405  0
C  C70  1  0.55623762  0.11247056  0.63739429  1  1.558755  0  0.241586  0.617566  0  4.15469  0
C  C71  1  0.52630577  0.05261559  0.56693145  1  -0.02212  0  -0.011121  -0.026436  0  3.951711  0
C  C72  1  0.88752802  0.44376258  0.63739375  1  1.566061  0  0.241642  0.617631  0  4.154574  0
C  C73  1  0.94738270  0.47369331  0.56693145  1  -0.029512  0  -0.011145  -0.026439  0  3.951595  0
C  C74  1  0.55623789  0.44376359  0.63739498  1  1.56709  0  0.241632  0.617627  0  4.154807  0
C  C75  1  0.52630863  0.47369426  0.56693219  1  0.060804  0  -0.011177  -0.026493  0  3.951889  0
C  C76  1  0.44376267  0.88752642  0.13738585  1  1.566418  0  0.241584  0.617543  0  4.154844  0
C  C77  1  0.47368874  0.94737301  0.06692628  1  -0.029988  0  -0.011189  -0.026458  0  3.951763  0
C  C78  1  0.11247083  0.55623868  0.13738693  1  1.557657  0  0.241583  0.617515  0  4.154594  0
C  C79  1  0.05262333  0.52630926  0.06692574  1  -0.021427  0  -0.011212  -0.026405  0  3.951787  0
C  C80  1  0.44376471  0.55623816  0.13738461  1  1.567077  0  0.241476  0.617334  0  4.154851  0
C  C81  1  0.47368680  0.52631325  0.06692338  1  0.060836  0  -0.011173  -0.026382  0  3.9519  0
C  C82  1  0.11247294  0.55623941  0.36261749  1  1.558066  0  0.241532  0.617527  0  4.154729  0
C  C83  1  0.05263186  0.52631491  0.43307655  1  -0.021815  0  -0.01119  -0.026267  0  3.951554  0
C  C84  1  0.44376114  0.88752513  0.36261749  1  1.558383  0  0.241581  0.617455  0  4.154699  0
C  C85  1  0.47368512  0.94736814  0.43307655  1  -0.021806  0  -0.011207  -0.026216  0  3.951499  0
C  C86  1  0.44376206  0.55623657  0.36261896  1  1.567012  0  0.241487  0.617567  0  4.154724  0
C  C87  1  0.47368527  0.52631620  0.43307689  1  0.061041  0  -0.011114  -0.026216  0  3.951513  0
C  C88  1  0.88752730  0.44376047  0.86261028  1  1.558094  0  0.241612  0.617547  0  4.155008  0
C  C89  1  0.94737602  0.47368866  0.93307201  1  -0.021398  0  -0.011145  -0.026409  0  3.951671  0
C  C90  1  0.55623851  0.11247251  0.86261028  1  1.566683  0  0.241632  0.617564  0  4.154869  0
C  C91  1  0.52630688  0.05261873  0.93307363  1  -0.029789  0  -0.011214  -0.026523  0  3.951874  0
C  C92  1  0.55623777  0.44376371  0.86261205  1  1.567241  0  0.241633  0.617548  0  4.154802  0
C  C93  1  0.52631111  0.47368896  0.93307383  1  0.060854  0  -0.011237  -0.026518  0  3.951886  0
C  C94  1  0.87499748  0.12500265  0.69238791  1  1.030402  0  0.161147  0.149562  0  3.942684  0
C  C95  1  0.87499757  0.74999492  0.69238766  1  1.003737  0  0.161186  0.149625  0  3.942753  0
C  C96  1  0.25000401  0.12500222  0.69238712  1  1.027556  0  0.161134  0.149576  0  3.942642  0
C  C97  1  0.12500061  0.87499796  0.19238840  1  1.030436  0  0.161259  0.149774  0  3.942745  0
C  C98  1  0.12500517  0.25000953  0.19238864  1  1.02738  0  0.161226  0.149657  0  3.942817  0
C  C99  1  0.74999023  0.87499373  0.19238918  1  1.0274  0  0.161203  0.149608  0  3.942829  0
C  C100  1  0.12500003  0.87499996  0.30760390  1  1.030456  0  0.161273  0.149652  0  3.942686  0
C  C101  1  0.74999229  0.87499592  0.30760306  1  1.023941  0  0.161207  0.149573  0  3.942991  0
C  C102  1  0.12500339  0.25000706  0.30760306  1  1.006816  0  0.161194  0.149555  0  3.942964  0
C  C103  1  0.87499905  0.12500108  0.80760395  1  1.030214  0  0.161244  0.149623  0  3.942617  0
C  C104  1  0.25000030  0.12500027  0.80760370  1  1.023096  0  0.161262  0.14962  0  3.942628  0
C  C105  1  0.87499952  0.74999863  0.80760425  1  1.003896  0  0.161261  0.149606  0  3.942648  0
N  N106  1  0.84100661  0.15899351  0.74999650  1  -1.236795  0  -0.323347  -0.329124  0  3.487379  0
N  N107  1  0.84100630  0.68201165  0.74999621  1  -1.213682  0  -0.323325  -0.329106  0  3.487238  0
N  N108  1  0.31798911  0.15899450  0.74999567  1  -1.253076  0  -0.323335  -0.329157  0  3.487041  0
N  N109  1  0.15899498  0.84100501  0.24999692  1  -1.236803  0  -0.323352  -0.32925  0  3.487075  0
N  N110  1  0.15899407  0.31798809  0.24999668  1  -1.234208  0  -0.323227  -0.328917  0  3.487718  0
N  N111  1  0.68201267  0.84100666  0.24999722  1  -1.254382  0  -0.323223  -0.328893  0  3.48789  0
N  N112  1  0.92706496  0.07293518  0.71275560  1  -0.721046  0  -0.243864  -0.116026  0  3.412899  0
N  N113  1  0.92706341  0.85412867  0.71275597  1  -0.707801  0  -0.243799  -0.115919  0  3.412801  0
N  N114  1  0.14587178  0.07293627  0.71275543  1  -0.707465  0  -0.243831  -0.115941  0  3.412955  0
N  N115  1  0.07293749  0.92706249  0.21275619  1  -0.720102  0  -0.243916  -0.116064  0  3.413033  0
N  N116  1  0.07293719  0.14587368  0.21275582  1  -0.707861  0  -0.243949  -0.116197  0  3.412757  0
N  N117  1  0.85412721  0.92706202  0.21275582  1  -0.708042  0  -0.243913  -0.116144  0  3.412714  0
N  N118  1  0.07293663  0.92706334  0.28723620  1  -0.887207  0  -0.243925  -0.116003  0  3.413153  0
N  N119  1  0.85412859  0.92706347  0.28723584  1  -0.875222  0  -0.243929  -0.115988  0  3.412884  0
N  N120  1  0.07293614  0.14587189  0.28723583  1  -0.877978  0  -0.243894  -0.115909  0  3.412954  0
N  N121  1  0.92706503  0.07293369  0.78723562  1  -0.888438  0  -0.243918  -0.11598  0  3.412947  0
N  N122  1  0.14587062  0.07293601  0.78723491  1  -0.874475  0  -0.243966  -0.116031  0  3.413232  0
N  N123  1  0.92706407  0.85412942  0.78723599  1  -0.874689  0  -0.243999  -0.116054  0  3.41309  0
O  O124  1  0.64860685  0.13563320  0.66414513  1  -1.18468  0  -0.290878  -0.57994  0  2.306037  0
O  O125  1  0.86436795  0.51297534  0.66414467  1  -1.177901  0  -0.290895  -0.579964  0  2.30582  0
O  O126  1  0.48702877  0.35139240  0.66414315  1  -1.186832  0  -0.290873  -0.579939  0  2.306048  0
O  O127  1  0.35139281  0.86436157  0.16414162  1  -1.184726  0  -0.290883  -0.57995  0  2.30599  0
O  O128  1  0.13563624  0.48703050  0.16414370  1  -1.178025  0  -0.290853  -0.579947  0  2.305872  0
O  O129  1  0.51297106  0.64861071  0.16414198  1  -1.186672  0  -0.290848  -0.579884  0  2.305985  0
O  O130  1  0.13563912  0.64861217  0.33586071  1  -1.184648  0  -0.290859  -0.579941  0  2.30597  0
O  O131  1  0.51296895  0.86436011  0.33586171  1  -1.178175  0  -0.290876  -0.579924  0  2.305879  0
O  O132  1  0.35139035  0.48702938  0.33586269  1  -1.186622  0  -0.290865  -0.579974  0  2.305893  0
O  O133  1  0.86436376  0.35139356  0.83586044  1  -1.184853  0  -0.29092  -0.579964  0  2.306194  0
O  O134  1  0.48702748  0.13563508  0.83585944  1  -1.17806  0  -0.29088  -0.579933  0  2.305943  0
O  O135  1  0.64860840  0.51297057  0.83585846  1  -1.18662  0  -0.290875  -0.579946  0  2.306045  0
O  O136  1  0.35138501  0.86435805  0.33586341  1  -1.184748  0  -0.290863  -0.579925  0  2.305919  0
O  O137  1  0.13564173  0.48703209  0.33586171  1  -1.178072  0  -0.290876  -0.579994  0  2.30585  0
O  O138  1  0.51297268  0.64861334  0.33586215  1  -1.186742  0  -0.290869  -0.580009  0  2.305803  0
O  O139  1  0.64860695  0.13563594  0.83585936  1  -1.184852  0  -0.290935  -0.579978  0  2.306091  0
O  O140  1  0.86436320  0.51297159  0.83585998  1  -1.178272  0  -0.290864  -0.579916  0  2.305891  0
O  O141  1  0.48703031  0.35139086  0.83586008  1  -1.186771  0  -0.290924  -0.579942  0  2.305921  0
O  O142  1  0.86436639  0.35139518  0.66414405  1  -1.184689  0  -0.290911  -0.579982  0  2.305993  0
O  O143  1  0.48702668  0.13563163  0.66414359  1  -1.177761  0  -0.290877  -0.579947  0  2.305908  0
O  O144  1  0.64860745  0.51297435  0.66414693  1  -1.186458  0  -0.29089  -0.579948  0  2.305958  0
O  O145  1  0.13563728  0.64861259  0.16414162  1  -1.184567  0  -0.290906  -0.579931  0  2.305818  0
O  O146  1  0.51296833  0.86435930  0.16413992  1  -1.178128  0  -0.290881  -0.57993  0  2.305956  0
O  O147  1  0.35139145  0.48703111  0.16414090  1  -1.186763  0  -0.290823  -0.579848  0  2.305937  0
O  O148  1  0.66666656  0.33333353  0.75000098  1  -1.203753  0  -0.514311  -1.040418  0  2.214972  0
O  O149  1  0.33333432  0.66666428  0.25000054  1  -1.203684  0  -0.51425  -1.040287  0  2.214886  0
