# generated using pymatgen
data_NiH26C33(NO4)2
_symmetry_space_group_name_H-M   'P 1'
_cell_length_a   7.81892989
_cell_length_b   13.91318058
_cell_length_c   16.08111705
_cell_angle_alpha   108.65195641
_cell_angle_beta   89.99985177
_cell_angle_gamma   90.00018825
_symmetry_Int_Tables_number   1
_chemical_formula_structural   NiH26C33(NO4)2
_chemical_formula_sum   'Ni2 H52 C66 N4 O16'
_cell_volume   1657.52255968
_cell_formula_units_Z   2
loop_
 _symmetry_equiv_pos_site_id
 _symmetry_equiv_pos_as_xyz
  1  'x, y, z'
loop_
 _atom_site_type_symbol
 _atom_site_label
 _atom_site_symmetry_multiplicity
 _atom_site_fract_x
 _atom_site_fract_y
 _atom_site_fract_z
 _atom_site_occupancy
 _atom_site_pbe_bader_charge
 _atom_site_pbe_bader_spin_density
 _atom_site_pbe_cm5_charge
 _atom_site_pbe_ddec_charge
 _atom_site_pbe_ddec_spin_density
 _atom_site_pbe_ddec_sum_bond_order
 _atom_site_pbe_magmom
Ni  Ni0  1  0.00763734  0.50000245  0.74999976  1  1.177231  -1.567533  0.654868  0.802317  -1.780057  2.521075  -1.554
Ni  Ni1  1  0.99236037  0.49999691  0.24999783  1  1.177162  -1.567527  0.654906  0.80236  -1.780049  2.521041  -1.554
H  H2  1  0.96277439  0.82970815  0.64776844  1  0.087849  -9e-06  0.094629  0.10032  -9e-06  1.071959  0.0
H  H3  1  0.96276938  0.17028609  0.85223376  1  0.08796  -1e-05  0.09463  0.100336  -1e-05  1.071989  0.0
H  H4  1  0.03722716  0.17029044  0.35223517  1  0.087927  -9e-06  0.094602  0.100303  -9e-06  1.071993  0.0
H  H5  1  0.03722450  0.82971402  0.14776467  1  0.087977  -1e-05  0.094634  0.100309  -1e-05  1.07201  0.0
H  H6  1  0.78692677  0.71617996  0.53153567  1  0.001699  0.0  0.087867  0.084024  2.2e-05  1.021601  0.0
H  H7  1  0.78692437  0.28382084  0.96846733  1  0.00171  0.0  0.087855  0.084015  2.2e-05  1.021678  0.0
H  H8  1  0.21306327  0.28382926  0.46846715  1  0.058886  -1e-06  0.087845  0.083982  2.2e-05  1.021583  0.0
H  H9  1  0.21307079  0.71617321  0.03153190  1  0.058948  -1e-06  0.087842  0.083981  2.2e-05  1.021587  0.0
H  H10  1  0.61586163  0.78383283  0.43013446  1  0.028629  -2.4e-05  0.092264  0.089867  -1e-05  1.025519  0.0
H  H11  1  0.61585326  0.21616646  0.06986880  1  0.028063  -2.4e-05  0.092268  0.08988  -1e-05  1.02546  0.0
H  H12  1  0.38414248  0.21617486  0.56987229  1  0.028469  -2.4e-05  0.092246  0.089843  -1e-05  1.025452  0.0
H  H13  1  0.38415341  0.78382683  0.93012960  1  0.027971  -2.4e-05  0.092229  0.08981  -1e-05  1.025511  0.0
H  H14  1  0.63031806  0.96656560  0.44623813  1  0.061588  4e-06  0.102842  0.104837  4e-06  0.99895  0.0
H  H15  1  0.63030871  0.03342992  0.05376034  1  0.061934  4e-06  0.102822  0.104812  4e-06  0.999062  0.0
H  H16  1  0.36968477  0.03343831  0.55375949  1  0.061735  4e-06  0.102854  0.104813  4e-06  0.998999  0.0
H  H17  1  0.36969411  0.96656488  0.94623972  1  0.062067  4e-06  0.102835  0.10482  4e-06  0.999002  0.0
H  H18  1  0.73009381  0.13857027  0.52502383  1  0.096726  -5e-05  0.105136  0.108489  -8e-06  1.008694  0.0
H  H19  1  0.73010239  0.86142210  0.97497192  1  0.096676  -5e-05  0.105129  0.108461  -8e-06  1.008765  0.0
H  H20  1  0.26990263  0.86142606  0.47497293  1  0.096755  -5e-05  0.105145  0.108476  -8e-06  1.008757  0.0
H  H21  1  0.26989660  0.13858104  0.02503046  1  0.096669  -5e-05  0.105127  0.108462  -8e-06  1.008793  0.0
H  H22  1  0.18729628  0.93719589  0.71420084  1  0.070163  -2.8e-05  0.101695  0.116491  -1.6e-05  0.983575  0.0
H  H23  1  0.18728972  0.06280398  0.78580204  1  0.070216  -2.8e-05  0.101693  0.116443  -1.6e-05  0.983607  0.0
H  H24  1  0.81270783  0.06280195  0.28579509  1  0.070245  -2.7e-05  0.101703  0.116491  -1.6e-05  0.983604  0.0
H  H25  1  0.81270032  0.93719538  0.21419929  1  0.07016  -2.7e-05  0.101698  0.116488  -1.6e-05  0.983641  0.0
H  H26  1  0.31667564  0.38377577  0.68090485  1  0.102057  -0.002352  0.121597  0.091956  -0.000828  1.000441  -0.001
H  H27  1  0.31667211  0.61622202  0.81909480  1  0.102085  -0.002352  0.121569  0.091923  -0.000828  1.00044  -0.001
H  H28  1  0.68332847  0.61622130  0.31909771  1  0.102159  -0.002352  0.121559  0.091892  -0.000828  1.000414  -0.001
H  H29  1  0.68332432  0.38377733  0.18090404  1  0.102103  -0.002352  0.121608  0.091979  -0.000828  1.000441  -0.001
H  H30  1  0.53872675  0.37430826  0.57008129  1  0.12179  -0.00107  0.113252  0.127457  -0.000526  1.042715  -0.001
H  H31  1  0.53872142  0.62568760  0.92992003  1  0.121854  -0.00107  0.113265  0.127457  -0.000526  1.042739  -0.001
H  H32  1  0.46128503  0.62569185  0.42992087  1  0.121873  -0.001069  0.113259  0.127439  -0.000526  1.042753  -0.001
H  H33  1  0.46128397  0.37431251  0.07008027  1  0.121897  -0.001069  0.113253  0.127439  -0.000526  1.0428  -0.001
H  H34  1  0.28436161  0.62768605  0.51848964  1  0.137929  -0.001113  0.116935  0.135299  -0.000555  1.016903  -0.001
H  H35  1  0.28435709  0.37231549  0.98150860  1  0.137961  -0.001113  0.116959  0.135365  -0.000555  1.016894  -0.001
H  H36  1  0.71564889  0.37231710  0.48150901  1  0.13837  -0.001112  0.116959  0.135368  -0.000555  1.016896  -0.001
H  H37  1  0.71564702  0.62768462  0.01849169  1  0.138363  -0.001113  0.116959  0.135344  -0.000555  1.016915  -0.001
H  H38  1  0.06909144  0.62088299  0.62800468  1  0.12296  -0.002342  0.128005  0.105579  -0.00085  0.983511  -0.002
H  H39  1  0.06908626  0.37912201  0.87199542  1  0.122925  -0.002341  0.128014  0.105607  -0.00085  0.983526  -0.002
H  H40  1  0.93091523  0.37911789  0.37199458  1  0.123327  -0.002341  0.127992  0.105539  -0.00085  0.983537  -0.002
H  H41  1  0.93091146  0.62088038  0.12800364  1  0.122958  -0.002342  0.128015  0.105574  -0.00085  0.983527  -0.002
H  H42  1  0.80166300  0.43419596  0.63049678  1  0.658093  0.000167  0.278853  0.358428  0.000224  1.009374  0.0
H  H43  1  0.80166787  0.56580335  0.86950392  1  0.658086  0.000167  0.278867  0.358357  0.000224  1.00946  0.0
H  H44  1  0.19834110  0.56580568  0.36950270  1  0.65808  0.000166  0.278834  0.358348  0.000224  1.009495  0.0
H  H45  1  0.19832984  0.43419752  0.13049907  1  0.658094  0.000167  0.278861  0.358308  0.000224  1.009534  0.0
H  H46  1  0.09821815  0.26740695  0.73858173  1  0.653385  -0.000129  0.295299  0.333174  -0.000174  1.021056  0.0
H  H47  1  0.09821944  0.73259429  0.76142289  1  0.653445  -0.000129  0.29525  0.333145  -0.000174  1.02107  0.0
H  H48  1  0.90178085  0.73258861  0.26141606  1  0.653879  -0.000129  0.295296  0.333147  -0.000174  1.021077  0.0
H  H49  1  0.90179107  0.26740961  0.23857970  1  0.653868  -0.000129  0.295245  0.333103  -0.000174  1.021054  0.0
H  H50  1  0.71578569  0.54235253  0.68512021  1  0.601468  -0.001169  0.313987  0.387839  -0.000736  0.89661  -0.001
H  H51  1  0.71578383  0.45764968  0.81488078  1  0.601521  -0.001169  0.314014  0.387874  -0.000736  0.89656  -0.001
H  H52  1  0.28421330  0.45765137  0.31488052  1  0.601399  -0.00117  0.313994  0.387822  -0.000736  0.896643  -0.001
H  H53  1  0.28421261  0.54234741  0.18511867  1  0.601465  -0.00117  0.313997  0.387863  -0.000735  0.896536  -0.001
C  C54  1  0.90159565  0.28467846  0.64262269  1  1.515101  -0.000524  0.214743  0.596626  9.5e-05  4.138807  0.0
C  C55  1  0.90158610  0.71532025  0.85737958  1  1.515187  -0.000525  0.214777  0.596558  9.5e-05  4.138188  0.0
C  C56  1  0.09840078  0.71531711  0.35737448  1  1.515209  -0.000523  0.214703  0.596549  9.5e-05  4.139023  0.0
C  C57  1  0.09841417  0.28468215  0.14261824  1  1.515439  -0.000526  0.214758  0.596374  9.4e-05  4.13842  0.0
C  C58  1  0.90655256  0.17476224  0.63184423  1  -0.034641  -0.005842  -0.039479  -0.179417  -0.003515  4.032551  -0.005
C  C59  1  0.90654615  0.82523648  0.86815368  1  -0.034808  -0.005842  -0.039459  -0.179442  -0.003515  4.032606  -0.005
C  C60  1  0.09344771  0.82523485  0.36815087  1  -0.034558  -0.005842  -0.039496  -0.179445  -0.003515  4.032551  -0.005
C  C61  1  0.09345029  0.17476516  0.13184330  1  -0.034823  -0.005842  -0.039445  -0.179295  -0.003515  4.032437  -0.005
C  C62  1  0.00942826  0.13588856  0.68800179  1  0.480622  0.000479  0.081338  0.240085  0.000575  4.048287  0.0
C  C63  1  0.00942109  0.86411103  0.81199875  1  0.480646  0.000479  0.081345  0.240141  0.000575  4.048208  0.0
C  C64  1  0.99056818  0.86411459  0.31199935  1  0.480613  0.000479  0.081326  0.240162  0.000576  4.048353  0.0
C  C65  1  0.99057279  0.13589060  0.18799824  1  0.480716  0.000479  0.081318  0.240061  0.000575  4.048205  0.0
C  C66  1  0.99923989  0.03475145  0.68480242  1  0.064431  -0.000312  -0.022648  -0.049412  -0.000171  3.895762  0.0
C  C67  1  0.99923585  0.96524816  0.81519935  1  0.064506  -0.000312  -0.022718  -0.049474  -0.000171  3.895936  0.0
C  C68  1  0.00075271  0.96525094  0.31519726  1  0.064435  -0.000313  -0.022629  -0.049386  -0.000172  3.895767  0.0
C  C69  1  0.00076442  0.03475499  0.18480303  1  0.064711  -0.000312  -0.022687  -0.049433  -0.000171  3.895814  0.0
C  C70  1  0.89576825  0.96699978  0.61837462  1  -0.006674  0.000308  -0.001389  0.053841  0.000348  3.954492  0.0
C  C71  1  0.89576996  0.03299815  0.88163179  1  -0.026595  0.000309  -0.001489  0.053485  0.000348  3.954742  0.0
C  C72  1  0.10422946  0.03299806  0.38162691  1  -0.026561  0.000309  -0.001464  0.053609  0.000348  3.954516  0.0
C  C73  1  0.10423159  0.96700196  0.11837223  1  -0.006635  0.000308  -0.001434  0.053639  0.000348  3.95465  0.0
C  C74  1  0.88710567  0.86117380  0.60590654  1  -0.059198  -0.00012  -0.100708  -0.141687  -6.8e-05  3.972224  0.0
C  C75  1  0.88711049  0.13882564  0.89410092  1  -0.059451  -0.00012  -0.10075  -0.141586  -6.8e-05  3.972362  0.0
C  C76  1  0.11289589  0.13882707  0.39409831  1  -0.059238  -0.00012  -0.100696  -0.1416  -6.8e-05  3.972427  0.0
C  C77  1  0.11290002  0.86117372  0.10590165  1  -0.059384  -0.00012  -0.100735  -0.141596  -6.8e-05  3.972379  0.0
C  C78  1  0.78863566  0.79720795  0.53988593  1  -0.068562  0.000259  -0.101663  -0.07891  0.0003  4.044599  0.0
C  C79  1  0.78863666  0.20279361  0.96011790  1  -0.068292  0.000259  -0.101655  -0.078966  0.000299  4.044704  0.0
C  C80  1  0.21136333  0.20280051  0.46011668  1  -0.125543  0.000261  -0.101726  -0.078998  0.000299  4.044839  0.0
C  C81  1  0.21137256  0.79720271  0.03988197  1  -0.125657  0.000261  -0.101715  -0.079011  0.0003  4.044713  0.0
C  C82  1  0.69308064  0.83473135  0.48219567  1  -0.019219  -9e-05  -0.109037  -0.111581  -2.4e-05  4.063239  0.0
C  C83  1  0.69307737  0.16526958  0.01780857  1  -0.018696  -9e-05  -0.108952  -0.11148  -2.4e-05  4.062979  0.0
C  C84  1  0.30691579  0.16527787  0.51780902  1  -0.019502  -9e-05  -0.108943  -0.111474  -2.4e-05  4.063012  0.0
C  C85  1  0.30692034  0.83472599  0.98218797  1  -0.018702  -9e-05  -0.108906  -0.111396  -2.4e-05  4.063057  0.0
C  C86  1  0.70013559  0.93649131  0.49125721  1  0.006669  8e-05  -0.086139  -0.114906  0.000122  3.987109  0.0
C  C87  1  0.70013433  0.06350963  0.00874765  1  0.006164  8e-05  -0.086148  -0.114915  0.000123  3.98703  0.0
C  C88  1  0.29985701  0.06351411  0.50874456  1  0.006727  8e-05  -0.086167  -0.11487  0.000123  3.986926  0.0
C  C89  1  0.29985954  0.93648821  0.99125202  1  0.006343  8e-05  -0.086132  -0.114869  0.000122  3.986969  0.0
C  C90  1  0.79938159  0.00448138  0.55873558  1  -0.052663  -0.000619  -0.014369  0.055021  -0.000333  4.019018  -0.001
C  C91  1  0.79938856  0.99551715  0.94127175  1  -0.03276  -0.000619  -0.014275  0.055161  -0.000333  4.018923  -0.001
C  C92  1  0.20061485  0.99551569  0.44126698  1  -0.03275  -0.000619  -0.014253  0.055133  -0.000333  4.018933  -0.001
C  C93  1  0.20061555  0.00447992  0.05873081  1  -0.052847  -0.000618  -0.01431  0.055097  -0.000333  4.018974  -0.001
C  C94  1  0.80539547  0.10868574  0.56829471  1  -0.012959  -0.000307  -0.07579  -0.106993  5.4e-05  3.969967  0.0
C  C95  1  0.80539678  0.89131206  0.93170432  1  -0.012875  -0.000308  -0.075803  -0.106919  5.4e-05  3.970068  0.0
C  C96  1  0.19459840  0.89130906  0.43170348  1  -0.013107  -0.000307  -0.075825  -0.106959  5.5e-05  3.970001  0.0
C  C97  1  0.19460349  0.10868654  0.06829556  1  -0.012814  -0.000308  -0.075816  -0.106994  5.4e-05  3.970022  0.0
C  C98  1  0.10303386  0.99999855  0.74999949  1  -0.023297  -5.3e-05  -0.155369  -0.20465  -2.7e-05  3.941939  0.0
C  C99  1  0.89696479  0.99999968  0.24999643  1  -0.023585  -5.3e-05  -0.155388  -0.204694  -2.8e-05  3.942106  0.0
C  C100  1  0.31567959  0.43650824  0.64334024  1  0.461288  0.004504  0.044113  0.078419  0.005351  3.981656  0.003
C  C101  1  0.31568196  0.56349107  0.85666170  1  0.461505  0.004504  0.044166  0.078442  0.00535  3.981588  0.003
C  C102  1  0.68431556  0.56348580  0.35666024  1  0.461042  0.004504  0.044148  0.078447  0.00535  3.981583  0.003
C  C103  1  0.68431704  0.43651132  0.14333985  1  0.461349  0.004505  0.044136  0.078406  0.005351  3.981614  0.003
C  C104  1  0.43981182  0.43206246  0.58080677  1  -0.031868  -0.004774  -0.081977  -0.184177  -0.002715  3.95806  -0.004
C  C105  1  0.43981004  0.56793553  0.91919526  1  -0.031868  -0.004772  -0.08203  -0.184179  -0.002715  3.958108  -0.004
C  C106  1  0.56018717  0.56793311  0.41919413  1  -0.031801  -0.004772  -0.082036  -0.184183  -0.002715  3.958092  -0.004
C  C107  1  0.56019534  0.43206459  0.08080379  1  -0.031826  -0.004773  -0.082018  -0.184139  -0.002715  3.958076  -0.004
C  C108  1  0.43461578  0.50117669  0.53339201  1  -0.058782  0.006581  0.011578  0.100674  0.007381  3.972148  0.004
C  C109  1  0.43461208  0.49882281  0.96660734  1  -0.013278  0.006538  0.011643  0.100779  0.007378  3.9722  0.004
C  C110  1  0.56538960  0.49882115  0.46660765  1  -0.013272  0.006538  0.011691  0.100845  0.007378  3.972255  0.004
C  C111  1  0.56538564  0.50117958  0.03339172  1  -0.058858  0.006579  0.011643  0.100695  0.00738  3.972206  0.004
C  C112  1  0.29946061  0.57147050  0.55198185  1  0.017627  -0.005271  -0.072448  -0.153786  -0.002987  3.889113  -0.004
C  C113  1  0.29945916  0.42852879  0.94801761  1  0.017547  -0.00527  -0.072511  -0.153931  -0.002987  3.889226  -0.004
C  C114  1  0.70054221  0.42852885  0.44801761  1  0.017104  -0.00527  -0.072485  -0.153956  -0.002986  3.889382  -0.004
C  C115  1  0.70054367  0.57146906  0.05198081  1  0.017127  -0.005272  -0.072496  -0.15387  -0.002988  3.889244  -0.004
C  C116  1  0.17783766  0.56929106  0.61420594  1  0.433113  0.004292  0.056052  0.11313  0.005054  3.899044  0.003
C  C117  1  0.17783910  0.43070803  0.88579550  1  0.433097  0.004288  0.05605  0.113123  0.00505  3.899102  0.003
C  C118  1  0.82216133  0.43070374  0.38579289  1  0.432816  0.004288  0.056077  0.113259  0.005052  3.899031  0.003
C  C119  1  0.82216117  0.56929284  0.11420625  1  0.433063  0.00429  0.056036  0.113155  0.005052  3.899004  0.003
N  N120  1  0.18596123  0.50362501  0.65997732  1  -1.194378  -0.079374  -0.333969  -0.228253  -0.045761  3.609147  -0.07
N  N121  1  0.18596457  0.49637561  0.84002515  1  -1.194533  -0.079373  -0.333993  -0.228268  -0.04576  3.609091  -0.07
N  N122  1  0.81403265  0.49637055  0.34002295  1  -1.194316  -0.079372  -0.333981  -0.228282  -0.04576  3.609012  -0.07
N  N123  1  0.81403826  0.50362602  0.15997557  1  -1.194388  -0.079382  -0.333992  -0.228284  -0.045763  3.609056  -0.07
O  O124  1  0.00568279  0.34303537  0.70018939  1  -1.164636  -0.066186  -0.315673  -0.567066  -0.036954  2.414704  -0.062
O  O125  1  0.00567064  0.65696573  0.79981344  1  -1.164783  -0.066181  -0.315728  -0.567056  -0.036951  2.414472  -0.062
O  O126  1  0.99432132  0.65696247  0.29980717  1  -1.164644  -0.06618  -0.315684  -0.567026  -0.036951  2.414878  -0.062
O  O127  1  0.99432835  0.34303667  0.20018127  1  -1.164912  -0.066179  -0.315635  -0.566924  -0.03695  2.414582  -0.062
O  O128  1  0.79646895  0.31912260  0.59906355  1  -1.1841  0.000263  -0.318496  -0.546661  0.001064  2.216564  0.0
O  O129  1  0.79647304  0.68087745  0.90094669  1  -1.184051  0.000262  -0.318452  -0.546506  0.001063  2.216162  0.0
O  O130  1  0.20352877  0.68087297  0.40093300  1  -1.184099  0.000263  -0.318445  -0.546591  0.001064  2.216664  0.0
O  O131  1  0.20352724  0.31912874  0.09905467  1  -1.184141  0.000263  -0.31849  -0.546457  0.001064  2.216358  0.0
O  O132  1  0.11733436  0.19926056  0.74691275  1  -1.19417  -0.002162  -0.365274  -0.465806  -0.001134  2.34886  -0.002
O  O133  1  0.11734120  0.80074071  0.75309309  1  -1.194162  -0.002161  -0.365281  -0.465873  -0.001134  2.348795  -0.002
O  O134  1  0.88266336  0.80074031  0.25309210  1  -1.194708  -0.002162  -0.36528  -0.465851  -0.001134  2.349  -0.002
O  O135  1  0.88266675  0.19926319  0.24690888  1  -1.194648  -0.00216  -0.365264  -0.465822  -0.001133  2.348862  -0.002
O  O136  1  0.82258545  0.51137187  0.65892737  1  -1.241066  -0.05926  -0.570843  -0.751681  -0.033179  2.182139  -0.051
O  O137  1  0.82258619  0.48862747  0.84107268  1  -1.241164  -0.059259  -0.570877  -0.751683  -0.033177  2.182155  -0.051
O  O138  1  0.17741482  0.48862900  0.34107624  1  -1.241083  -0.059257  -0.570866  -0.751639  -0.033177  2.182173  -0.051
O  O139  1  0.17740897  0.51137492  0.15892203  1  -1.241078  -0.059266  -0.57087  -0.751667  -0.033183  2.182158  -0.051
