# generated using pymatgen
data_Zn2H30C35(N3O4)2
_symmetry_space_group_name_H-M   'P 1'
_cell_length_a   11.17830893
_cell_length_b   15.90674918
_cell_length_c   17.01892075
_cell_angle_alpha   87.75736765
_cell_angle_beta   87.99684276
_cell_angle_gamma   85.71860445
_symmetry_Int_Tables_number   1
_chemical_formula_structural   Zn2H30C35(N3O4)2
_chemical_formula_sum   'Zn2 H30 C35 N6 O8'
_cell_volume   3013.82922149
_cell_formula_units_Z   1
loop_
 _symmetry_equiv_pos_site_id
 _symmetry_equiv_pos_as_xyz
  1  'x, y, z'
loop_
 _atom_site_type_symbol
 _atom_site_label
 _atom_site_symmetry_multiplicity
 _atom_site_fract_x
 _atom_site_fract_y
 _atom_site_fract_z
 _atom_site_occupancy
 _atom_site_pbe_bader_charge
 _atom_site_pbe_bader_spin_density
 _atom_site_pbe_cm5_charge
 _atom_site_pbe_ddec_charge
 _atom_site_pbe_ddec_spin_density
 _atom_site_pbe_ddec_sum_bond_order
 _atom_site_pbe_magmom
Zn  Zn0  1  0.49247514  0.59038588  0.50881912  1  1.287785  0  0.664248  0.825371  0  2.385339  0
Zn  Zn1  1  0.51336295  0.41376315  0.49173317  1  1.298871  0  0.66497  0.814788  0  2.437302  0
H  H2  1  0.12590417  0.37692870  0.46750479  1  0.078125  0  0.10463  0.102245  0  0.989825  0
H  H3  1  0.56694969  0.35741896  0.90686675  1  0.061019  0  0.102501  0.10742  0  1.007002  0
H  H4  1  0.36630233  0.42236561  0.27132488  1  0.062312  0  0.10217  0.111765  0  0.999291  0
H  H5  1  0.61847007  0.71817240  0.42811806  1  0.147871  0  0.128414  0.104695  0  0.988397  0
H  H6  1  0.62638612  0.87649950  0.41703237  1  0.097005  0  0.117441  0.12863  0  0.997533  0
H  H7  1  0.66215784  0.28616367  0.39574221  1  0.118681  0  0.130143  0.109213  0  0.968452  0
H  H8  1  0.35242584  0.89261825  0.60147057  1  0.09776  0  0.116722  0.129819  0  0.988713  0
H  H9  1  0.09031635  0.55414971  0.53469027  1  0.095984  0  0.105224  0.121658  0  0.99492  0
H  H10  1  0.90394721  0.37428091  0.48926812  1  0.065962  0  0.104158  0.102096  0  0.990942  0
H  H11  1  0.90144039  0.56791657  0.47705871  1  0.079871  0  0.104901  0.121603  0  0.99435  0
H  H12  1  0.50098847  0.65039719  0.09247756  1  0.079408  0  0.101151  0.106951  0  1.009161  0
H  H13  1  0.24659234  0.42186105  0.07369284  1  0.069998  0  0.093267  0.133018  0  0.991288  0
H  H14  1  0.36327051  0.34658160  0.09931815  1  0.056278  0  0.090946  0.125791  0  1.008371  0
H  H15  1  0.24764868  0.37453544  0.17044007  1  0.002368  0  0.088174  0.122032  0  0.999683  0
H  H16  1  0.76843744  0.16429185  0.34333128  1  0.037812  0  0.100789  0.137937  0  0.98591  0
H  H17  1  0.76683193  0.06627122  0.39851108  1  0.069999  0  0.10072  0.13861  0  0.993551  0
H  H18  1  0.66533091  0.08895366  0.32217781  1  0.064541  0  0.103122  0.144104  0  0.976829  0
H  H19  1  0.27585928  0.76590577  0.65709072  1  0.012429  0  0.096659  0.13899  0  0.99046  0
H  H20  1  0.28907466  0.67443203  0.59756630  1  0.126548  0  0.105605  0.169415  0  1.012667  0
H  H21  1  0.39661859  0.68638965  0.66868075  1  0.097287  0  0.106133  0.160538  0  0.999731  0
H  H22  1  0.40867879  0.11536427  0.56994149  1  0.127073  0  0.115918  0.121767  0  1.009724  0
H  H23  1  0.39640840  0.27513581  0.57005716  1  0.167838  0  0.130678  0.110968  0  0.97058  0
H  H24  1  0.35445777  0.57801358  0.73966567  1  0.062033  0  0.101798  0.103259  0  1.015505  0
H  H25  1  0.32193837  0.57757979  0.88628574  1  0.095183  0  0.102957  0.108031  0  1.010053  0
H  H26  1  0.58765055  0.71632135  0.19409968  1  0.020575  0  0.086454  0.117899  0  1.005422  0
H  H27  1  0.49236534  0.71694142  0.28061499  1  0.047689  0  0.089955  0.129129  0  1.003594  0
H  H28  1  0.63006765  0.65556659  0.28034082  1  0.048001  0  0.092435  0.131266  0  0.994146  0
H  H29  1  0.58005990  0.29351130  0.71961319  1  0.056112  0  0.091154  0.130988  0  1.001453  0
H  H30  1  0.69102872  0.36618708  0.70947365  1  0.051123  0  0.09607  0.140044  0  0.984246  0
H  H31  1  0.67880048  0.30370700  0.79833609  1  0.003477  0  0.087916  0.120159  0  1.003877  0
C  C32  1  0.48052963  0.52873352  0.34875524  1  1.537434  0  0.214925  0.601035  0  4.16075  0
C  C33  1  0.39643384  0.47195287  0.23082504  1  -0.035897  0  -0.090329  -0.158528  0  3.969653  0
C  C34  1  0.37489542  0.46808592  0.15089147  1  0.051899  0  -0.004438  0.108319  0  3.944254  0
C  C35  1  0.41973288  0.53288474  0.10132886  1  0.257969  0  0.083417  0.111974  0  4.043288  0
C  C36  1  0.47177754  0.60091484  0.13346571  1  -0.015073  0  -0.090375  -0.213494  0  3.950095  0
C  C37  1  0.49260789  0.60439346  0.21361833  1  0.063374  0  -0.006249  0.157021  0  3.958227  0
C  C38  1  0.38267685  0.53026730  0.85812444  1  -0.012871  0  -0.093657  -0.161953  0  3.998143  0
C  C39  1  0.40151896  0.53025895  0.77717881  1  -0.021836  0  -0.088358  -0.087473  0  4.016931  0
C  C40  1  0.44526282  0.46798388  0.90454629  1  0.324726  0  0.081766  0.171755  0  4.084051  0
C  C41  1  0.48110549  0.46965268  0.74118336  1  -0.052539  0  -0.013633  -0.08246  0  3.901798  0
C  C42  1  0.54109418  0.40494414  0.78722357  1  0.044733  0  -0.00137  0.167356  0  3.943449  0
C  C43  1  0.73618229  0.50213936  0.48813900  1  1.56864  0  0.204417  0.631511  0  4.190661  0
C  C44  1  0.52048149  0.40510713  0.86876544  1  -0.036542  0  -0.087898  -0.215673  0  3.923744  0
C  C45  1  0.45795066  0.23911293  0.53078093  1  0.422288  0  0.057687  0.100797  0  3.926868  0
C  C46  1  0.46482792  0.15197570  0.53032597  1  0.037489  0  -0.073875  -0.182517  0  3.96038  0
C  C47  1  0.54669167  0.11038647  0.47790497  1  0.331724  0  0.102794  0.132548  0  3.993422  0
C  C48  1  0.62131579  0.15747792  0.42735881  1  0.008141  0  0.014115  0.084723  0  3.918179  0
C  C49  1  0.60733670  0.24534513  0.43271011  1  0.515298  0  0.062203  0.038869  0  3.873581  0
C  C50  1  0.56636888  0.84677501  0.45952633  1  0.011371  0  -0.077756  -0.201668  0  3.934752  0
C  C51  1  0.56183863  0.75990398  0.46548588  1  0.517243  0  0.061167  0.121874  0  3.918766  0
C  C52  1  0.48902522  0.89537773  0.50949404  1  0.246089  0  0.102394  0.205896  0  4.069107  0
C  C53  1  0.41496412  0.76678000  0.56703468  1  0.525169  0  0.139844  0.345286  0  3.917625  0
C  C54  1  0.49928092  0.47789328  0.65347263  1  1.583895  0  0.216115  0.600082  0  4.167945  0
C  C55  1  0.41285077  0.85485034  0.56291967  1  -0.026232  0  -0.071846  -0.242714  0  3.87177  0
C  C56  1  0.26885217  0.49390293  0.50871844  1  1.51942  0  0.205781  0.628895  0  4.192177  0
C  C57  1  0.07401968  0.43375357  0.48705934  1  0.02094  0  -0.076296  -0.030628  0  4.004804  0
C  C58  1  0.13601182  0.49680158  0.51171973  1  -0.086896  0  -0.092824  -0.225525  0  3.891326  0
C  C59  1  0.94417963  0.43496944  0.48683527  1  0.003745  0  -0.078003  -0.033394  0  4.005447  0
C  C60  1  0.86846413  0.50507051  0.48326921  1  -0.100709  0  -0.093785  -0.226465  0  3.887268  0
C  C61  1  0.45663462  0.53646727  0.26251763  1  -0.059524  0  -0.014256  -0.073995  0  3.924589  0
C  C62  1  0.30441256  0.39905720  0.12208039  1  -0.046446  0  -0.240598  -0.406725  0  4.006549  0
C  C63  1  0.71066766  0.11731954  0.36983778  1  -0.0509  0  -0.228602  -0.410565  0  3.985039  0
C  C64  1  0.33855580  0.72151450  0.62593200  1  -0.064066  0  -0.237261  -0.47187  0  3.920788  0
C  C65  1  0.55413507  0.67731363  0.24355662  1  -0.062681  0  -0.240257  -0.402473  0  3.984925  0
C  C66  1  0.62760189  0.33850961  0.75204325  1  -0.034386  0  -0.239118  -0.408687  0  3.981015  0
N  N67  1  0.42040062  0.53587300  0.01825409  1  -0.487238  0  -0.152319  -0.136598  0  3.290459  0
N  N68  1  0.44043081  0.46451080  0.98769892  1  -0.494399  0  -0.144845  -0.125652  0  3.273481  0
N  N69  1  0.52841411  0.28478836  0.48250069  1  -1.23435  0  -0.312384  -0.178245  0  3.530572  0
N  N70  1  0.56136183  0.02114264  0.47456394  1  -0.491162  0  -0.128198  -0.100093  0  3.223842  0
N  N71  1  0.47762375  0.98447681  0.51011596  1  -0.429713  0  -0.130701  -0.118402  0  3.256008  0
N  N72  1  0.48829451  0.72075656  0.51739845  1  -1.222047  0  -0.307053  -0.244613  0  3.400865  0
O  O73  1  0.46929567  0.59532440  0.38838733  1  -1.152902  0  -0.315248  -0.545731  0  2.317047  0
O  O74  1  0.50970439  0.45437380  0.37576633  1  -1.160491  0  -0.322282  -0.555753  0  2.322511  0
O  O75  1  0.67559682  0.57358736  0.48716107  1  -1.155587  0  -0.324058  -0.562925  0  2.294558  0
O  O76  1  0.69285713  0.43009786  0.49376344  1  -1.165627  0  -0.325013  -0.560801  0  2.317219  0
O  O77  1  0.51137030  0.55237155  0.62528704  1  -1.162519  0  -0.318366  -0.553185  0  2.320301  0
O  O78  1  0.49953647  0.41155780  0.61405966  1  -1.166004  0  -0.310962  -0.544187  0  2.321688  0
O  O79  1  0.31388139  0.56332643  0.52247407  1  -1.162054  0  -0.319674  -0.558707  0  2.312109  0
O  O80  1  0.32776334  0.42471873  0.49274808  1  -1.187913  0  -0.322159  -0.556444  0  2.308509  0
