# generated using pymatgen
data_MnNiH18C18(N3O)2
_symmetry_space_group_name_H-M   'P 1'
_cell_length_a   8.06240533
_cell_length_b   8.22900929
_cell_length_c   8.90760679
_cell_angle_alpha   115.68761710
_cell_angle_beta   106.30783157
_cell_angle_gamma   100.69437145
_symmetry_Int_Tables_number   1
_chemical_formula_structural   MnNiH18C18(N3O)2
_chemical_formula_sum   'Mn1 Ni1 H18 C18 N6 O2'
_cell_volume   477.80015381
_cell_formula_units_Z   1
loop_
 _symmetry_equiv_pos_site_id
 _symmetry_equiv_pos_as_xyz
  1  'x, y, z'
loop_
 _atom_site_type_symbol
 _atom_site_label
 _atom_site_symmetry_multiplicity
 _atom_site_fract_x
 _atom_site_fract_y
 _atom_site_fract_z
 _atom_site_occupancy
 _atom_site_pbe_bader_charge
 _atom_site_pbe_bader_spin_density
 _atom_site_pbe_cm5_charge
 _atom_site_pbe_ddec_charge
 _atom_site_pbe_ddec_spin_density
 _atom_site_pbe_ddec_sum_bond_order
 _atom_site_pbe_magmom
Mn  Mn0  1  0.50000276  0.49997886  0.00000156  1  1.509586  4.514402  0.641246  0.86483  4.638029  2.494298  4.445
Ni  Ni1  1  0.99998719  0.49999856  0.49998429  1  0.632504  0.020778  0.408324  0.149107  0.033705  3.901788  0.019
H  H2  1  0.18911255  0.86572010  0.44450862  1  0.101818  0.000674  0.106099  0.120396  0.000329  1.01678  0.0
H  H3  1  0.81093235  0.13428991  0.55552643  1  0.099016  0.000675  0.10611  0.120402  0.000329  1.016814  0.0
H  H4  1  0.21538982  0.16008794  0.90249310  1  0.631981  0.001565  0.294666  0.332592  0.001112  1.0311  0.002
H  H5  1  0.78458544  0.83990943  0.09748603  1  0.631985  0.001563  0.294622  0.332586  0.001111  1.031114  0.002
H  H6  1  0.49285105  0.88466644  0.04375986  1  0.075093  0.001531  0.11727  0.07714  0.000961  1.030041  0.001
H  H7  1  0.50710581  0.11532204  0.95620423  1  0.075146  0.001532  0.117285  0.077172  0.000962  1.029996  0.001
H  H8  1  0.40586675  0.16570387  0.20629578  1  0.08308  0.000674  0.10765  0.114735  1.1e-05  1.022617  0.0
H  H9  1  0.59412226  0.83429683  0.79370737  1  0.083088  0.000674  0.107641  0.114729  1.1e-05  1.022649  0.0
H  H10  1  0.25069460  0.15600090  0.41515789  1  0.097007  0.000137  0.107294  0.106449  -7.7e-05  1.010948  0.0
H  H11  1  0.74933331  0.84400469  0.58487207  1  0.096994  0.000137  0.107306  0.106481  -7.6e-05  1.010798  0.0
H  H12  1  0.10952695  0.24487933  0.12381185  1  0.064123  0.002028  0.098613  0.063341  0.001102  1.00027  0.001
H  H13  1  0.89051637  0.75512199  0.87621718  1  0.064009  0.002029  0.098591  0.063314  0.001102  1.000214  0.001
H  H14  1  0.04589419  0.37305513  0.01333145  1  0.041657  0.001001  0.092615  0.053184  0.000248  0.998437  0.0
H  H15  1  0.95409598  0.62693907  0.98670656  1  0.041647  0.001  0.092644  0.053218  0.000247  0.99846  0.0
H  H16  1  0.40930249  0.53794381  0.34698045  1  0.061536  0.000351  0.105539  0.120904  -1e-06  0.981154  0.0
H  H17  1  0.59073431  0.46205972  0.65301402  1  0.061896  0.000351  0.105567  0.12094  -1e-06  0.981185  0.0
H  H18  1  0.20213111  0.56273857  0.36756475  1  0.038504  0.000242  0.086662  0.079561  0.000138  1.0805  0.0
H  H19  1  0.79791550  0.43726840  0.63246060  1  0.038707  0.000242  0.08662  0.079509  0.000138  1.080723  0.0
C  C20  1  0.27739938  0.54753099  0.27917411  1  -0.03179  0.002333  -0.157036  -0.271093  0.002079  3.947643  0.001
C  C21  1  0.72263034  0.45247132  0.72083261  1  -0.032712  0.002332  -0.157025  -0.271016  0.002077  3.947701  0.001
C  C22  1  0.91923897  0.23895785  0.33867482  1  0.822877  0.002604  0.016047  0.016023  0.002292  3.857254  0.002
C  C23  1  0.08073549  0.76104092  0.66130239  1  0.823276  0.002605  0.015988  0.015824  0.002293  3.857423  0.002
C  C24  1  0.25750940  0.87535605  0.35753242  1  -0.039693  0.000492  -0.083515  -0.177525  -0.000164  3.922767  0.0
C  C25  1  0.74251372  0.12464648  0.64248722  1  -0.036891  0.000489  -0.083501  -0.177503  -0.000165  3.92279  0.0
C  C26  1  0.42696086  0.88753637  0.13567197  1  0.517601  0.006579  0.050728  0.103397  0.005697  3.963252  0.004
C  C27  1  0.57301469  0.11245819  0.86430953  1  0.517614  0.006585  0.050704  0.103371  0.005704  3.963229  0.004
C  C28  1  0.31319016  0.72452690  0.26383433  1  0.498701  0.005996  0.125471  0.263386  0.004631  3.93975  0.004
C  C29  1  0.68682187  0.27547678  0.73617159  1  0.499169  0.006002  0.125556  0.263545  0.004635  3.939678  0.004
C  C30  1  0.18858382  0.47833695  0.65424091  1  0.799924  0.035401  0.028584  0.048369  0.030035  3.792328  0.027
C  C31  1  0.81138267  0.52166434  0.34571944  1  0.799302  0.035456  0.028456  0.048173  0.030082  3.792625  0.027
C  C32  1  0.37760067  0.04360630  0.22633023  1  -0.047688  0.000515  -0.086082  -0.136718  -0.00014  3.966381  0.0
C  C33  1  0.62239258  0.95639149  0.77366956  1  -0.04742  0.000513  -0.086007  -0.136617  -0.000142  3.966247  0.0
C  C34  1  0.29176978  0.03746578  0.34048309  1  -0.024112  0.004912  -0.065551  -0.009147  0.003635  3.95728  0.003
C  C35  1  0.70824217  0.96253807  0.65953298  1  -0.024507  0.004918  -0.065617  -0.009214  0.003639  3.957176  0.003
C  C36  1  0.16468824  0.35825827  0.09797228  1  0.429751  0.00474  -0.067546  0.108321  0.003804  3.87351  0.003
C  C37  1  0.83532436  0.64173986  0.90204288  1  0.429957  0.004737  -0.06764  0.108093  0.003803  3.873617  0.003
N  N38  1  0.30919738  0.46345464  0.75180973  1  -1.374991  0.043757  -0.355858  -0.36774  0.025115  3.305638  0.003
N  N39  1  0.69078329  0.53654690  0.24816234  1  -1.374785  0.04378  -0.355782  -0.367549  0.025122  3.3066  0.003
N  N40  1  0.87074552  0.07225383  0.23922721  1  -1.370387  0.002331  -0.335307  -0.352073  0.001108  3.130186  0.001
N  N41  1  0.12923648  0.92774084  0.76075940  1  -1.370775  0.002332  -0.335249  -0.351893  0.001108  3.130197  0.001
N  N42  1  0.39860563  0.73251266  0.15478407  1  -1.266904  0.052084  -0.316076  -0.296158  0.035997  3.437665  0.021
N  N43  1  0.60138467  0.26748343  0.84520080  1  -1.267054  0.052106  -0.316156  -0.296326  0.036003  3.437971  0.021
O  O44  1  0.27895791  0.30128850  0.00175652  1  -1.178897  0.062418  -0.395014  -0.504327  0.046192  2.492112  0.033
O  O45  1  0.72101788  0.69871019  0.99821653  1  -1.178943  0.062396  -0.394935  -0.504194  0.046177  2.491935  0.033
