# generated using pymatgen
data_AgH8C6S3O4F3
_symmetry_space_group_name_H-M   'P 1'
_cell_length_a   9.64429197
_cell_length_b   11.53412251
_cell_length_c   13.10869154
_cell_angle_alpha   65.99486598
_cell_angle_beta   68.39050698
_cell_angle_gamma   65.25982272
_symmetry_Int_Tables_number   1
_chemical_formula_structural   AgH8C6S3O4F3
_chemical_formula_sum   'Ag4 H32 C24 S12 O16 F12'
_cell_volume   1174.84065902
_cell_formula_units_Z   4
loop_
 _symmetry_equiv_pos_site_id
 _symmetry_equiv_pos_as_xyz
  1  'x, y, z'
loop_
 _atom_site_type_symbol
 _atom_site_label
 _atom_site_symmetry_multiplicity
 _atom_site_fract_x
 _atom_site_fract_y
 _atom_site_fract_z
 _atom_site_occupancy
 _atom_site_hle17_bader_spin_density
 _atom_site_hle17_ddec_charge
 _atom_site_hle17_ddec_spin_density
 _atom_site_hle17_ddec_sum_bond_order
 _atom_site_hle17_magmom
 _atom_site_hse06_10hf_bader_spin_density
 _atom_site_hse06_10hf_ddec_charge
 _atom_site_hse06_10hf_ddec_spin_density
 _atom_site_hse06_10hf_ddec_sum_bond_order
 _atom_site_hse06_10hf_magmom
 _atom_site_hse06_bader_spin_density
 _atom_site_hse06_ddec_charge
 _atom_site_hse06_ddec_spin_density
 _atom_site_hse06_ddec_sum_bond_order
 _atom_site_hse06_magmom
 _atom_site_pbe_bader_spin_density
 _atom_site_pbe_cm5_charge
 _atom_site_pbe_ddec_charge
 _atom_site_pbe_ddec_spin_density
 _atom_site_pbe_ddec_sum_bond_order
 _atom_site_pbe_magmom
Ag  Ag0  1  0.96307611  0.86781086  0.78200402  1  0  0.442722  0  1.531202  0  0  0.328132  0  1.995972  0  0  0.350549  0  1.951745  0  0  0.390051  0.31251  0  2.026679  0
Ag  Ag1  1  0.38711525  0.36763535  0.28181539  1  0  0.44258  0  1.533639  0  0  0.328295  0  1.998996  0  0  0.35075  0  1.954615  0  0  0.390465  0.312923  0  2.029547  0
Ag  Ag2  1  0.03692212  0.13218567  0.21799444  1  0  0.44272  0  1.531235  0  0  0.328109  0  1.996036  0  0  0.350537  0  1.95179  0  0  0.39004  0.31249  0  2.026741  0
Ag  Ag3  1  0.61288487  0.63236516  0.71818538  1  0  0.442666  0  1.533686  0  0  0.328297  0  1.999013  0  0  0.350751  0  1.954641  0  0  0.390469  0.312927  0  2.029562  0
H  H4  1  0.92711818  0.60517582  0.04874097  1  0  0.116962  0  0.919064  0  0  0.136755  0  0.971842  0  0  0.137255  0  0.972369  0  0  0.106335  0.136386  0  0.971401  0
H  H5  1  0.41912234  0.10457405  0.54854935  1  0  0.115795  0  0.91934  0  0  0.136025  0  0.971376  0  0  0.136495  0  0.971964  0  0  0.106335  0.135592  0  0.97113  0
H  H6  1  0.07287985  0.39482169  0.95126043  1  0  0.116782  0  0.919194  0  0  0.136741  0  0.971787  0  0  0.137238  0  0.972321  0  0  0.106321  0.136373  0  0.971345  0
H  H7  1  0.58087834  0.89542247  0.45145001  1  0  0.115811  0  0.919341  0  0  0.136057  0  0.971361  0  0  0.136526  0  0.971947  0  0  0.106345  0.135621  0  0.971113  0
H  H8  1  0.11995870  0.58510797  0.95600028  1  0  0.104648  0  0.955895  0  0  0.119244  0  1.019303  0  0  0.120364  0  1.019502  0  0  0.097228  0.11842  0  1.019088  0
H  H9  1  0.33907331  0.08471037  0.45577437  1  0  0.105199  0  0.954036  0  0  0.119237  0  1.018103  0  0  0.12033  0  1.018364  0  0  0.097208  0.118338  0  1.018098  0
H  H10  1  0.88003858  0.41489154  0.04400062  1  0  0.104649  0  0.9558  0  0  0.119243  0  1.019228  0  0  0.120362  0  1.019428  0  0  0.097238  0.118417  0  1.019012  0
H  H11  1  0.66092694  0.91528716  0.54422367  1  0  0.105248  0  0.95402  0  0  0.119261  0  1.018124  0  0  0.120349  0  1.018386  0  0  0.097211  0.118362  0  1.018118  0
H  H12  1  0.09922708  0.45381434  0.17101809  1  0  0.120314  0  0.929474  0  0  0.140618  0  0.984707  0  0  0.141469  0  0.984828  0  0  0.10725  0.139923  0  0.984762  0
H  H13  1  0.27578927  0.95346736  0.67089242  1  0  0.120709  0  0.930223  0  0  0.140993  0  0.985306  0  0  0.141869  0  0.985394  0  0  0.107441  0.140308  0  0.985368  0
H  H14  1  0.90077291  0.54618418  0.82898183  1  0  0.120338  0  0.929452  0  0  0.140629  0  0.984691  0  0  0.141479  0  0.984808  0  0  0.107249  0.139931  0  0.984746  0
H  H15  1  0.72421022  0.04653017  0.32910638  1  0  0.12073  0  0.930201  0  0  0.141007  0  0.985297  0  0  0.141883  0  0.985384  0  0  0.107454  0.140318  0  0.98536  0
H  H16  1  0.04495570  0.60641167  0.19991507  1  0  0.11308  0  0.924261  0  0  0.129955  0  0.979599  0  0  0.131267  0  0.979783  0  0  0.10428  0.128896  0  0.979732  0
H  H17  1  0.14878820  0.10618015  0.69972759  1  0  0.11379  0  0.924509  0  0  0.130325  0  0.979988  0  0  0.131687  0  0.980119  0  0  0.104093  0.129215  0  0.98016  0
H  H18  1  0.95504548  0.39358585  0.80008540  1  0  0.113039  0  0.924253  0  0  0.129928  0  0.97957  0  0  0.131236  0  0.979758  0  0  0.104293  0.128892  0  0.97968  0
H  H19  1  0.85121330  0.89381637  0.30027207  1  0  0.113771  0  0.924503  0  0  0.130304  0  0.979989  0  0  0.131666  0  0.980119  0  0  0.104077  0.129191  0  0.980162  0
H  H20  1  0.31825336  0.66789539  0.19858195  1  0  0.127637  0  0.969948  0  0  0.131545  0  1.045928  0  0  0.135148  0  1.042212  0  0  0.09819  0.129045  0  1.048483  0
H  H21  1  0.81507033  0.16816825  0.69857584  1  0  0.128922  0  0.969536  0  0  0.132702  0  1.04548  0  0  0.13623  0  1.041898  0  0  0.098676  0.130179  0  1.0481  0
H  H22  1  0.68174998  0.33210215  0.80141409  1  0  0.12761  0  0.969919  0  0  0.131542  0  1.045876  0  0  0.135149  0  1.042159  0  0  0.098184  0.129042  0  1.04843  0
H  H23  1  0.18493011  0.83183127  0.30142412  1  0  0.128919  0  0.969552  0  0  0.132698  0  1.045487  0  0  0.136228  0  1.041903  0  0  0.098673  0.130175  0  1.048109  0
H  H24  1  0.44079492  0.69094573  0.05400433  1  0  0.159757  0  0.925684  0  0  0.174514  0  0.981513  0  0  0.176379  0  0.98078  0  0  0.113405  0.172985  0  0.982399  0
H  H25  1  0.81392448  0.19126927  0.55405706  1  0  0.161048  0  0.924227  0  0  0.175739  0  0.980205  0  0  0.177639  0  0.979391  0  0  0.11415  0.174335  0  0.980817  0
H  H26  1  0.55920495  0.30905280  0.94599345  1  0  0.159711  0  0.925766  0  0  0.174495  0  0.981539  0  0  0.176359  0  0.980811  0  0  0.113422  0.172973  0  0.982422  0
H  H27  1  0.18607527  0.80873224  0.44594345  1  0  0.161045  0  0.924249  0  0  0.175742  0  0.980213  0  0  0.17764  0  0.979403  0  0  0.114151  0.174341  0  0.980826  0
H  H28  1  0.26285487  0.77160951  0.90044928  1  0  0.140549  0  0.954838  0  0  0.150761  0  1.01846  0  0  0.153017  0  1.018027  0  0  0.102171  0.149062  0  1.01885  0
H  H29  1  0.06508249  0.27165152  0.40039158  1  0  0.139278  0  0.954575  0  0  0.149416  0  1.018585  0  0  0.151689  0  1.018137  0  0  0.101594  0.147794  0  1.018818  0
H  H30  1  0.73714355  0.22838900  0.09955110  1  0  0.140578  0  0.95478  0  0  0.150773  0  1.018414  0  0  0.153012  0  1.018012  0  0  0.102175  0.149074  0  1.018805  0
H  H31  1  0.93491631  0.72834800  0.59960779  1  0  0.139317  0  0.954572  0  0  0.14942  0  1.018605  0  0  0.151692  0  1.018154  0  0  0.101574  0.147793  0  1.018834  0
H  H32  1  0.14560128  0.93904439  0.90749545  1  0  0.14325  0  0.931849  0  0  0.153117  0  0.997292  0  0  0.155835  0  0.995513  0  0  0.110416  0.151284  0  0.998365  0
H  H33  1  0.00815510  0.43906219  0.40742803  1  0  0.143274  0  0.930723  0  0  0.152727  0  0.996892  0  0  0.155438  0  0.995137  0  0  0.110539  0.150766  0  0.998204  0
H  H34  1  0.85439713  0.06095413  0.09250493  1  0  0.143192  0  0.931764  0  0  0.15309  0  0.997191  0  0  0.155803  0  0.99541  0  0  0.110394  0.151257  0  0.998266  0
H  H35  1  0.99184502  0.56093632  0.59257401  1  0  0.143358  0  0.930557  0  0  0.152741  0  0.996852  0  0  0.155452  0  0.995096  0  0  0.110557  0.150779  0  0.998162  0
C  C36  1  0.03867267  0.62398332  0.02764520  1  0  -0.157376  0  3.64448  0  0  -0.196704  0  3.908119  0  0  -0.19715  0  3.921654  0  0  -0.154938  -0.196304  0  3.898661  0
C  C37  1  0.30982227  0.12353565  0.52743444  1  0  -0.155828  0  3.638835  0  0  -0.194816  0  3.902108  0  0  -0.195149  0  3.915447  0  0  -0.155034  -0.194441  0  3.89296  0
C  C38  1  0.96132694  0.37601419  0.97235573  1  0  -0.157404  0  3.644628  0  0  -0.19667  0  3.907988  0  0  -0.197117  0  3.921522  0  0  -0.154922  -0.196273  0  3.898539  0
C  C39  1  0.69017798  0.87646188  0.47256360  1  0  -0.155908  0  3.638998  0  0  -0.194892  0  3.90226  0  0  -0.195241  0  3.91565  0  0  -0.155068  -0.194511  0  3.893098  0
C  C40  1  0.10761973  0.55553903  0.13318178  1  0  -0.15146  0  3.616797  0  0  -0.19177  0  3.87908  0  0  -0.191683  0  3.891649  0  0  -0.151559  -0.191772  0  3.870502  0
C  C41  1  0.20360116  0.05525372  0.63302690  1  0  -0.154173  0  3.618204  0  0  -0.194212  0  3.879982  0  0  -0.194189  0  3.892577  0  0  -0.151966  -0.194234  0  3.871504  0
C  C42  1  0.89238146  0.44445848  0.86681869  1  0  -0.151509  0  3.616811  0  0  -0.191793  0  3.879069  0  0  -0.191713  0  3.891658  0  0  -0.151585  -0.191808  0  3.870485  0
C  C43  1  0.79640041  0.94474480  0.36697255  1  0  -0.154139  0  3.618241  0  0  -0.194193  0  3.880067  0  0  -0.19417  0  3.892658  0  0  -0.151963  -0.19421  0  3.871581  0
C  C44  1  0.32580172  0.68066782  0.10958078  1  0  -0.302747  0  3.596888  0  0  -0.341138  0  3.84604  0  0  -0.344687  0  3.853484  0  0  -0.157712  -0.338546  0  3.841116  0
C  C45  1  0.88373048  0.18088639  0.60956289  1  0  -0.303426  0  3.597014  0  0  -0.342506  0  3.846598  0  0  -0.346009  0  3.853954  0  0  -0.15801  -0.340043  0  3.841713  0
C  C46  1  0.67419633  0.31933170  0.89041935  1  0  -0.302694  0  3.596736  0  0  -0.341114  0  3.845991  0  0  -0.344646  0  3.853388  0  0  -0.157726  -0.33853  0  3.841072  0
C  C47  1  0.11627002  0.81911312  0.39043813  1  0  -0.303444  0  3.597095  0  0  -0.342489  0  3.846648  0  0  -0.345985  0  3.854018  0  0  -0.158009  -0.340031  0  3.841775  0
C  C48  1  0.19692399  0.80502287  0.06768609  1  0  0.537612  0  3.612429  0  0  0.52357  0  3.878775  0  0  0.543844  0  3.883092  0  0  0.165783  0.509303  0  3.876369  0
C  C49  1  0.93025003  0.30517499  0.56760257  1  0  0.532024  0  3.62063  0  0  0.519539  0  3.88515  0  0  0.539757  0  3.889496  0  0  0.16454  0.50535  0  3.882505  0
C  C50  1  0.80307639  0.19497666  0.93231281  1  0  0.537505  0  3.612425  0  0  0.523462  0  3.878802  0  0  0.543727  0  3.883127  0  0  0.165746  0.509194  0  3.876398  0
C  C51  1  0.06975242  0.69482353  0.43239824  1  0  0.532042  0  3.620503  0  0  0.519456  0  3.885193  0  0  0.539637  0  3.8896  0  0  0.164473  0.505273  0  3.882541  0
C  C52  1  0.16734422  0.83196171  0.95330217  1  0  -0.310435  0  3.607921  0  0  -0.347314  0  3.853395  0  0  -0.351174  0  3.860784  0  0  -0.161578  -0.344706  0  3.8485  0
C  C53  1  0.04744530  0.33198447  0.45324241  1  0  -0.305866  0  3.605397  0  0  -0.343207  0  3.851263  0  0  -0.347014  0  3.858597  0  0  -0.160306  -0.340529  0  3.846367  0
C  C54  1  0.83265339  0.16803881  0.04669663  1  0  -0.310311  0  3.607779  0  0  -0.347223  0  3.853332  0  0  -0.35106  0  3.860689  0  0  -0.161527  -0.344613  0  3.848434  0
C  C55  1  0.95255337  0.66801803  0.54675968  1  0  -0.305907  0  3.605368  0  0  -0.343254  0  3.851299  0  0  -0.347039  0  3.858627  0  0  -0.160313  -0.340571  0  3.846395  0
C  C56  1  0.36580376  0.45789163  0.68290828  1  0  0.60126  0  3.685799  0  0  0.530805  0  4.054928  0  0  0.55925  0  4.027369  0  0  0.28716  0.510893  0  4.074088  0
C  C57  1  0.49363355  0.95807705  0.18286621  1  0  0.597114  0  3.689988  0  0  0.529748  0  4.054462  0  0  0.557697  0  4.027586  0  0  0.286642  0.509507  0  4.074241  0
C  C58  1  0.63420234  0.54210788  0.31709271  1  0  0.601725  0  3.68515  0  0  0.530897  0  4.054968  0  0  0.559331  0  4.027432  0  0  0.287221  0.511031  0  4.074041  0
C  C59  1  0.50636193  0.04192746  0.81713448  1  0  0.596879  0  3.690553  0  0  0.529892  0  4.054274  0  0  0.557838  0  4.027393  0  0  0.286753  0.509681  0  4.074015  0
S  S60  1  0.98242128  0.80529670  0.97843223  1  0  0.092589  0  2.650597  0  0  0.115545  0  3.074069  0  0  0.111319  0  3.063746  0  0  0.003152  0.118371  0  3.081114  0
S  S61  1  0.23413078  0.30487121  0.47835177  1  0  0.09173  0  2.645323  0  0  0.113628  0  3.069448  0  0  0.109361  0  3.059068  0  0  0.002737  0.116561  0  3.076525  0
S  S62  1  0.01757714  0.19470182  0.02156815  1  0  0.092562  0  2.650856  0  0  0.115541  0  3.074173  0  0  0.11131  0  3.063838  0  0  0.003161  0.118369  0  3.081224  0
S  S63  1  0.76587041  0.69512631  0.52164869  1  0  0.091504  0  2.645768  0  0  0.113663  0  3.069511  0  0  0.109397  0  3.059126  0  0  0.002758  0.1166  0  3.076584  0
S  S64  1  0.31781095  0.53098538  0.09834404  1  0  0.071053  0  2.582518  0  0  0.102273  0  2.991963  0  0  0.094972  0  2.986002  0  0  0.00742  0.107278  0  2.996237  0
S  S65  1  0.05251048  0.03100349  0.59833204  1  0  0.072081  0  2.58164  0  0  0.103576  0  2.991042  0  0  0.096261  0  2.98511  0  0  0.00773  0.108796  0  2.99493  0
S  S66  1  0.68219025  0.46901414  0.90165516  1  0  0.071093  0  2.582501  0  0  0.102283  0  2.991956  0  0  0.094986  0  2.985991  0  0  0.007422  0.10729  0  2.996235  0
S  S67  1  0.94748801  0.96899702  0.40166813  1  0  0.07206  0  2.58167  0  0  0.103577  0  2.991065  0  0  0.096266  0  2.985131  0  0  0.00773  0.108795  0  2.994953  0
S  S68  1  0.27854726  0.63185419  0.69354240  1  0  1.093363  0  5.821331  0  0  0.991076  0  6.354943  0  0  1.034623  0  6.335186  0  0  0.47313  0.961295  0  6.367385  0
S  S69  1  0.39640168  0.13203481  0.19338477  1  0  1.093811  0  5.823638  0  0  0.99091  0  6.3566  0  0  1.03433  0  6.337162  0  0  0.47261  0.960887  0  6.369415  0
S  S70  1  0.72145984  0.36814233  0.30645722  1  0  1.093574  0  5.821244  0  0  0.99119  0  6.355065  0  0  1.034742  0  6.33531  0  0  0.47321  0.961394  0  6.367503  0
S  S71  1  0.60359299  0.86797171  0.80661435  1  0  1.093824  0  5.82368  0  0  0.99083  0  6.356681  0  0  1.034251  0  6.337248  0  0  0.4726  0.960793  0  6.36949  0
O  O72  1  0.11593311  0.88114548  0.12664561  1  0  -0.47157  0  1.944266  0  0  -0.429535  0  2.16834  0  0  -0.449288  0  2.166083  0  0  -0.24866  -0.416375  0  2.170115  0
O  O73  1  0.87603135  0.38140948  0.62646431  1  0  -0.469323  0  1.946779  0  0  -0.427908  0  2.170255  0  0  -0.447511  0  2.167814  0  0  -0.248291  -0.414705  0  2.171884  0
O  O74  1  0.88406846  0.11885305  0.87335383  1  0  -0.471505  0  1.944245  0  0  -0.429478  0  2.168314  0  0  -0.44923  0  2.166062  0  0  -0.248651  -0.416319  0  2.170092  0
O  O75  1  0.12397392  0.61858802  0.37353765  1  0  -0.469241  0  1.946728  0  0  -0.427813  0  2.170267  0  0  -0.447405  0  2.167852  0  0  -0.248211  -0.414608  0  2.171892  0
O  O76  1  0.11005394  0.64746198  0.73376597  1  0  -0.603647  0  2.053359  0  0  -0.551806  0  2.322981  0  0  -0.572827  0  2.310459  0  0  -0.336303  -0.536953  0  2.33104  0
O  O77  1  0.50916572  0.14742390  0.23360705  1  0  -0.603356  0  2.052997  0  0  -0.551068  0  2.322211  0  0  -0.572037  0  2.309575  0  0  -0.335865  -0.536198  0  2.330421  0
O  O78  1  0.88994813  0.35253753  0.26623459  1  0  -0.603684  0  2.053403  0  0  -0.551827  0  2.323149  0  0  -0.572848  0  2.310626  0  0  -0.336298  -0.536968  0  2.331213  0
O  O79  1  0.49082563  0.85258263  0.76638981  1  0  -0.603272  0  2.052754  0  0  -0.55103  0  2.32208  0  0  -0.572003  0  2.309448  0  0  -0.335837  -0.53617  0  2.330296  0
O  O80  1  0.32850410  0.71652707  0.57884876  1  0  -0.580453  0  1.966172  0  0  -0.552958  0  2.214044  0  0  -0.570505  0  2.200945  0  0  -0.334307  -0.540555  0  2.222351  0
O  O81  1  0.37665111  0.21669085  0.07864660  1  0  -0.581035  0  1.966222  0  0  -0.553047  0  2.213546  0  0  -0.570725  0  2.200739  0  0  -0.334768  -0.540691  0  2.222276  0
O  O82  1  0.67150042  0.28347244  0.42115269  1  0  -0.580607  0  1.966167  0  0  -0.552996  0  2.214001  0  0  -0.570553  0  2.200915  0  0  -0.334326  -0.540592  0  2.22231  0
O  O83  1  0.62334565  0.78331369  0.92134830  1  0  -0.580933  0  1.966054  0  0  -0.55308  0  2.213658  0  0  -0.570754  0  2.200845  0  0  -0.334814  -0.540712  0  2.222368  0
O  O84  1  0.34552319  0.62399514  0.78143811  1  0  -0.608979  0  2.082622  0  0  -0.560978  0  2.369556  0  0  -0.581326  0  2.35403  0  0  -0.34302  -0.54659  0  2.379594  0
O  O85  1  0.24920349  0.12442132  0.28122637  1  0  -0.609388  0  2.084023  0  0  -0.560832  0  2.371046  0  0  -0.581183  0  2.355539  0  0  -0.341991  -0.546415  0  2.381221  0
O  O86  1  0.65447712  0.37600736  0.21856458  1  0  -0.608937  0  2.082473  0  0  -0.561043  0  2.3697  0  0  -0.581379  0  2.35414  0  0  -0.343077  -0.546655  0  2.379745  0
O  O87  1  0.75079071  0.87559022  0.71876782  1  0  -0.60933  0  2.084009  0  0  -0.560791  0  2.371068  0  0  -0.581135  0  2.355558  0  0  -0.34197  -0.546374  0  2.381254  0
F  F88  1  0.32813375  0.37017535  0.78764755  1  0  -0.226812  0  1.194824  0  0  -0.183378  0  1.355992  0  0  -0.192269  0  1.339813  0  0  -0.095436  -0.176784  0  1.367138  0
F  F89  1  0.51427899  0.87040179  0.28760325  1  0  -0.226936  0  1.196429  0  0  -0.182811  0  1.356334  0  0  -0.191871  0  1.340293  0  0  -0.09536  -0.176336  0  1.367548  0
F  F90  1  0.67186851  0.62982615  0.21235493  1  0  -0.227455  0  1.194879  0  0  -0.183427  0  1.35602  0  0  -0.19232  0  1.339843  0  0  -0.095451  -0.176844  0  1.367145  0
F  F91  1  0.48570799  0.12960469  0.71240140  1  0  -0.226892  0  1.196577  0  0  -0.18283  0  1.356303  0  0  -0.191893  0  1.340258  0  0  -0.095436  -0.176364  0  1.367509  0
F  F92  1  0.31012372  0.44600635  0.60798989  1  0  -0.226568  0  1.232776  0  0  -0.191128  0  1.409776  0  0  -0.200899  0  1.394697  0  0  -0.093986  -0.183732  0  1.41988  0
F  F93  1  0.63618766  0.94610744  0.10788312  1  0  -0.22147  0  1.228287  0  0  -0.191445  0  1.408951  0  0  -0.201474  0  1.39421  0  0  -0.094723  -0.184222  0  1.419292  0
F  F94  1  0.68988126  0.55399616  0.39201034  1  0  -0.226271  0  1.232543  0  0  -0.191143  0  1.409858  0  0  -0.200914  0  1.394781  0  0  -0.093996  -0.18376  0  1.419942  0
F  F95  1  0.36381051  0.05389703  0.89212272  1  0  -0.221525  0  1.228637  0  0  -0.191443  0  1.408907  0  0  -0.201474  0  1.394164  0  0  -0.094692  -0.184226  0  1.419237  0
F  F96  1  0.52476953  0.42315172  0.64724674  1  0  -0.225997  0  1.218418  0  0  -0.180752  0  1.388528  0  0  -0.193488  0  1.375674  0  0  -0.088933  -0.173565  0  1.399343  0
F  F97  1  0.40496623  0.92341574  0.14729416  1  0  -0.225264  0  1.218899  0  0  -0.181436  0  1.389211  0  0  -0.192347  0  1.374696  0  0  -0.08798  -0.172496  0  1.398382  0
F  F98  1  0.47523776  0.57684679  0.35275480  1  0  -0.225996  0  1.218126  0  0  -0.180838  0  1.388532  0  0  -0.19356  0  1.375668  0  0  -0.089004  -0.173661  0  1.399332  0
F  F99  1  0.59503587  0.07658978  0.85270258  1  0  -0.225328  0  1.219051  0  0  -0.181524  0  1.389098  0  0  -0.192427  0  1.374576  0  0  -0.088031  -0.172589  0  1.398263  0
