# generated using pymatgen
data_NaH10C10SNO4
_symmetry_space_group_name_H-M   'P 1'
_cell_length_a   6.51926840
_cell_length_b   10.35978112
_cell_length_c   16.66319395
_cell_angle_alpha   97.44585801
_cell_angle_beta   90.00020024
_cell_angle_gamma   90.00008330
_symmetry_Int_Tables_number   1
_chemical_formula_structural   NaH10C10SNO4
_chemical_formula_sum   'Na4 H40 C40 S4 N4 O16'
_cell_volume   1115.91236047
_cell_formula_units_Z   4
loop_
 _symmetry_equiv_pos_site_id
 _symmetry_equiv_pos_as_xyz
  1  'x, y, z'
loop_
 _atom_site_type_symbol
 _atom_site_label
 _atom_site_symmetry_multiplicity
 _atom_site_fract_x
 _atom_site_fract_y
 _atom_site_fract_z
 _atom_site_occupancy
 _atom_site_hle17_bader_spin_density
 _atom_site_hle17_ddec_charge
 _atom_site_hle17_ddec_spin_density
 _atom_site_hle17_ddec_sum_bond_order
 _atom_site_hle17_magmom
 _atom_site_hse06_10hf_bader_spin_density
 _atom_site_hse06_10hf_ddec_charge
 _atom_site_hse06_10hf_ddec_spin_density
 _atom_site_hse06_10hf_ddec_sum_bond_order
 _atom_site_hse06_10hf_magmom
 _atom_site_hse06_bader_spin_density
 _atom_site_hse06_ddec_charge
 _atom_site_hse06_ddec_spin_density
 _atom_site_hse06_ddec_sum_bond_order
 _atom_site_hse06_magmom
 _atom_site_pbe_bader_spin_density
 _atom_site_pbe_cm5_charge
 _atom_site_pbe_ddec_charge
 _atom_site_pbe_ddec_spin_density
 _atom_site_pbe_ddec_sum_bond_order
 _atom_site_pbe_magmom
Na  Na0  1  0.29210713  0.10014041  0.47467813  1  0  0.907556  0  0.378406  0  0  0.870926  0  0.522773  0  0  0.879892  0  0.502219  0  0  0.707287  0.864282  0  0.537534  0
Na  Na1  1  0.79210860  0.39985980  0.52532150  1  0  0.907562  0  0.378398  0  0  0.870917  0  0.522789  0  0  0.879886  0  0.502232  0  0  0.707283  0.864272  0  0.537548  0
Na  Na2  1  0.70788809  0.89985828  0.52532089  1  0  0.907557  0  0.378395  0  0  0.870915  0  0.522773  0  0  0.879885  0  0.502216  0  0  0.707281  0.864268  0  0.537535  0
Na  Na3  1  0.20788661  0.60013985  0.47467940  1  0  0.907544  0  0.378423  0  0  0.870918  0  0.522797  0  0  0.879888  0  0.502247  0  0  0.70731  0.864279  0  0.537538  0
H  H4  1  0.77474684  0.16141915  0.38499659  1  0  0.329768  0  0.914519  0  0  0.318871  0  0.964656  0  0  0.326238  0  0.958597  0  0  0.313534  0.313658  0  0.968905  0
H  H5  1  0.27474874  0.33858007  0.61500413  1  0  0.329753  0  0.914579  0  0  0.318845  0  0.964727  0  0  0.326213  0  0.958667  0  0  0.313548  0.313632  0  0.968973  0
H  H6  1  0.22525298  0.83858245  0.61500567  1  0  0.3298  0  0.914522  0  0  0.3189  0  0.964661  0  0  0.326268  0  0.958602  0  0  0.313612  0.313688  0  0.968902  0
H  H7  1  0.72524801  0.66141375  0.38499509  1  0  0.329847  0  0.914469  0  0  0.318941  0  0.964633  0  0  0.32631  0  0.958568  0  0  0.3136  0.313732  0  0.968863  0
H  H8  1  0.94266405  0.08904063  0.31430802  1  0  0.325886  0  0.898828  0  0  0.311482  0  0.960396  0  0  0.317341  0  0.956453  0  0  0.304284  0.307298  0  0.963291  0
H  H9  1  0.44266522  0.41096074  0.68569251  1  0  0.325888  0  0.898786  0  0  0.311482  0  0.960349  0  0  0.317341  0  0.956407  0  0  0.304288  0.307298  0  0.963243  0
H  H10  1  0.05733270  0.91096291  0.68569560  1  0  0.325865  0  0.898796  0  0  0.311457  0  0.960384  0  0  0.317317  0  0.956442  0  0  0.304281  0.307272  0  0.963279  0
H  H11  1  0.55733153  0.58903309  0.31430311  1  0  0.325846  0  0.898791  0  0  0.311437  0  0.960396  0  0  0.317297  0  0.956455  0  0  0.304254  0.307252  0  0.963292  0
H  H12  1  0.93430364  0.11141081  0.18002193  1  0  0.101844  0  0.983673  0  0  0.111665  0  1.046258  0  0  0.113393  0  1.048371  0  0  0.101021  0.110302  0  1.045187  0
H  H13  1  0.43430751  0.38859250  0.81997815  1  0  0.101805  0  0.983663  0  0  0.111635  0  1.046247  0  0  0.113362  0  1.048363  0  0  0.101003  0.110272  0  1.045175  0
H  H14  1  0.06569618  0.88858592  0.81998173  1  0  0.101882  0  0.983654  0  0  0.111713  0  1.046224  0  0  0.113441  0  1.048339  0  0  0.101009  0.11035  0  1.045154  0
H  H15  1  0.56569692  0.61140328  0.18001884  1  0  0.101808  0  0.983678  0  0  0.111637  0  1.046263  0  0  0.113363  0  1.048377  0  0  0.100983  0.110274  0  1.045191  0
H  H16  1  0.78893572  0.21746369  0.06809552  1  0  0.086513  0  0.975065  0  0  0.098252  0  1.038149  0  0  0.100411  0  1.037049  0  0  0.099473  0.096703  0  1.038981  0
H  H17  1  0.28892961  0.28254430  0.93190654  1  0  0.086502  0  0.975061  0  0  0.098218  0  1.038169  0  0  0.100374  0  1.037074  0  0  0.099435  0.09667  0  1.038998  0
H  H18  1  0.21107944  0.78253499  0.93190590  1  0  0.086494  0  0.97517  0  0  0.09821  0  1.03827  0  0  0.100367  0  1.037172  0  0  0.09944  0.096663  0  1.0391  0
H  H19  1  0.71107174  0.71746023  0.06809416  1  0  0.08653  0  0.975074  0  0  0.098251  0  1.03817  0  0  0.100407  0  1.037074  0  0  0.099473  0.096704  0  1.038998  0
H  H20  1  0.53548542  0.35355590  0.01614474  1  0  0.085419  0  0.965808  0  0  0.097548  0  1.027289  0  0  0.099972  0  1.02652  0  0  0.098799  0.095825  0  1.027882  0
H  H21  1  0.03547333  0.14644985  0.98385500  1  0  0.085424  0  0.965795  0  0  0.097454  0  1.027385  0  0  0.099877  0  1.026617  0  0  0.0988  0.095734  0  1.027971  0
H  H22  1  0.46453587  0.64644182  0.98385480  1  0  0.085492  0  0.965748  0  0  0.097525  0  1.027344  0  0  0.099949  0  1.026577  0  0  0.098836  0.095803  0  1.027931  0
H  H23  1  0.96451882  0.85355760  0.01614534  1  0  0.085478  0  0.965693  0  0  0.097528  0  1.027268  0  0  0.099953  0  1.026499  0  0  0.098806  0.095806  0  1.027857  0
H  H24  1  0.22623779  0.49680284  0.03535580  1  0  0.086626  0  0.95478  0  0  0.099158  0  1.012329  0  0  0.101952  0  1.011471  0  0  0.097829  0.097169  0  1.013003  0
H  H25  1  0.72622850  0.00320216  0.96464353  1  0  0.086512  0  0.954777  0  0  0.09912  0  1.012245  0  0  0.101913  0  1.011387  0  0  0.097817  0.097132  0  1.012918  0
H  H26  1  0.77378197  0.50319488  0.96464134  1  0  0.086656  0  0.954714  0  0  0.099222  0  1.012226  0  0  0.102016  0  1.011368  0  0  0.097837  0.097232  0  1.012901  0
H  H27  1  0.27376365  0.99680917  0.03536013  1  0  0.08656  0  0.954746  0  0  0.099116  0  1.012275  0  0  0.101909  0  1.011419  0  0  0.097778  0.097129  0  1.012947  0
H  H28  1  0.07168278  0.54454030  0.17330646  1  0  0.086575  0  0.979094  0  0  0.095934  0  1.041905  0  0  0.097516  0  1.043108  0  0  0.094839  0.094716  0  1.041256  0
H  H29  1  0.57167178  0.95546352  0.82669172  1  0  0.086593  0  0.979156  0  0  0.095932  0  1.04198  0  0  0.097513  0  1.043188  0  0  0.094836  0.094717  0  1.04133  0
H  H30  1  0.92833698  0.45546328  0.82668876  1  0  0.086543  0  0.979242  0  0  0.09597  0  1.041976  0  0  0.097548  0  1.043189  0  0  0.094872  0.094753  0  1.041327  0
H  H31  1  0.42831730  0.04454294  0.17331154  1  0  0.086629  0  0.979221  0  0  0.095974  0  1.042033  0  0  0.097554  0  1.043241  0  0  0.094868  0.094757  0  1.041385  0
H  H32  1  0.21678690  0.45331634  0.28806076  1  0  0.092754  0  0.998523  0  0  0.101044  0  1.064044  0  0  0.105332  0  1.060729  0  0  0.101971  0.09788  0  1.066626  0
H  H33  1  0.71678309  0.04668574  0.71193832  1  0  0.092813  0  0.998454  0  0  0.101047  0  1.064033  0  0  0.105336  0  1.060716  0  0  0.101992  0.097885  0  1.066616  0
H  H34  1  0.78322059  0.54668723  0.71193626  1  0  0.092857  0  0.998401  0  0  0.101055  0  1.064019  0  0  0.105344  0  1.060704  0  0  0.102004  0.097893  0  1.066604  0
H  H35  1  0.28321519  0.95331391  0.28806378  1  0  0.092767  0  0.998458  0  0  0.101011  0  1.064038  0  0  0.105298  0  1.060723  0  0  0.101961  0.097852  0  1.066619  0
H  H36  1  0.36860868  0.01719515  0.63579073  1  0  0.410137  0  0.887299  0  0  0.380644  0  0.954228  0  0  0.389399  0  0.941605  0  0  0.293373  0.37436  0  0.963335  0
H  H37  1  0.86861042  0.48280516  0.36420901  1  0  0.41002  0  0.887434  0  0  0.380538  0  0.954364  0  0  0.389293  0  0.941742  0  0  0.293336  0.374254  0  0.96347  0
H  H38  1  0.63138654  0.98280354  0.36421009  1  0  0.410129  0  0.88731  0  0  0.380612  0  0.954268  0  0  0.389366  0  0.941646  0  0  0.29338  0.374329  0  0.963373  0
H  H39  1  0.13138940  0.51719742  0.63579033  1  0  0.410109  0  0.887334  0  0  0.38059  0  0.954298  0  0  0.389345  0  0.941676  0  0  0.293369  0.374307  0  0.963403  0
H  H40  1  0.53176813  0.12584427  0.61644880  1  0  0.42529  0  0.878663  0  0  0.398304  0  0.937157  0  0  0.407773  0  0.923199  0  0  0.294679  0.391613  0  0.947001  0
H  H41  1  0.03177108  0.37415466  0.38355038  1  0  0.425327  0  0.878608  0  0  0.398346  0  0.93709  0  0  0.407815  0  0.923133  0  0  0.294721  0.391654  0  0.946937  0
H  H42  1  0.46822709  0.87415151  0.38354879  1  0  0.42531  0  0.87862  0  0  0.398337  0  0.937088  0  0  0.407806  0  0.92313  0  0  0.294712  0.391648  0  0.946932  0
H  H43  1  0.96822567  0.62584888  0.61645264  1  0  0.425312  0  0.878606  0  0  0.398339  0  0.937074  0  0  0.407808  0  0.923116  0  0  0.294718  0.391649  0  0.946918  0
C  C44  1  0.55056800  0.28317753  0.28461349  1  0  -0.31781  0  3.642841  0  0  -0.300836  0  3.900678  0  0  -0.314548  0  3.921212  0  0  -0.040366  -0.291754  0  3.887067  0
C  C45  1  0.05056592  0.21682336  0.71538767  1  0  -0.317654  0  3.643058  0  0  -0.300638  0  3.90081  0  0  -0.314355  0  3.921348  0  0  -0.040274  -0.291559  0  3.887199  0
C  C46  1  0.44943028  0.71681823  0.71538709  1  0  -0.317589  0  3.643036  0  0  -0.300682  0  3.90093  0  0  -0.314401  0  3.921469  0  0  -0.040258  -0.291599  0  3.887317  0
C  C47  1  0.94943390  0.78317825  0.28461219  1  0  -0.317671  0  3.642966  0  0  -0.300629  0  3.900713  0  0  -0.314353  0  3.921253  0  0  -0.040316  -0.29155  0  3.8871  0
C  C48  1  0.71659873  0.19677300  0.26974658  1  0  0.329325  0  3.824201  0  0  0.312111  0  4.080176  0  0  0.326729  0  4.097263  0  0  0.107825  0.302412  0  4.068156  0
C  C49  1  0.21659852  0.30322907  0.73025250  1  0  0.329253  0  3.824254  0  0  0.312045  0  4.080197  0  0  0.326666  0  4.097286  0  0  0.107827  0.302348  0  4.068176  0
C  C50  1  0.28339955  0.80322373  0.73025528  1  0  0.329361  0  3.824375  0  0  0.312205  0  4.080295  0  0  0.326826  0  4.097385  0  0  0.107917  0.302508  0  4.068271  0
C  C51  1  0.78339977  0.69676865  0.26974464  1  0  0.329242  0  3.824431  0  0  0.31204  0  4.080382  0  0  0.326662  0  4.097473  0  0  0.107897  0.302342  0  4.068357  0
C  C52  1  0.80211715  0.17592793  0.19010517  1  0  -0.166641  0  3.726895  0  0  -0.181265  0  3.977978  0  0  -0.187731  0  3.997695  0  0  -0.096948  -0.177055  0  3.964787  0
C  C53  1  0.30211157  0.32407327  0.80989515  1  0  -0.166611  0  3.726935  0  0  -0.181264  0  3.97802  0  0  -0.187729  0  3.997736  0  0  -0.096986  -0.177056  0  3.964831  0
C  C54  1  0.19788728  0.82406783  0.80989781  1  0  -0.166755  0  3.727129  0  0  -0.181402  0  3.97819  0  0  -0.187869  0  3.997909  0  0  -0.096949  -0.177193  0  3.965002  0
C  C55  1  0.69788672  0.67592738  0.19010043  1  0  -0.166544  0  3.727085  0  0  -0.181183  0  3.978155  0  0  -0.187647  0  3.997874  0  0  -0.096901  -0.176975  0  3.964964  0
C  C56  1  0.72146371  0.23450697  0.12837373  1  0  -0.080145  0  3.776451  0  0  -0.101603  0  4.022359  0  0  -0.098975  0  4.040429  0  0  -0.084754  -0.103294  0  4.010067  0
C  C57  1  0.22145702  0.26550094  0.87162703  1  0  -0.080069  0  3.776426  0  0  -0.101484  0  4.022336  0  0  -0.098857  0  4.040406  0  0  -0.084603  -0.103175  0  4.010044  0
C  C58  1  0.27854531  0.76549073  0.87162881  1  0  -0.079968  0  3.7766  0  0  -0.101371  0  4.022486  0  0  -0.098744  0  4.040556  0  0  -0.084616  -0.103063  0  4.010193  0
C  C59  1  0.77853820  0.73450456  0.12837315  1  0  -0.080182  0  3.776703  0  0  -0.101618  0  4.022622  0  0  -0.098994  0  4.040695  0  0  -0.084727  -0.103311  0  4.010332  0
C  C60  1  0.54805791  0.31779075  0.14053095  1  0  0.034567  0  3.81115  0  0  0.051902  0  4.039177  0  0  0.04806  0  4.06502  0  0  -0.016492  0.054322  0  4.021763  0
C  C61  1  0.04805244  0.18221599  0.85946889  1  0  0.034451  0  3.811273  0  0  0.051734  0  4.039375  0  0  0.047894  0  4.065217  0  0  -0.016547  0.054153  0  4.021963  0
C  C62  1  0.45194958  0.68220794  0.85946867  1  0  0.034353  0  3.811229  0  0  0.051622  0  4.039332  0  0  0.047781  0  4.065174  0  0  -0.016595  0.054041  0  4.021918  0
C  C63  1  0.95194124  0.81778951  0.14053249  1  0  0.034598  0  3.811186  0  0  0.051937  0  4.039213  0  0  0.048096  0  4.065055  0  0  -0.016438  0.054357  0  4.021799  0
C  C64  1  0.46234101  0.37448461  0.07533290  1  0  -0.121409  0  3.779328  0  0  -0.139359  0  4.02709  0  0  -0.140751  0  4.049204  0  0  -0.094201  -0.138226  0  4.011969  0
C  C65  1  0.96233624  0.12551971  0.92466610  1  0  -0.121278  0  3.779234  0  0  -0.139135  0  4.027034  0  0  -0.140523  0  4.049144  0  0  -0.094143  -0.138002  0  4.011911  0
C  C66  1  0.53767109  0.62551214  0.92466356  1  0  -0.121364  0  3.779278  0  0  -0.139217  0  4.027074  0  0  -0.140604  0  4.049184  0  0  -0.094228  -0.138084  0  4.011952  0
C  C67  1  0.03766051  0.87448481  0.07533580  1  0  -0.121335  0  3.779314  0  0  -0.139216  0  4.027077  0  0  -0.140606  0  4.04919  0  0  -0.094171  -0.138083  0  4.011955  0
C  C68  1  0.29203676  0.45420373  0.08607333  1  0  -0.097161  0  3.82001  0  0  -0.11285  0  4.072817  0  0  -0.116316  0  4.094371  0  0  -0.104939  -0.110404  0  4.058046  0
C  C69  1  0.79202711  0.04580524  0.91392702  1  0  -0.097044  0  3.819883  0  0  -0.112791  0  4.072664  0  0  -0.116258  0  4.094218  0  0  -0.104964  -0.110344  0  4.057893  0
C  C70  1  0.70797686  0.54579787  0.91392593  1  0  -0.09719  0  3.819721  0  0  -0.11291  0  4.072546  0  0  -0.116377  0  4.094098  0  0  -0.104951  -0.110462  0  4.057773  0
C  C71  1  0.20796197  0.95420414  0.08607708  1  0  -0.097159  0  3.820016  0  0  -0.112857  0  4.072801  0  0  -0.116325  0  4.094357  0  0  -0.104906  -0.110412  0  4.058031  0
C  C72  1  0.20487092  0.48074718  0.16388688  1  0  -0.055644  0  3.775497  0  0  -0.06723  0  4.024336  0  0  -0.066771  0  4.044403  0  0  -0.094089  -0.067385  0  4.010701  0
C  C73  1  0.70485897  0.01925877  0.83611250  1  0  -0.055851  0  3.775397  0  0  -0.067431  0  4.024272  0  0  -0.066973  0  4.044339  0  0  -0.094141  -0.067585  0  4.010639  0
C  C74  1  0.79514730  0.51925541  0.83610886  1  0  -0.055739  0  3.775292  0  0  -0.067393  0  4.024162  0  0  -0.066933  0  4.044226  0  0  -0.094131  -0.067547  0  4.010528  0
C  C75  1  0.29513318  0.98074769  0.16389316  1  0  -0.055864  0  3.775556  0  0  -0.067451  0  4.024422  0  0  -0.066992  0  4.044487  0  0  -0.094194  -0.067605  0  4.010791  0
C  C76  1  0.28687576  0.42802566  0.22899340  1  0  -0.130839  0  3.726759  0  0  -0.151791  0  3.977774  0  0  -0.154883  0  3.995251  0  0  -0.100429  -0.149849  0  3.966109  0
C  C77  1  0.78687254  0.07197844  0.77100534  1  0  -0.130759  0  3.726536  0  0  -0.151647  0  3.977542  0  0  -0.154735  0  3.995017  0  0  -0.100432  -0.149705  0  3.96588  0
C  C78  1  0.71313173  0.57197790  0.77100422  1  0  -0.130821  0  3.726515  0  0  -0.151689  0  3.977562  0  0  -0.15478  0  3.995039  0  0  -0.100443  -0.149747  0  3.965901  0
C  C79  1  0.21312267  0.92802315  0.22899752  1  0  -0.130742  0  3.726584  0  0  -0.151639  0  3.977616  0  0  -0.154726  0  3.995091  0  0  -0.100391  -0.149699  0  3.965957  0
C  C80  1  0.46016807  0.34371156  0.22004944  1  0  0.077212  0  3.761371  0  0  0.083048  0  3.993378  0  0  0.087014  0  4.017621  0  0  -0.004451  0.080577  0  3.977021  0
C  C81  1  0.96016514  0.15629178  0.77995007  1  0  0.077081  0  3.761869  0  0  0.082902  0  3.993895  0  0  0.086865  0  4.018144  0  0  -0.004543  0.080433  0  3.977537  0
C  C82  1  0.53983789  0.65628810  0.77994846  1  0  0.077108  0  3.761737  0  0  0.082979  0  3.993742  0  0  0.086943  0  4.017991  0  0  -0.004546  0.080511  0  3.977383  0
C  C83  1  0.03983162  0.84371080  0.22005227  1  0  0.077124  0  3.761723  0  0  0.082917  0  3.993744  0  0  0.086881  0  4.01799  0  0  -0.004551  0.080447  0  3.977388  0
S  S84  1  0.43737173  0.31630317  0.38224496  1  0  1.323674  0  5.656341  0  0  1.231588  0  6.172464  0  0  1.279193  0  6.147451  0  0  0.494915  1.198751  0  6.188899  0
S  S85  1  0.93737200  0.18369624  0.61775600  1  0  1.323804  0  5.656369  0  0  1.2317  0  6.172476  0  0  1.27931  0  6.147453  0  0  0.494945  1.198862  0  6.188909  0
S  S86  1  0.56262042  0.68369455  0.61775458  1  0  1.32361  0  5.6564  0  0  1.231508  0  6.172524  0  0  1.279117  0  6.147504  0  0  0.494843  1.198668  0  6.188953  0
S  S87  1  0.06262475  0.81630146  0.38224654  1  0  1.323495  0  5.656693  0  0  1.231357  0  6.172844  0  0  1.278968  0  6.147821  0  0  0.494767  1.198521  0  6.189269  0
N  N88  1  0.79929530  0.12525330  0.32595308  1  0  -0.662895  0  3.135764  0  0  -0.620744  0  3.359019  0  0  -0.640502  0  3.357762  0  0  -0.588849  -0.606763  0  3.359756  0
N  N89  1  0.29929321  0.37474400  0.67404572  1  0  -0.662847  0  3.135862  0  0  -0.620678  0  3.359099  0  0  -0.640436  0  3.357843  0  0  -0.588866  -0.606696  0  3.359833  0
N  N90  1  0.20070605  0.87474246  0.67404810  1  0  -0.662989  0  3.135871  0  0  -0.620843  0  3.359105  0  0  -0.640602  0  3.357847  0  0  -0.58902  -0.606859  0  3.35984  0
N  N91  1  0.70071428  0.62525178  0.32594947  1  0  -0.662959  0  3.13602  0  0  -0.620835  0  3.359265  0  0  -0.640594  0  3.358007  0  0  -0.588969  -0.606852  0  3.360003  0
O  O92  1  0.23098344  0.25617169  0.37535952  1  0  -0.707057  0  1.957755  0  0  -0.653691  0  2.20286  0  0  -0.675106  0  2.189006  0  0  -0.371052  -0.638464  0  2.211891  0
O  O93  1  0.73098391  0.24382262  0.62463834  1  0  -0.707117  0  1.957695  0  0  -0.65377  0  2.202855  0  0  -0.675184  0  2.188992  0  0  -0.371107  -0.638546  0  2.211887  0
O  O94  1  0.76900871  0.74382117  0.62463722  1  0  -0.70707  0  1.957675  0  0  -0.653702  0  2.202811  0  0  -0.675114  0  2.188945  0  0  -0.371063  -0.638473  0  2.211846  0
O  O95  1  0.26901131  0.75617315  0.37536164  1  0  -0.707078  0  1.957746  0  0  -0.653718  0  2.202885  0  0  -0.67513  0  2.189021  0  0  -0.371122  -0.638491  0  2.211916  0
O  O96  1  0.44956546  0.05007689  0.59284370  1  0  -0.908686  0  1.815945  0  0  -0.869191  0  1.994317  0  0  -0.884333  0  1.963271  0  0  -0.694177  -0.858473  0  2.016287  0
O  O97  1  0.94957058  0.44992156  0.40715660  1  0  -0.908608  0  1.816015  0  0  -0.86912  0  1.994406  0  0  -0.884262  0  1.963362  0  0  -0.694199  -0.858405  0  2.01637  0
O  O98  1  0.55042823  0.94991887  0.40715509  1  0  -0.908694  0  1.815912  0  0  -0.869178  0  1.994334  0  0  -0.884319  0  1.963291  0  0  -0.69421  -0.858459  0  2.016299  0
O  O99  1  0.05042770  0.55008199  0.59284522  1  0  -0.90868  0  1.815917  0  0  -0.869165  0  1.994347  0  0  -0.884308  0  1.963304  0  0  -0.694206  -0.858445  0  2.016309  0
O  O100  1  0.43118572  0.45820864  0.40273137  1  0  -0.715847  0  1.995166  0  0  -0.67012  0  2.25705  0  0  -0.689051  0  2.240065  0  0  -0.40335  -0.656754  0  2.268398  0
O  O101  1  0.93118700  0.04178979  0.59726950  1  0  -0.715898  0  1.995215  0  0  -0.67015  0  2.257081  0  0  -0.689082  0  2.240092  0  0  -0.403324  -0.656784  0  2.268432  0
O  O102  1  0.56880337  0.54178713  0.59726621  1  0  -0.71589  0  1.995175  0  0  -0.670119  0  2.257051  0  0  -0.689039  0  2.240042  0  0  -0.403309  -0.656765  0  2.268431  0
O  O103  1  0.06880822  0.95820598  0.40273108  1  0  -0.715836  0  1.995285  0  0  -0.670091  0  2.257185  0  0  -0.689008  0  2.240174  0  0  -0.403286  -0.656733  0  2.268551  0
O  O104  1  0.56283999  0.25524060  0.44116713  1  0  -0.739026  0  1.976089  0  0  -0.693797  0  2.232228  0  0  -0.71125  0  2.213442  0  0  -0.41573  -0.681442  0  2.244744  0
O  O105  1  0.06283656  0.24475738  0.55883321  1  0  -0.739045  0  1.976129  0  0  -0.693814  0  2.232264  0  0  -0.711272  0  2.213484  0  0  -0.415717  -0.681458  0  2.24478  0
O  O106  1  0.43715369  0.74475808  0.55883429  1  0  -0.738945  0  1.976075  0  0  -0.693732  0  2.232223  0  0  -0.711189  0  2.213448  0  0  -0.415722  -0.681393  0  2.244784  0
O  O107  1  0.93715866  0.75523741  0.44116550  1  0  -0.738833  0  1.976242  0  0  -0.693581  0  2.232361  0  0  -0.711049  0  2.213603  0  0  -0.41558  -0.68124  0  2.244906  0
