# generated using pymatgen
data_Zn2H28C35I4N2O15
_symmetry_space_group_name_H-M   'P 1'
_cell_length_a   9.95077540
_cell_length_b   11.14091144
_cell_length_c   10.79960644
_cell_angle_alpha   95.36450255
_cell_angle_beta   90.97631429
_cell_angle_gamma   92.92776012
_symmetry_Int_Tables_number   1
_chemical_formula_structural   Zn2H28C35I4N2O15
_chemical_formula_sum   'Zn2 H28 C35 I4 N2 O15'
_cell_volume   1190.16571842
_cell_formula_units_Z   1
loop_
 _symmetry_equiv_pos_site_id
 _symmetry_equiv_pos_as_xyz
  1  'x, y, z'
loop_
 _atom_site_type_symbol
 _atom_site_label
 _atom_site_symmetry_multiplicity
 _atom_site_fract_x
 _atom_site_fract_y
 _atom_site_fract_z
 _atom_site_occupancy
 _atom_site_pbe_bader_charge
 _atom_site_pbe_bader_spin_density
 _atom_site_pbe_cm5_charge
 _atom_site_pbe_ddec_charge
 _atom_site_pbe_ddec_spin_density
 _atom_site_pbe_ddec_sum_bond_order
 _atom_site_pbe_magmom
Zn  Zn0  1  0.64504200  0.50076829  0.49981207  1  1.296368  0  0.680003  0.842736  0  2.334986  0
Zn  Zn1  1  0.35834862  0.48827937  0.49521514  1  1.301289  0  0.672655  0.864808  0  2.296826  0
H  H2  1  0.80389042  0.89875238  0.57830632  1  0.076751  0  0.093283  0.111336  0  1.041947  0
H  H3  1  0.69851539  0.92069865  0.70937501  1  0.104156  0  0.101293  0.143029  0  0.972547  0
H  H4  1  0.85745094  0.35064444  0.61524136  1  0.182901  0  0.119032  0.112222  0  1.041757  0
H  H5  1  0.90972307  0.66163169  0.27949333  1  0.098206  0  0.10901  0.142915  0  0.999451  0
H  H6  1  0.87790619  0.75464451  0.41959817  1  0.092806  0  0.103449  0.132855  0  1.001528  0
H  H7  1  0.16574767  0.70518828  0.33337624  1  0.176477  0  0.118806  0.144352  0  0.989493  0
H  H8  1  0.96682279  0.51003410  0.12796589  1  0.099565  0  0.110335  0.14056  0  1.016958  0
H  H9  1  0.12675179  0.37926390  0.00830472  1  0.049142  0  0.083059  0.081415  0  1.033491  0
H  H10  1  0.25385805  0.31397549  0.09903697  1  0.044917  0  0.083076  0.082493  0  1.043637  0
H  H11  1  0.11808230  0.38590178  0.17542588  1  0.055546  0  0.097116  0.105963  0  0.9855  0
H  H12  1  0.70698686  0.21956815  0.09048496  1  0.051016  0  0.080554  0.082515  0  1.034513  0
H  H13  1  0.58608241  0.27996904  0.19746662  1  0.065297  0  0.08848  0.087545  0  1.046078  0
H  H14  1  0.73004876  0.21382418  0.25620586  1  0.058073  0  0.105044  0.122878  0  0.971479  0
H  H15  1  0.88308235  0.84779616  0.97208114  1  0.073461  0  0.095598  0.095797  0  1.019279  0
H  H16  1  0.06075827  0.85933401  0.00850534  1  0.054381  0  0.100881  0.102453  0  0.999739  0
H  H17  1  0.94317580  0.82348107  0.12496519  1  0.05006  0  0.09137  0.090227  0  0.999323  0
H  H18  1  0.92575219  0.77451761  0.77211189  1  0.031694  0  0.081163  0.068133  0  1.061313  0
H  H19  1  0.80551981  0.70940626  0.65600277  1  0.07127  0  0.093918  0.102483  0  1.045776  0
H  H20  1  0.90403283  0.61382992  0.74260796  1  0.040601  0  0.091931  0.09232  0  1.026927  0
H  H21  1  0.24883108  0.73974000  0.92602777  1  0.024754  0  0.090498  0.08741  0  1.015861  0
H  H22  1  0.14806990  0.66993866  0.79844115  1  0.062768  0  0.091023  0.093636  0  1.046363  0
H  H23  1  0.32398752  0.70023303  0.77707042  1  0.082023  0  0.089251  0.099027  0  1.048822  0
H  H24  1  0.47345359  0.72738062  0.22691316  1  0.071396  0  0.098013  0.109554  0  1.010466  0
H  H25  1  0.45021112  0.85317397  0.13654090  1  0.048794  0  0.093937  0.094896  0  0.988607  0
H  H26  1  0.32109332  0.73417294  0.13849687  1  0.079033  0  0.106656  0.120867  0  1.002492  0
H  H27  1  0.98262288  0.05864184  0.61358745  1  0.0257  0  0.077268  0.073858  0  1.061813  0
H  H28  1  0.01443735  0.14353815  0.48323007  1  0.073967  0  0.085669  0.091602  0  1.049682  0
H  H29  1  0.93027446  0.99769772  0.45945899  1  0.04879  0  0.083247  0.082516  0  1.032531  0
C  C30  1  0.50733194  0.72794027  0.47085864  1  1.602368  0  0.214713  0.61258  0  4.161027  0
C  C31  1  0.62845105  0.49055948  0.06227914  1  0.01796  0  -0.018873  -0.048547  0  3.955204  0
C  C32  1  0.49953686  0.47549423  0.11991033  1  0.006458  0  -0.020568  -0.156586  0  3.918267  0
C  C33  1  0.38365104  0.50181002  0.05591386  1  0.466803  0  0.078927  0.132151  0  4.032901  0
C  C34  1  0.38903221  0.53846096  0.93239035  1  0.585823  0  0.087927  0.152273  0  4.018755  0
C  C35  1  0.51254339  0.55231595  0.87433855  1  -0.025293  0  -0.022368  -0.161125  0  3.88547  0
C  C36  1  0.59362727  0.94117603  0.53046964  1  0.019269  0  -0.004156  0.109257  0  3.917771  0
C  C37  1  0.50615665  0.86128590  0.45745714  1  0.005243  0  -0.024  -0.179742  0  3.93871  0
C  C38  1  0.41527840  0.91769536  0.38103198  1  0.56947  0  0.080147  0.195056  0  4.04602  0
C  C39  1  0.40511986  0.04489302  0.39165580  1  -0.244575  0  -0.053252  -0.082483  0  3.858581  0
C  C40  1  0.49157157  0.12394050  0.46986040  1  0.034699  0  -0.008796  -0.033304  0  3.929824  0
C  C41  1  0.49338474  0.47124496  0.25885741  1  1.589326  0  0.209429  0.58835  0  4.174962  0
C  C42  1  0.58832242  0.06597600  0.53313147  1  -0.013366  0  -0.023533  -0.05907  0  3.942748  0
C  C43  1  0.72024956  0.08647360  0.60433790  1  0.488519  0  0.08241  0.263546  0  3.703232  0
C  C44  1  0.71686846  0.94566844  0.61508113  1  -0.066759  0  -0.157743  -0.288399  0  3.823661  0
C  C45  1  0.07596731  0.57309564  0.46289336  1  0.498706  0  0.125536  0.157  0  3.899724  0
C  C46  1  0.06166316  0.41754606  0.58028811  1  0.325952  0  0.091967  0.131266  0  3.830879  0
C  C47  1  0.91952022  0.41438132  0.56738357  1  0.492962  0  0.065253  0.040108  0  3.816358  0
C  C48  1  0.93653245  0.56951237  0.44863555  1  0.590662  0  0.13813  0.19474  0  3.888413  0
C  C49  1  0.93636091  0.68064618  0.37889017  1  -0.028763  0  -0.146009  -0.259929  0  3.809732  0
C  C50  1  0.09374212  0.69127469  0.40658821  1  -0.142845  0  -0.076574  -0.058215  0  3.632753  0
C  C51  1  0.49013059  0.25979463  0.48684054  1  1.635624  0  0.213559  0.60404  0  4.174799  0
C  C52  1  0.52037926  0.53856856  0.73513738  1  1.597395  0  0.214516  0.606606  0  4.142699  0
C  C53  1  0.75543291  0.46146586  0.11391472  1  0.516756  0  0.078299  0.22548  0  4.034056  0
C  C54  1  0.87138891  0.52527929  0.08297035  1  -0.021196  0  -0.119546  -0.318702  0  4.043524  0
C  C55  1  0.86785877  0.61191468  0.99688032  1  0.486831  0  0.065059  0.158121  0  4.08992  0
C  C56  1  0.75270121  0.61775356  0.92256870  1  0.562626  0  0.061935  0.076418  0  4.051975  0
C  C57  1  0.63331209  0.55098871  0.95048015  1  -0.01801  0  -0.007676  0.009726  0  3.973871  0
C  C58  1  0.18565495  0.38830342  0.09636355  1  0.387137  0  -0.14477  -0.153914  0  3.891029  0
C  C59  1  0.69365035  0.26700350  0.18336336  1  0.374664  0  -0.145092  -0.162885  0  3.889784  0
C  C60  1  0.96470551  0.81134267  0.02495850  1  0.353354  0  -0.139914  -0.172978  0  3.914613  0
C  C61  1  0.85233532  0.69873409  0.74656885  1  0.399614  0  -0.156177  -0.189734  0  3.936879  0
C  C62  1  0.24787747  0.67455223  0.84296304  1  0.383126  0  -0.153917  -0.177705  0  3.90937  0
C  C63  1  0.40006929  0.78788909  0.19343722  1  0.362457  0  -0.142267  -0.167841  0  3.860709  0
C  C64  1  0.94311517  0.08057012  0.52323022  1  0.389173  0  -0.160924  -0.19621  0  3.986377  0
I  I65  1  0.70981060  0.19246444  0.79354824  1  -0.103871  0  -0.046865  -0.202529  0  1.250921  0
I  I66  1  0.14061240  0.31112808  0.70956996  1  0.281527  0  0.20254  0.117129  0  1.656769  0
I  I67  1  0.14551488  0.83196193  0.55513992  1  0.094666  0  0.138731  0.039704  0  1.561013  0
I  I68  1  0.25967452  0.11244461  0.27572972  1  0.129256  0  0.088298  0.004314  0  1.580054  0
N  N69  1  0.14454132  0.49497897  0.52266133  1  -1.177761  0  -0.284637  -0.216148  0  3.393006  0
N  N70  1  0.85471191  0.49024545  0.49885899  1  -1.207704  0  -0.281595  -0.170511  0  3.436639  0
O  O71  1  0.61743267  0.69063022  0.51096953  1  -1.16447  0  -0.310111  -0.531549  0  2.270808  0
O  O72  1  0.39812890  0.66481272  0.44710713  1  -1.167211  0  -0.310768  -0.549144  0  2.369577  0
O  O73  1  0.59924630  0.51446828  0.31872517  1  -1.156821  0  -0.313801  -0.544784  0  2.424562  0
O  O74  1  0.38554825  0.43444742  0.30828162  1  -1.153213  0  -0.311811  -0.539347  0  2.368009  0
O  O75  1  0.60335881  0.31512063  0.47610584  1  -1.155819  0  -0.301407  -0.522211  0  2.323712  0
O  O76  1  0.37936954  0.30626513  0.51362426  1  -1.167292  0  -0.317751  -0.562425  0  2.423596  0
O  O77  1  0.63032543  0.50473899  0.68738770  1  -1.150682  0  -0.31338  -0.540149  0  2.377548  0
O  O78  1  0.41277031  0.54908012  0.67188406  1  -1.171041  0  -0.316637  -0.559418  0  2.450562  0
O  O79  1  0.26037235  0.50275208  0.11070205  1  -1.069935  0  -0.209588  -0.180875  0  2.590942  0
O  O80  1  0.77459973  0.37800827  0.19730218  1  -1.066146  0  -0.200069  -0.173749  0  2.574406  0
O  O81  1  0.98176051  0.68615244  0.98586012  1  -1.063027  0  -0.204548  -0.172783  0  2.552018  0
O  O82  1  0.74510270  0.69770823  0.83398607  1  -1.083226  0  -0.200018  -0.157766  0  2.596429  0
O  O83  1  0.26700870  0.55567679  0.88044400  1  -1.070763  0  -0.196718  -0.165428  0  2.655509  0
O  O84  1  0.33249560  0.85106746  0.29500988  1  -1.095581  0  -0.208052  -0.201082  0  2.667015  0
O  O85  1  0.81907047  0.13958724  0.53589103  1  -1.054261  0  -0.199085  -0.163006  0  2.569011  0
