# generated using pymatgen
data_ZnH9C18Br3NO4
_symmetry_space_group_name_H-M   'P 1'
_cell_length_a   9.76037199
_cell_length_b   10.88932938
_cell_length_c   11.04284541
_cell_angle_alpha   94.47377497
_cell_angle_beta   86.80301060
_cell_angle_gamma   88.07543626
_symmetry_Int_Tables_number   1
_chemical_formula_structural   ZnH9C18Br3NO4
_chemical_formula_sum   'Zn2 H18 C36 Br6 N2 O8'
_cell_volume   1167.43102286
_cell_formula_units_Z   2
loop_
 _symmetry_equiv_pos_site_id
 _symmetry_equiv_pos_as_xyz
  1  'x, y, z'
loop_
 _atom_site_type_symbol
 _atom_site_label
 _atom_site_symmetry_multiplicity
 _atom_site_fract_x
 _atom_site_fract_y
 _atom_site_fract_z
 _atom_site_occupancy
 _atom_site_pbe_bader_charge
 _atom_site_pbe_bader_spin_density
 _atom_site_pbe_cm5_charge
 _atom_site_pbe_ddec_charge
 _atom_site_pbe_ddec_spin_density
 _atom_site_pbe_ddec_sum_bond_order
 _atom_site_pbe_magmom
Zn  Zn0  1  0.36479902  0.51517662  0.51782777  1  1.295667  0  0.672638  0.8477  0  2.381852  0
Zn  Zn1  1  0.65230879  0.50000019  0.50475998  1  1.285403  0  0.67769  0.82606  0  2.452625  0
H  H2  1  0.96254485  0.19032456  0.06833952  1  0.069979  0  0.087431  0.081043  0  1.040915  0
H  H3  1  0.56080519  0.21776796  0.25334053  1  0.073126  0  0.089671  0.087494  0  1.048952  0
H  H4  1  0.03606630  0.03405294  0.20653512  1  0.041415  0  0.088139  0.085268  0  1.02519  0
H  H5  1  0.66930451  0.85883020  0.38306796  1  0.089618  0  0.097976  0.102728  0  1.034487  0
H  H6  1  0.14362586  0.95673615  0.59566942  1  0.042555  0  0.091622  0.091951  0  1.02439  0
H  H7  1  0.97847717  0.90071324  0.76045496  1  0.080953  0  0.103974  0.104054  0  0.982391  0
H  H8  1  0.06321639  0.84041773  0.95701799  1  0.094579  0  0.099869  0.111066  0  1.006962  0
H  H9  1  0.72375931  0.28262092  0.09354144  1  0.068137  0  0.095609  0.095832  0  0.999997  0
H  H10  1  0.87367662  0.97131011  0.36964844  1  0.034095  0  0.087661  0.080715  0  1.038669  0
H  H11  1  0.35701116  0.15398714  0.63477487  1  0.092191  0  0.09426  0.099865  0  1.052144  0
H  H12  1  0.47987342  0.88934756  0.82176965  1  0.075357  0  0.105432  0.12447  0  0.984279  0
H  H13  1  0.68012320  0.59775333  0.87969939  1  0.138157  0  0.108813  0.130464  0  0.992686  0
H  H14  1  0.18323363  0.48059486  0.15369372  1  0.142181  0  0.102711  0.113406  0  0.983338  0
H  H15  1  0.86385841  0.67181818  0.42724328  1  0.165698  0  0.126565  0.121999  0  1.009118  0
H  H16  1  0.16541366  0.23123098  0.52580077  1  0.113555  0  0.106614  0.136293  0  0.984067  0
H  H17  1  0.15090096  0.30214780  0.67803354  1  0.10562  0  0.0911  0.114663  0  1.051968  0
H  H18  1  0.90617082  0.21591460  0.52921970  1  0.106983  0  0.11018  0.13885  0  0.979178  0
H  H19  1  0.89272359  0.28819332  0.68093485  1  0.104796  0  0.111717  0.136314  0  0.960711  0
C  C20  1  0.48594692  0.50139516  0.74561880  1  1.613807  0  0.21613  0.5997  0  4.1729  0
C  C21  1  0.08840543  0.89858848  0.77380275  1  0.026488  0  -0.09341  -0.062788  0  4.031169  0
C  C22  1  0.13491180  0.86426030  0.88415029  1  -0.074176  0  -0.104332  -0.153033  0  4.018651  0
C  C23  1  0.52158479  0.26927003  0.49149626  1  1.582083  0  0.217655  0.598441  0  4.179354  0
C  C24  1  0.27580801  0.86249294  0.89953944  1  -0.132477  0  -0.017805  0.124135  0  3.981408  0
C  C25  1  0.37026884  0.89136409  0.80743571  1  0.045887  0  -0.097328  -0.184702  0  3.933133  0
C  C26  1  0.32268063  0.92527369  0.69657512  1  -0.028026  0  -0.002902  0.10415  0  3.980591  0
C  C27  1  0.38857642  0.46171164  0.95893212  1  -0.00058  0  -0.016609  -0.015275  0  3.934446  0
C  C28  1  0.48912276  0.50669159  0.88098177  1  0.049871  0  -0.001907  -0.014206  0  3.920649  0
C  C29  1  0.60038023  0.56025707  0.93743159  1  -0.00395  0  -0.083344  -0.149175  0  3.94848  0
C  C30  1  0.61097047  0.56710631  0.06365263  1  -0.083637  0  -0.00278  0.098104  0  3.93287  0
C  C31  1  0.89054516  0.16228372  0.13925291  1  -0.081922  0  -0.101294  -0.092589  0  4.027077  0
C  C32  1  0.51133735  0.51936349  0.14241466  1  0.056618  0  -0.00868  -0.086492  0  3.913561  0
C  C33  1  0.40008618  0.46965059  0.08444645  1  -0.031676  0  -0.007298  0.050275  0  3.924159  0
C  C34  1  0.26292948  0.41549359  0.11117626  1  -0.027641  0  -0.073737  -0.057389  0  3.764281  0
C  C35  1  0.51666044  0.51775990  0.27728555  1  1.634201  0  0.211634  0.603362  0  4.189267  0
C  C36  1  0.25492803  0.39684527  0.96698951  1  0.027738  0  0.010772  0.125927  0  3.655199  0
C  C37  1  0.94369467  0.41425100  0.53925776  1  0.54731  0  0.143718  0.193725  0  3.853942  0
C  C38  1  0.92771039  0.59858338  0.45921717  1  0.548118  0  0.054548  -0.006841  0  3.873385  0
C  C39  1  0.07104426  0.60522080  0.45663178  1  0.475441  0  0.125163  0.192334  0  3.931723  0
C  C40  1  0.08569734  0.42259991  0.53821206  1  0.570581  0  0.143821  0.208747  0  3.858717  0
C  C41  1  0.10673443  0.29893401  0.58870005  1  -0.04866  0  -0.146369  -0.235752  0  3.818614  0
C  C42  1  0.60356246  0.92563825  0.43996552  1  -0.024843  0  -0.085597  -0.138951  0  3.951173  0
C  C43  1  0.94445622  0.28967473  0.59029797  1  -0.059156  0  -0.138395  -0.220817  0  3.808264  0
C  C44  1  0.51411051  0.74439793  0.53386365  1  1.587817  0  0.214126  0.601197  0  4.162842  0
C  C45  1  0.75700504  0.21376390  0.15345727  1  -0.088806  0  -0.094153  -0.065975  0  3.998214  0
C  C46  1  0.66539236  0.17814757  0.24456460  1  0.00708  0  -0.09175  -0.11345  0  3.95163  0
C  C47  1  0.70565974  0.09067037  0.32389032  1  -0.052183  0  -0.012363  0.06691  0  3.993769  0
C  C48  1  0.84023906  0.03887609  0.30829444  1  -0.003234  0  -0.101747  -0.142393  0  4.000655  0
C  C49  1  0.93175087  0.07433228  0.21694230  1  -0.021372  0  -0.105554  -0.09476  0  4.057236  0
C  C50  1  0.51292386  0.88104089  0.52762410  1  -0.002409  0  -0.017004  -0.071521  0  3.951361  0
C  C51  1  0.42033161  0.96286122  0.59882786  1  -0.03101  0  -0.001643  0.055553  0  3.96596  0
C  C52  1  0.42403117  0.08782435  0.57832302  1  -0.046886  0  -0.090574  -0.15715  0  3.961962  0
C  C53  1  0.51675472  0.13219336  0.49250566  1  -0.024138  0  -0.008375  -0.047708  0  3.929046  0
C  C54  1  0.60870101  0.05065235  0.41991342  1  -0.022914  0  -0.001762  0.052243  0  3.972277  0
C  C55  1  0.18091173  0.93027211  0.68150987  1  -0.021329  0  -0.100034  -0.144985  0  3.992846  0
Br  Br56  1  0.34082958  0.82205698  0.05215271  1  -0.09273  0  0.008292  -0.092622  0  1.419974  0
Br  Br57  1  0.76275979  0.65293250  0.12478203  1  -0.045789  0  0.033339  -0.051319  0  1.442565  0
Br  Br58  1  0.25543396  0.27260889  0.20697356  1  -0.094011  0  0.015594  -0.047143  0  1.443026  0
Br  Br59  1  0.26554748  0.22621821  0.89603867  1  -0.052864  0  0.031944  -0.061104  0  1.499011  0
Br  Br60  1  0.09228574  0.48403910  0.91208639  1  -0.087256  0  -0.000338  -0.08752  0  1.354713  0
Br  Br61  1  0.14740040  0.74117199  0.38565354  1  0.039719  0  0.109825  0.024604  0  1.501709  0
N  N62  1  0.86199558  0.50213056  0.50217546  1  -1.237866  0  -0.287783  -0.156697  0  3.469306  0
N  N63  1  0.15353814  0.51786495  0.49945301  1  -1.208037  0  -0.289027  -0.230484  0  3.43716  0
O  O64  1  0.37101277  0.48251854  0.69996813  1  -1.151547  0  -0.311699  -0.527682  0  2.29728  0
O  O65  1  0.59989609  0.51743596  0.68854947  1  -1.17573  0  -0.317332  -0.547624  0  2.3349  0
O  O66  1  0.40882396  0.32853491  0.48101451  1  -1.170714  0  -0.314324  -0.559181  0  2.37198  0
O  O67  1  0.63797943  0.31539686  0.50648432  1  -1.153054  0  -0.307285  -0.527496  0  2.337769  0
O  O68  1  0.40253598  0.54238820  0.33677741  1  -1.164589  0  -0.315699  -0.558085  0  2.38996  0
O  O69  1  0.63026413  0.48881634  0.31922015  1  -1.153188  0  -0.305419  -0.527427  0  2.353146  0
O  O70  1  0.40230492  0.69525274  0.56426838  1  -1.162715  0  -0.31142  -0.546274  0  2.381878  0
O  O71  1  0.62816598  0.68665819  0.50306739  1  -1.171702  0  -0.319162  -0.553032  0  2.358734  0
