# generated using pymatgen
data_ZnH19C25SN5O2
_symmetry_space_group_name_H-M   'P 1'
_cell_length_a   8.69035637
_cell_length_b   9.03145445
_cell_length_c   16.14126264
_cell_angle_alpha   77.53102503
_cell_angle_beta   88.83399347
_cell_angle_gamma   64.49874000
_symmetry_Int_Tables_number   1
_chemical_formula_structural   ZnH19C25SN5O2
_chemical_formula_sum   'Zn2 H38 C50 S2 N10 O4'
_cell_volume   1112.68210198
_cell_formula_units_Z   2
loop_
 _symmetry_equiv_pos_site_id
 _symmetry_equiv_pos_as_xyz
  1  'x, y, z'
loop_
 _atom_site_type_symbol
 _atom_site_label
 _atom_site_symmetry_multiplicity
 _atom_site_fract_x
 _atom_site_fract_y
 _atom_site_fract_z
 _atom_site_occupancy
 _atom_site_hle17_bader_spin_density
 _atom_site_hle17_ddec_charge
 _atom_site_hle17_ddec_spin_density
 _atom_site_hle17_ddec_sum_bond_order
 _atom_site_hle17_magmom
 _atom_site_hse06_10hf_bader_spin_density
 _atom_site_hse06_10hf_ddec_charge
 _atom_site_hse06_10hf_ddec_spin_density
 _atom_site_hse06_10hf_ddec_sum_bond_order
 _atom_site_hse06_10hf_magmom
 _atom_site_hse06_bader_spin_density
 _atom_site_hse06_ddec_charge
 _atom_site_hse06_ddec_spin_density
 _atom_site_hse06_ddec_sum_bond_order
 _atom_site_hse06_magmom
 _atom_site_pbe_bader_spin_density
 _atom_site_pbe_cm5_charge
 _atom_site_pbe_ddec_charge
 _atom_site_pbe_ddec_spin_density
 _atom_site_pbe_ddec_sum_bond_order
 _atom_site_pbe_magmom
Zn  Zn0  1  0.96914188  0.09865404  0.08931832  1  0  1.030842  0  1.914012  0  0  0.836091  0  2.406448  0  0  0.886341  0  2.345213  0  0  0.701891  0.80111  0  2.448491  0
Zn  Zn1  1  0.03085901  0.90135363  0.91068507  1  0  1.030929  0  1.913703  0  0  0.836185  0  2.4061  0  0  0.886434  0  2.34487  0  0  0.701904  0.801206  0  2.44814  0
H  H2  1  0.62865371  0.77138765  0.03506715  1  0  0.127282  0  0.963032  0  0  0.145661  0  1.023059  0  0  0.147514  0  1.02337  0  0  0.091275  0.144328  0  1.022892  0
H  H3  1  0.37136542  0.22860731  0.96493645  1  0  0.127432  0  0.962887  0  0  0.145776  0  1.02295  0  0  0.147632  0  1.023258  0  0  0.091363  0.14444  0  1.022785  0
H  H4  1  0.53848689  0.92518233  0.09880290  1  0  0.143835  0  0.940709  0  0  0.164438  0  0.996302  0  0  0.166919  0  0.995839  0  0  0.100559  0.162655  0  0.996676  0
H  H5  1  0.46152054  0.07480780  0.90120517  1  0  0.143812  0  0.940817  0  0  0.164434  0  0.996387  0  0  0.166916  0  0.995922  0  0  0.100537  0.162648  0  0.996762  0
H  H6  1  0.72018545  0.73363493  0.14040605  1  0  0.13618  0  0.961683  0  0  0.149052  0  1.033612  0  0  0.152138  0  1.03271  0  0  0.091939  0.146859  0  1.034266  0
H  H7  1  0.27982857  0.26636378  0.85959588  1  0  0.136142  0  0.961553  0  0  0.149056  0  1.033438  0  0  0.152143  0  1.032536  0  0  0.091935  0.146865  0  1.034093  0
H  H8  1  0.98376702  0.75448509  0.19455369  1  0  0.074384  0  0.9708  0  0  0.082114  0  1.038012  0  0  0.083861  0  1.037339  0  0  0.110786  0.080813  0  1.038554  0
H  H9  1  0.01622578  0.24551742  0.80544549  1  0  0.074385  0  0.970633  0  0  0.082017  0  1.037936  0  0  0.083765  0  1.037261  0  0  0.110737  0.080714  0  1.038481  0
H  H10  1  0.16979588  0.51645362  0.31187462  1  0  0.111701  0  0.9668  0  0  0.112258  0  1.042828  0  0  0.116641  0  1.040177  0  0  0.103991  0.109127  0  1.04478  0
H  H11  1  0.83020098  0.48354749  0.68812161  1  0  0.111695  0  0.966794  0  0  0.112273  0  1.042796  0  0  0.116657  0  1.040147  0  0  0.103998  0.109137  0  1.044768  0
H  H12  1  0.52238206  0.74124693  0.29047675  1  0  0.104897  0  0.977846  0  0  0.111769  0  1.043904  0  0  0.114425  0  1.044519  0  0  0.102863  0.109846  0  1.043636  0
H  H13  1  0.47761241  0.25875176  0.70952168  1  0  0.104949  0  0.97771  0  0  0.111791  0  1.043816  0  0  0.114451  0  1.044427  0  0  0.102873  0.109862  0  1.043568  0
H  H14  1  0.31517688  0.97766239  0.17835668  1  0  0.081731  0  0.950564  0  0  0.08685  0  1.02157  0  0  0.089757  0  1.018218  0  0  0.115028  0.084641  0  1.024129  0
H  H15  1  0.68481705  0.02234016  0.82164373  1  0  0.08172  0  0.950534  0  0  0.086852  0  1.02153  0  0  0.089758  0  1.018181  0  0  0.115046  0.084649  0  1.024082  0
H  H16  1  0.58569579  0.48673361  0.40509835  1  0  0.062611  0  0.945731  0  0  0.069768  0  1.017438  0  0  0.073222  0  1.013839  0  0  0.103293  0.06726  0  1.020049  0
H  H17  1  0.41430046  0.51326628  0.59489866  1  0  0.062644  0  0.945643  0  0  0.069743  0  1.017416  0  0  0.073185  0  1.013844  0  0  0.103291  0.067234  0  1.020032  0
H  H18  1  0.18366668  0.35213081  0.49731585  1  0  0.100249  0  0.951688  0  0  0.108432  0  1.014845  0  0  0.112166  0  1.012404  0  0  0.102282  0.105786  0  1.016581  0
H  H19  1  0.81633355  0.64786786  0.50268314  1  0  0.100242  0  0.951719  0  0  0.108453  0  1.014846  0  0  0.112187  0  1.012406  0  0  0.102291  0.105807  0  1.016582  0
H  H20  1  0.03463987  0.24834116  0.61229501  1  0  0.087132  0  0.957942  0  0  0.101229  0  1.011889  0  0  0.10332  0  1.012206  0  0  0.097257  0.099689  0  1.0118  0
H  H21  1  0.96536205  0.75165627  0.38770474  1  0  0.087156  0  0.957922  0  0  0.101241  0  1.011883  0  0  0.103329  0  1.012204  0  0  0.097259  0.099726  0  1.011768  0
H  H22  1  0.20291468  0.01103539  0.73413680  1  0  0.101818  0  0.969248  0  0  0.110598  0  1.035617  0  0  0.112913  0  1.035085  0  0  0.101071  0.108935  0  1.036064  0
H  H23  1  0.79708727  0.98896200  0.26586171  1  0  0.101854  0  0.969198  0  0  0.1106  0  1.03561  0  0  0.112913  0  1.035085  0  0  0.101074  0.108937  0  1.036056  0
H  H24  1  0.78947144  0.84550025  0.67380585  1  0  0.093747  0  0.981165  0  0  0.096304  0  1.058356  0  0  0.098985  0  1.057264  0  0  0.094889  0.094391  0  1.059151  0
H  H25  1  0.21053001  0.15449828  0.32618942  1  0  0.093709  0  0.981151  0  0  0.096253  0  1.058367  0  0  0.098933  0  1.057277  0  0  0.094876  0.094341  0  1.059162  0
H  H26  1  0.93701383  0.95799993  0.56347597  1  0  0.084799  0  0.959119  0  0  0.098023  0  1.017064  0  0  0.100115  0  1.016714  0  0  0.098025  0.096538  0  1.01733  0
H  H27  1  0.06298593  0.04200245  0.43652068  1  0  0.084819  0  0.959095  0  0  0.098035  0  1.01705  0  0  0.100126  0  1.0167  0  0  0.098028  0.09655  0  1.017316  0
H  H28  1  0.76910651  0.20281704  0.44357970  1  0  0.091321  0  0.970124  0  0  0.09834  0  1.040112  0  0  0.101261  0  1.038754  0  0  0.097019  0.096239  0  1.04115  0
H  H29  1  0.23089213  0.79718788  0.55641725  1  0  0.091371  0  0.970102  0  0  0.098361  0  1.040119  0  0  0.101285  0  1.03876  0  0  0.097038  0.09626  0  1.041158  0
H  H30  1  0.37760258  0.72766343  0.76536595  1  0  0.063945  0  0.947183  0  0  0.071647  0  1.017748  0  0  0.074228  0  1.015384  0  0  0.107905  0.069752  0  1.019572  0
H  H31  1  0.62239930  0.27233146  0.23463350  1  0  0.063873  0  0.947241  0  0  0.071597  0  1.01782  0  0  0.074177  0  1.015456  0  0  0.107895  0.069703  0  1.019643  0
H  H32  1  0.42455867  0.47314125  0.86921018  1  0  0.110623  0  0.954421  0  0  0.119637  0  1.017934  0  0  0.122081  0  1.018381  0  0  0.107592  0.117845  0  1.017816  0
H  H33  1  0.57545407  0.52684727  0.13078936  1  0  0.110587  0  0.954346  0  0  0.119613  0  1.017859  0  0  0.122058  0  1.018306  0  0  0.107558  0.11782  0  1.017741  0
H  H34  1  0.61384359  0.22700760  0.98392050  1  0  0.069002  0  0.975134  0  0  0.079718  0  1.038937  0  0  0.081422  0  1.037778  0  0  0.112626  0.078407  0  1.039883  0
H  H35  1  0.38616865  0.77298731  0.01608070  1  0  0.069008  0  0.975045  0  0  0.079742  0  1.038844  0  0  0.081448  0  1.037682  0  0  0.112624  0.078428  0  1.039793  0
H  H36  1  0.96967796  0.41443607  0.98587211  1  0  0.074119  0  0.966592  0  0  0.085986  0  1.025872  0  0  0.087798  0  1.024974  0  0  0.114763  0.084639  0  1.026573  0
H  H37  1  0.03032121  0.58557026  0.01412899  1  0  0.07414  0  0.966545  0  0  0.086005  0  1.025833  0  0  0.087817  0  1.024934  0  0  0.114775  0.084661  0  1.026531  0
H  H38  1  0.79496226  0.67285146  0.87294679  1  0  0.122282  0  0.956191  0  0  0.125846  0  1.026707  0  0  0.129764  0  1.024574  0  0  0.110615  0.123006  0  1.028415  0
H  H39  1  0.20503567  0.32715244  0.12705650  1  0  0.122279  0  0.956195  0  0  0.125856  0  1.026715  0  0  0.129777  0  1.024581  0  0  0.110609  0.123011  0  1.028424  0
C  C40  1  0.90636872  0.33328672  0.21953141  1  0  0.310232  0  4.075173  0  0  0.293591  0  4.37308  0  0  0.317563  0  4.385461  0  0  0.145237  0.277368  0  4.364015  0
C  C41  1  0.09362465  0.66672760  0.78047987  1  0  0.310415  0  4.075582  0  0  0.293781  0  4.373461  0  0  0.317748  0  4.385836  0  0  0.145303  0.277558  0  4.364401  0
C  C42  1  0.65682329  0.83011984  0.08158613  1  0  -0.454536  0  3.635105  0  0  -0.526452  0  3.863562  0  0  -0.534696  0  3.866058  0  0  -0.24883  -0.520613  0  3.861711  0
C  C43  1  0.34318893  0.16987774  0.91841907  1  0  -0.454524  0  3.635188  0  0  -0.526534  0  3.86351  0  0  -0.534788  0  3.865998  0  0  -0.248835  -0.520696  0  3.861654  0
C  C44  1  0.77233525  0.91023055  0.04676963  1  0  0.760658  0  3.822907  0  0  0.71485  0  4.119335  0  0  0.750227  0  4.109349  0  0  0.218054  0.690757  0  4.125403  0
C  C45  1  0.22767130  0.08977470  0.95323711  1  0  0.760425  0  3.823704  0  0  0.71483  0  4.119748  0  0  0.750231  0  4.109727  0  0  0.2179  0.69074  0  4.125818  0
C  C46  1  0.10358453  0.74779700  0.21799297  1  0  0.120629  0  3.722628  0  0  0.090679  0  3.971712  0  0  0.096388  0  3.991968  0  0  0.039637  0.086974  0  3.95798  0
C  C47  1  0.89641116  0.25220415  0.78200388  1  0  0.120748  0  3.722413  0  0  0.090937  0  3.971477  0  0  0.096648  0  3.991728  0  0  0.039769  0.087233  0  3.957748  0
C  C48  1  0.20716238  0.61569908  0.28338367  1  0  -0.143479  0  3.704475  0  0  -0.160264  0  3.95019  0  0  -0.166394  0  3.969603  0  0  -0.076907  -0.156371  0  3.937313  0
C  C49  1  0.79283444  0.38429950  0.71661226  1  0  -0.143544  0  3.704467  0  0  -0.160364  0  3.950192  0  0  -0.166494  0  3.969605  0  0  -0.076997  -0.156472  0  3.937308  0
C  C50  1  0.36040762  0.61155354  0.31246757  1  0  0.088237  0  3.784901  0  0  0.102947  0  4.015727  0  0  0.105747  0  4.036145  0  0  0.007431  0.101179  0  4.001917  0
C  C51  1  0.63958867  0.38844888  0.68752974  1  0  0.088216  0  3.78486  0  0  0.102926  0  4.015736  0  0  0.105726  0  4.036153  0  0  0.007469  0.101162  0  4.001924  0
C  C52  1  0.40294997  0.74093432  0.27192490  1  0  -0.148604  0  3.710041  0  0  -0.166309  0  3.955069  0  0  -0.1734  0  3.977556  0  0  -0.077418  -0.161743  0  3.940059  0
C  C53  1  0.59704515  0.25906812  0.72807303  1  0  -0.148527  0  3.709756  0  0  -0.166224  0  3.954826  0  0  -0.173313  0  3.977309  0  0  -0.07735  -0.161662  0  3.939818  0
C  C54  1  0.28968535  0.87104738  0.20819764  1  0  0.131869  0  3.694329  0  0  0.102064  0  3.944584  0  0  0.108404  0  3.963236  0  0  0.045835  0.097979  0  3.931866  0
C  C55  1  0.71030688  0.12895641  0.79180201  1  0  0.131924  0  3.694173  0  0  0.102131  0  3.944471  0  0  0.108471  0  3.963123  0  0  0.045786  0.098047  0  3.931748  0
C  C56  1  0.46951149  0.47946902  0.38440050  1  0  0.109316  0  3.686481  0  0  0.077572  0  3.945219  0  0  0.085665  0  3.956438  0  0  0.076561  0.072153  0  3.937577  0
C  C57  1  0.53048591  0.52053085  0.61559650  1  0  0.109293  0  3.686569  0  0  0.07761  0  3.945288  0  0  0.085701  0  3.956502  0  0  0.076545  0.072189  0  3.937645  0
C  C58  1  0.52552526  0.23364146  0.48885417  1  0  0.163838  0  3.816909  0  0  0.163126  0  4.067794  0  0  0.165965  0  4.092306  0  0  0.093344  0.161251  0  4.051102  0
C  C59  1  0.47447331  0.76635839  0.51114221  1  0  0.163812  0  3.817083  0  0  0.163181  0  4.067882  0  0  0.16602  0  4.092394  0  0  0.093392  0.161305  0  4.051192  0
C  C60  1  0.43687587  0.17071249  0.55258093  1  0  -0.006238  0  3.743333  0  0  0.006551  0  3.970428  0  0  0.005218  0  3.994663  0  0  -0.003535  0.007413  0  3.954087  0
C  C61  1  0.56312549  0.82928359  0.44741652  1  0  -0.006116  0  3.743281  0  0  0.006582  0  3.970468  0  0  0.005249  0  3.994703  0  0  -0.003502  0.007443  0  3.954129  0
C  C62  1  0.25599012  0.24718296  0.55041829  1  0  -0.09491  0  3.737004  0  0  -0.119456  0  3.991384  0  0  -0.121865  0  4.01229  0  0  -0.088754  -0.117764  0  3.977116  0
C  C63  1  0.74400953  0.75281441  0.44957963  1  0  -0.094968  0  3.737049  0  0  -0.119524  0  3.991461  0  0  -0.121931  0  4.012364  0  0  -0.088812  -0.117834  0  3.977203  0
C  C64  1  0.17389576  0.18853085  0.61420669  1  0  -0.058767  0  3.801528  0  0  -0.070616  0  4.051994  0  0  -0.073352  0  4.075907  0  0  -0.095128  -0.068568  0  4.035556  0
C  C65  1  0.82610734  0.81146655  0.38579243  1  0  -0.058819  0  3.801533  0  0  -0.070652  0  4.051976  0  0  -0.073383  0  4.075888  0  0  -0.095142  -0.068624  0  4.035531  0
C  C66  1  0.26814441  0.05197310  0.68218530  1  0  -0.151711  0  3.72445  0  0  -0.172034  0  3.973944  0  0  -0.176277  0  3.997117  0  0  -0.093014  -0.169091  0  3.95814  0
C  C67  1  0.73185924  0.94802302  0.31781336  1  0  -0.151757  0  3.724427  0  0  -0.172004  0  3.973966  0  0  -0.176248  0  3.997138  0  0  -0.093003  -0.169063  0  3.958169  0
C  C68  1  0.44613459  0.97162904  0.68591676  1  0  0.164373  0  3.80439  0  0  0.163891  0  4.053103  0  0  0.166423  0  4.077108  0  0  0.093237  0.162205  0  4.036746  0
C  C69  1  0.55386791  0.02836708  0.31408191  1  0  0.164499  0  3.804241  0  0  0.163866  0  4.053147  0  0  0.166398  0  4.077153  0  0  0.093239  0.16218  0  4.036787  0
C  C70  1  0.53501573  0.03025250  0.62067963  1  0  -0.007153  0  3.748916  0  0  0.006054  0  3.97495  0  0  0.005047  0  3.998824  0  0  -0.0036  0.006738  0  3.95881  0
C  C71  1  0.46498393  0.96974485  0.37931768  1  0  -0.007277  0  3.748946  0  0  0.005988  0  3.975041  0  0  0.00498  0  3.998915  0  0  -0.003609  0.00667  0  3.958901  0
C  C72  1  0.71579171  0.95434949  0.62277168  1  0  -0.087484  0  3.7232  0  0  -0.116118  0  3.984397  0  0  -0.119591  0  4.00708  0  0  -0.087102  -0.113695  0  3.968913  0
C  C73  1  0.28420915  0.04565039  0.37722590  1  0  -0.087446  0  3.723258  0  0  -0.116057  0  3.984453  0  0  -0.119529  0  4.007135  0  0  -0.087113  -0.113631  0  3.968965  0
C  C74  1  0.79763015  0.01778019  0.56076779  1  0  -0.054752  0  3.786918  0  0  -0.06589  0  4.036831  0  0  -0.0681  0  4.060818  0  0  -0.090846  -0.064189  0  4.020311  0
C  C75  1  0.20236960  0.98222221  0.43922948  1  0  -0.054801  0  3.786867  0  0  -0.065936  0  4.036784  0  0  -0.068145  0  4.06077  0  0  -0.090852  -0.064236  0  4.020263  0
C  C76  1  0.70367548  0.15700204  0.49387850  1  0  -0.149731  0  3.731989  0  0  -0.170268  0  3.982348  0  0  -0.174624  0  4.005291  0  0  -0.092556  -0.167303  0  3.966752  0
C  C77  1  0.29632371  0.84300162  0.50611861  1  0  -0.149693  0  3.731973  0  0  -0.170219  0  3.982286  0  0  -0.174577  0  4.005229  0  0  -0.092551  -0.167255  0  3.966695  0
C  C78  1  0.49421830  0.72991757  0.78943929  1  0  0.117049  0  3.670173  0  0  0.086753  0  3.925624  0  0  0.094549  0  3.936691  0  0  0.07922  0.081498  0  3.918019  0
C  C79  1  0.50578761  0.27007602  0.21055967  1  0  0.117246  0  3.669992  0  0  0.086869  0  3.925533  0  0  0.094669  0  3.936599  0  0  0.079258  0.081613  0  3.917927  0
C  C80  1  0.59533764  0.59278741  0.86123255  1  0  0.093661  0  3.78278  0  0  0.108636  0  4.012798  0  0  0.112237  0  4.033  0  0  0.009656  0.106334  0  3.999106  0
C  C81  1  0.40466831  0.40720872  0.13876670  1  0  0.093606  0  3.78283  0  0  0.108572  0  4.01293  0  0  0.112175  0  4.03312  0  0  0.0097  0.106274  0  3.999231  0
C  C82  1  0.54374934  0.46596177  0.89415293  1  0  -0.149854  0  3.694982  0  0  -0.168102  0  3.942277  0  0  -0.175366  0  3.964323  0  0  -0.078237  -0.163415  0  3.927522  0
C  C83  1  0.45625892  0.53403435  0.10584630  1  0  -0.149759  0  3.694781  0  0  -0.168017  0  3.942137  0  0  -0.175282  0  3.964186  0  0  -0.07822  -0.163333  0  3.92738  0
C  C84  1  0.64863017  0.32861176  0.95742687  1  0  0.130548  0  3.731351  0  0  0.097773  0  3.985193  0  0  0.104958  0  4.003846  0  0  0.041741  0.093128  0  3.972484  0
C  C85  1  0.35137864  0.67138309  0.04257252  1  0  0.13052  0  3.731283  0  0  0.097715  0  3.985152  0  0  0.104897  0  4.003808  0  0  0.041737  0.093069  0  3.972446  0
C  C86  1  0.84645423  0.43520199  0.95878849  1  0  0.119737  0  3.719034  0  0  0.091781  0  3.964528  0  0  0.097176  0  3.984481  0  0  0.040396  0.088288  0  3.951046  0
C  C87  1  0.15354891  0.56480053  0.04121244  1  0  0.119752  0  3.718929  0  0  0.091789  0  3.96442  0  0  0.097183  0  3.984377  0  0  0.040427  0.088296  0  3.950934  0
C  C88  1  0.74982633  0.57728677  0.89629888  1  0  -0.141188  0  3.678313  0  0  -0.16008  0  3.925607  0  0  -0.166369  0  3.945332  0  0  -0.075647  -0.156136  0  3.912598  0
C  C89  1  0.25017961  0.42271201  0.10370375  1  0  -0.14122  0  3.678367  0  0  -0.160117  0  3.92567  0  0  -0.166407  0  3.945396  0  0  -0.075682  -0.156171  0  3.912659  0
S  S90  1  0.86776936  0.45250624  0.28620596  1  0  -0.357196  0  1.993004  0  0  -0.332523  0  2.271487  0  0  -0.347462  0  2.267187  0  0  -0.155664  -0.321827  0  2.274081  0
S  S91  1  0.13222278  0.54750036  0.71380138  1  0  -0.357361  0  1.992396  0  0  -0.332701  0  2.270869  0  0  -0.347643  0  2.26657  0  0  -0.155752  -0.321987  0  2.273452  0
N  N92  1  0.93371224  0.24618381  0.17015496  1  0  -0.590013  0  2.983035  0  0  -0.526327  0  3.288263  0  0  -0.550257  0  3.287874  0  0  -0.416441  -0.50982  0  3.288166  0
N  N93  1  0.06629029  0.75381748  0.82984676  1  0  -0.590078  0  2.983941  0  0  -0.526397  0  3.289135  0  0  -0.550318  0  3.28874  0  0  -0.416447  -0.509894  0  3.289049  0
N  N94  1  0.14211549  0.87529318  0.18098345  1  0  -0.336189  0  3.270328  0  0  -0.254042  0  3.532158  0  0  -0.273243  0  3.550237  0  0  -0.323604  -0.240969  0  3.519694  0
N  N95  1  0.85787905  0.12471060  0.81901618  1  0  -0.336371  0  3.270333  0  0  -0.254279  0  3.532197  0  0  -0.273483  0  3.550276  0  0  -0.323682  -0.241202  0  3.519733  0
N  N96  1  0.42500450  0.36474354  0.42172966  1  0  -0.302646  0  3.137004  0  0  -0.262291  0  3.40333  0  0  -0.274838  0  3.420516  0  0  -0.295664  -0.253521  0  3.391319  0
N  N97  1  0.57499231  0.63525506  0.57826690  1  0  -0.302679  0  3.137314  0  0  -0.262339  0  3.403585  0  0  -0.274886  0  3.420771  0  0  -0.295665  -0.253566  0  3.391574  0
N  N98  1  0.54490933  0.84127121  0.75413294  1  0  -0.297164  0  3.09703  0  0  -0.256116  0  3.362995  0  0  -0.26764  0  3.378685  0  0  -0.291736  -0.248026  0  3.352005  0
N  N99  1  0.45509603  0.15872364  0.24586586  1  0  -0.297259  0  3.096901  0  0  -0.256126  0  3.362938  0  0  -0.26765  0  3.378627  0  0  -0.291792  -0.248039  0  3.351954  0
N  N100  1  0.79900097  0.31089426  0.98881470  1  0  -0.339192  0  3.280822  0  0  -0.261518  0  3.549916  0  0  -0.280018  0  3.566775  0  0  -0.323317  -0.248979  0  3.538343  0
N  N101  1  0.20100663  0.68910074  0.01118840  1  0  -0.339245  0  3.280899  0  0  -0.261526  0  3.549957  0  0  -0.280025  0  3.566815  0  0  -0.323339  -0.248987  0  3.538384  0
O  O102  1  0.82789855  0.89060760  0.97446122  1  0  -0.660835  0  2.077693  0  0  -0.592605  0  2.358808  0  0  -0.620478  0  2.342662  0  0  -0.318952  -0.573152  0  2.369238  0
O  O103  1  0.17210751  0.10940140  0.02554442  1  0  -0.660787  0  2.078  0  0  -0.592598  0  2.358936  0  0  -0.62048  0  2.342782  0  0  -0.318889  -0.573105  0  2.369271  0
O  O104  1  0.80521869  0.99216068  0.09333814  1  0  -0.651001  0  2.075882  0  0  -0.579008  0  2.352038  0  0  -0.606461  0  2.335247  0  0  -0.319058  -0.559962  0  2.363053  0
O  O105  1  0.19477592  0.00785343  0.90666758  1  0  -0.650978  0  2.076094  0  0  -0.57905  0  2.352171  0  0  -0.606512  0  2.33536  0  0  -0.319008  -0.560009  0  2.363184  0
