# generated using pymatgen
data_CuH8C13SN2O5
_symmetry_space_group_name_H-M   'P 1'
_cell_length_a   7.12427839
_cell_length_b   19.66632812
_cell_length_c   21.06594244
_cell_angle_alpha   90.00192780
_cell_angle_beta   90.00072932
_cell_angle_gamma   89.99836444
_symmetry_Int_Tables_number   1
_chemical_formula_structural   CuH8C13SN2O5
_chemical_formula_sum   'Cu8 H64 C104 S8 N16 O40'
_cell_volume   2951.51541417
_cell_formula_units_Z   8
loop_
 _symmetry_equiv_pos_site_id
 _symmetry_equiv_pos_as_xyz
  1  'x, y, z'
loop_
 _atom_site_type_symbol
 _atom_site_label
 _atom_site_symmetry_multiplicity
 _atom_site_fract_x
 _atom_site_fract_y
 _atom_site_fract_z
 _atom_site_occupancy
 _atom_site_pbe_bader_charge
 _atom_site_pbe_bader_spin_density
 _atom_site_pbe_cm5_charge
 _atom_site_pbe_ddec_charge
 _atom_site_pbe_ddec_spin_density
 _atom_site_pbe_ddec_sum_bond_order
 _atom_site_pbe_magmom
Cu  Cu0  1  0.53634690  0.39016054  0.64800918  1  1.139624  -0.606602  0.8008  0.823215  -0.781319  2.370142  -0.603
Cu  Cu1  1  0.53629761  0.60985002  0.35197983  1  1.139669  -0.60653  0.800715  0.822783  -0.78122  2.370262  -0.603
Cu  Cu2  1  0.46347969  0.10984286  0.14800514  1  1.139618  -0.606467  0.800702  0.822753  -0.781278  2.370222  -0.603
Cu  Cu3  1  0.46348691  0.89013794  0.85197215  1  1.139809  -0.606437  0.800713  0.822577  -0.781224  2.370215  -0.603
Cu  Cu4  1  0.03443782  0.63057123  0.63339253  1  1.153749  -0.599383  0.796497  0.825399  -0.770332  2.355838  -0.595
Cu  Cu5  1  0.03445170  0.36942261  0.36661422  1  1.153706  0.599392  0.796624  0.825556  0.791024  2.356045  0.595
Cu  Cu6  1  0.96511966  0.86942615  0.13337180  1  1.155173  0.607572  0.797889  0.82797  0.802067  2.354314  0.604
Cu  Cu7  1  0.96507697  0.13055154  0.86662906  1  1.155124  0.607503  0.797739  0.827705  0.802029  2.354535  0.604
H  H8  1  0.62329023  0.50687843  0.73552497  1  0.185952  -0.002757  0.13352  0.116889  -0.001297  0.986585  -0.002
H  H9  1  0.62330173  0.49314955  0.26445303  1  0.160758  -0.002809  0.133578  0.116884  -0.001315  0.986881  -0.002
H  H10  1  0.37636788  0.99313890  0.23556062  1  0.186678  -0.002774  0.133388  0.116622  -0.001315  0.986705  -0.002
H  H11  1  0.37634529  0.00685398  0.76442959  1  0.186931  -0.002774  0.133449  0.116823  -0.001317  0.986627  -0.002
H  H12  1  0.64901386  0.51886490  0.85533804  1  0.073913  -0.001398  0.103051  0.102217  -0.000732  1.022221  -0.001
H  H13  1  0.64901628  0.48118112  0.14465099  1  0.067962  -0.001387  0.103107  0.102138  -0.000725  1.022163  -0.001
H  H14  1  0.35090553  0.98119081  0.35538269  1  0.069107  -0.001389  0.102873  0.101778  -0.000725  1.022069  -0.001
H  H15  1  0.35093792  0.01881351  0.64461310  1  0.068628  -0.001389  0.103018  0.102004  -0.000727  1.022139  -0.001
H  H16  1  0.59760634  0.41437610  0.92256518  1  0.063702  5.5e-05  0.108686  0.102786  3e-05  0.97708  0.0
H  H17  1  0.59759936  0.58567808  0.07743122  1  0.063593  5.8e-05  0.108738  0.1028  3.2e-05  0.977  0.0
H  H18  1  0.40249287  0.08571905  0.42257673  1  0.063158  5.7e-05  0.108748  0.102946  3.1e-05  0.976953  0.0
H  H19  1  0.40255120  0.91430254  0.57740600  1  0.062631  3.1e-05  0.108787  0.102845  1.3e-05  0.977  0.0
H  H20  1  0.52979519  0.30355563  0.87014930  1  0.145346  -0.00137  0.11918  0.140557  -0.000693  0.990991  -0.001
H  H21  1  0.52979958  0.69649466  0.12984775  1  0.14455  -0.00137  0.119025  0.140512  -0.000694  0.990939  -0.001
H  H22  1  0.47033999  0.19649035  0.37013330  1  0.14627  -0.001368  0.119104  0.140556  -0.000693  0.990767  -0.001
H  H23  1  0.47043152  0.80352140  0.62983453  1  0.146176  -0.001353  0.119141  0.140591  -0.000681  0.990714  -0.001
H  H24  1  0.47838479  0.21418538  0.81440140  1  0.167601  -0.001325  0.113192  0.123109  -0.000636  1.059168  -0.001
H  H25  1  0.47849923  0.78583899  0.18562343  1  0.168106  -0.001324  0.113165  0.123027  -0.000636  1.059291  -0.001
H  H26  1  0.52164586  0.28584994  0.31437278  1  0.168251  -0.001324  0.113157  0.123192  -0.000636  1.059354  -0.001
H  H27  1  0.52174516  0.71416484  0.68560145  1  0.167522  -0.001315  0.113201  0.123236  -0.000668  1.059328  -0.001
H  H28  1  0.41838969  0.11752937  0.74431601  1  0.10971  -9.3e-05  0.112516  0.117101  -5e-05  0.998364  0.0
H  H29  1  0.41847095  0.88250833  0.25572185  1  0.107664  -9.3e-05  0.112488  0.117099  -5e-05  0.99802  0.0
H  H30  1  0.58194718  0.38247647  0.24426743  1  0.109504  -9.3e-05  0.112557  0.117105  -5e-05  0.998112  0.0
H  H31  1  0.58193745  0.61752243  0.75570944  1  0.10985  -6.6e-05  0.112616  0.117256  -4.8e-05  0.998098  0.0
H  H32  1  0.41656898  0.13667620  0.62431883  1  0.060155  -0.001331  0.101166  0.096166  -0.000698  1.012741  -0.001
H  H33  1  0.41655233  0.86332339  0.37571475  1  0.059223  -0.001335  0.101299  0.096437  -0.0007  1.013012  -0.001
H  H34  1  0.58378732  0.36327703  0.12428152  1  0.059316  -0.001332  0.101481  0.0966  -0.000698  1.012308  -0.001
H  H35  1  0.58368785  0.63671576  0.87569251  1  0.060416  -0.001293  0.101342  0.096447  -0.00067  1.012379  -0.001
H  H36  1  0.47290042  0.25597300  0.58379285  1  0.151609  -0.003182  0.137341  0.125447  -0.001523  0.959755  -0.002
H  H37  1  0.47281896  0.74402805  0.41621961  1  0.152509  -0.003187  0.137287  0.125179  -0.001521  0.959955  -0.002
H  H38  1  0.52720594  0.24397979  0.08377623  1  0.151166  -0.003189  0.137438  0.125577  -0.001525  0.959637  -0.002
H  H39  1  0.52714479  0.75601816  0.91620135  1  0.151383  -0.003191  0.137356  0.125393  -0.001526  0.959639  -0.002
H  H40  1  0.10496888  0.52608445  0.73447790  1  0.16437  -0.002826  0.132885  0.119298  -0.001327  0.979043  -0.002
H  H41  1  0.10503529  0.47390308  0.26553485  1  0.16417  0.002841  0.132798  0.119224  0.001373  0.97911  0.002
H  H42  1  0.89480569  0.97391250  0.23438800  1  0.163511  0.002892  0.132846  0.119333  0.001396  0.979323  0.002
H  H43  1  0.89477179  0.02606693  0.76557743  1  0.163836  0.002887  0.132875  0.119415  0.001393  0.979107  0.002
H  H44  1  0.12546003  0.53025149  0.85479449  1  0.059895  -0.001281  0.101708  0.09929  -0.000649  1.015989  -0.001
H  H45  1  0.12553075  0.46973379  0.14521740  1  0.060172  0.001328  0.101683  0.099162  0.000706  1.015727  0.001
H  H46  1  0.87443969  0.96982250  0.35472383  1  0.070163  0.001342  0.101704  0.099662  0.000716  1.015843  0.001
H  H47  1  0.87441646  0.03019324  0.64524198  1  0.068549  0.001294  0.101834  0.099786  0.000675  1.015871  0.001
H  H48  1  0.08435198  0.64418599  0.90881609  1  0.036112  7.9e-05  0.113066  0.110107  3.6e-05  0.968952  0.0
H  H49  1  0.08437923  0.35580479  0.09119752  1  0.03643  -2.8e-05  0.113127  0.110233  -3e-06  0.969096  0.0
H  H50  1  0.91578836  0.85592808  0.40878854  1  0.036393  -9.7e-05  0.113021  0.110087  -4.5e-05  0.968894  0.0
H  H51  1  0.91582987  0.14408267  0.59120688  1  0.036673  -2.8e-05  0.112947  0.109983  -3e-06  0.968942  0.0
H  H52  1  0.03173646  0.74693789  0.84427075  1  0.178857  -0.001289  0.116396  0.138827  -0.000675  1.027372  -0.001
H  H53  1  0.03172234  0.25305395  0.15574785  1  0.17888  0.001291  0.116402  0.13886  0.000658  1.027339  0.001
H  H54  1  0.96855028  0.75313979  0.34427201  1  0.175741  0.001319  0.11626  0.138628  0.000691  1.02747  0.001
H  H55  1  0.96852143  0.24685414  0.65572459  1  0.1757  0.001322  0.11624  0.138757  0.000682  1.02754  0.001
H  H56  1  0.99335628  0.83098455  0.77691569  1  0.184489  -0.001247  0.112734  0.133795  -0.000677  1.054812  -0.001
H  H57  1  0.99335835  0.16900963  0.22309004  1  0.184637  0.001268  0.112786  0.133868  0.000622  1.054717  0.001
H  H58  1  0.00701640  0.66903273  0.27690344  1  0.183999  0.001294  0.112683  0.133672  0.00064  1.054854  0.001
H  H59  1  0.00693282  0.33097054  0.72313024  1  0.184151  0.001292  0.112794  0.133891  0.000661  1.054891  0.001
H  H60  1  0.92168940  0.91546438  0.69437225  1  0.059216  8.8e-05  0.108889  0.105315  5.6e-05  0.990945  0.0
H  H61  1  0.92165773  0.08453207  0.30562794  1  0.059048  4.6e-05  0.108861  0.105226  3.6e-05  0.990928  0.0
H  H62  1  0.07859321  0.58457231  0.19433867  1  0.06084  4.7e-05  0.108848  0.105445  3.7e-05  0.990763  0.0
H  H63  1  0.07843296  0.41542464  0.80572238  1  0.060297  -6.8e-05  0.109057  0.105687  -3.5e-05  0.991056  0.0
H  H64  1  0.90793577  0.87855513  0.57922750  1  0.042885  -0.001246  0.103414  0.100052  -0.00063  1.000215  0.0
H  H65  1  0.90784786  0.12144044  0.42077311  1  0.041413  0.001329  0.103442  0.100116  0.000699  1.000272  0.0
H  H66  1  0.09224854  0.62148504  0.07919751  1  0.043528  0.001351  0.103549  0.100355  0.000711  0.99983  0.001
H  H67  1  0.09206039  0.37847821  0.92085601  1  0.041338  0.0013  0.103491  0.100199  0.00068  0.999841  0.001
H  H68  1  0.96896537  0.75449358  0.55380882  1  0.166117  -0.003028  0.136791  0.123514  -0.001454  0.962069  -0.002
H  H69  1  0.96883484  0.24550339  0.44619348  1  0.166139  0.003023  0.13672  0.123454  0.001491  0.96234  0.002
H  H70  1  0.03092745  0.74554771  0.05380763  1  0.166029  0.003079  0.136851  0.123425  0.00152  0.962428  0.002
H  H71  1  0.03077538  0.25441718  0.94621666  1  0.16491  0.003076  0.136874  0.123512  0.001517  0.962388  0.002
C  C72  1  0.55592211  0.49637607  0.56678975  1  0.831238  -0.002229  0.118333  0.285827  -0.00311  4.037036  -0.002
C  C73  1  0.55593058  0.50364294  0.43320552  1  0.831388  -0.002166  0.118527  0.286166  -0.003085  4.037386  -0.002
C  C74  1  0.44387060  0.00364272  0.06678228  1  0.753184  -0.002442  0.118675  0.286565  -0.003151  4.036529  -0.002
C  C75  1  0.44383027  0.99632964  0.93321344  1  0.830501  -0.002247  0.118695  0.286816  -0.003149  4.03657  -0.002
C  C76  1  0.55767077  0.56230910  0.54099844  1  -0.118955  -0.005184  -0.062131  -0.341398  -0.004174  3.910514  -0.004
C  C77  1  0.55769105  0.43770277  0.45899208  1  -0.11911  -0.005027  -0.062039  -0.341359  -0.004086  3.9107  -0.004
C  C78  1  0.44231141  0.93771139  0.04098374  1  -0.04001  -0.00539  -0.062228  -0.341588  -0.004473  3.90976  -0.004
C  C79  1  0.44225230  0.06226810  0.95899726  1  -0.118384  -0.005584  -0.062447  -0.341862  -0.004474  3.910195  -0.004
C  C80  1  0.54965869  0.56765566  0.47453341  1  0.720641  -0.003054  0.119948  0.288702  -0.003494  4.060336  -0.002
C  C81  1  0.54968888  0.43235222  0.52544949  1  0.718983  -0.003107  0.120088  0.289018  -0.003527  4.060729  -0.002
C  C82  1  0.45022159  0.93233670  0.97452605  1  0.720058  -0.003191  0.119709  0.288428  -0.003597  4.061118  -0.002
C  C83  1  0.45017249  0.06763610  0.02545356  1  0.719362  -0.003197  0.119744  0.288626  -0.003602  4.061541  -0.002
C  C84  1  0.60401759  0.46419753  0.76808060  1  0.454227  0.002224  0.064575  0.111876  0.000673  3.896563  0.002
C  C85  1  0.60400203  0.53583471  0.23190538  1  0.478605  0.002255  0.064866  0.112219  0.000665  3.897065  0.002
C  C86  1  0.39574325  0.03584324  0.26810052  1  0.4533  0.002219  0.064757  0.112085  0.000663  3.89584  0.002
C  C87  1  0.39576401  0.96415604  0.73188882  1  0.453574  0.00225  0.064703  0.11182  0.000688  3.896191  0.002
C  C88  1  0.61687182  0.46979044  0.83393488  1  -0.037616  -0.006053  -0.088979  -0.149561  -0.004047  4.011547  -0.005
C  C89  1  0.61685006  0.53025489  0.16605401  1  -0.030452  -0.006025  -0.089027  -0.149762  -0.004032  4.011654  -0.005
C  C90  1  0.38305148  0.03027101  0.33396501  1  -0.030917  -0.006027  -0.08878  -0.149165  -0.004032  4.010379  -0.005
C  C91  1  0.38308901  0.96973960  0.66602902  1  -0.031841  -0.005898  -0.088876  -0.149239  -0.00394  4.011166  -0.005
C  C92  1  0.58887338  0.41164618  0.87092631  1  -0.097086  0.004222  -0.071913  -0.040754  0.002811  4.007552  0.003
C  C93  1  0.58884283  0.58840910  0.12906577  1  -0.096759  0.004248  -0.07186  -0.040408  0.002829  4.007618  0.003
C  C94  1  0.41112988  0.08843440  0.37094179  1  -0.096541  0.004244  -0.071855  -0.040607  0.002826  4.007757  0.003
C  C95  1  0.41120577  0.91158813  0.62904383  1  -0.094554  0.004229  -0.072133  -0.041032  0.00282  4.007715  0.003
C  C96  1  0.55122659  0.34943495  0.84183992  1  0.058742  -0.003443  -0.070325  -0.145031  -0.002481  3.903237  -0.002
C  C97  1  0.55124269  0.65061105  0.15816055  1  0.057913  -0.003452  -0.070182  -0.144919  -0.002489  3.903522  -0.002
C  C98  1  0.44877279  0.15061407  0.34182618  1  0.056813  -0.003447  -0.070242  -0.145049  -0.002486  3.903901  -0.002
C  C99  1  0.44886312  0.84939332  0.65815105  1  0.05501  -0.003317  -0.070106  -0.144578  -0.002369  3.903273  -0.002
C  C100  1  0.54215646  0.34747563  0.77545119  1  0.431782  0.000203  0.128579  0.175372  -0.000351  3.967362  0.0
C  C101  1  0.54216784  0.65255724  0.22455113  1  0.43237  0.000207  0.128391  0.174748  -0.000352  3.968277  0.0
C  C102  1  0.45772537  0.15255575  0.27543945  1  0.434602  0.0002  0.128107  0.175033  -0.000352  3.968093  0.0
C  C103  1  0.45775796  0.84744392  0.72453592  1  0.431994  0.00021  0.128327  0.175048  -0.000325  3.967801  0.0
C  C104  1  0.50714554  0.28583830  0.73743096  1  0.449575  -0.000698  0.117963  0.153539  -0.001056  3.992922  -0.001
C  C105  1  0.50717447  0.71419137  0.26258640  1  0.450628  -0.000685  0.117877  0.153704  -0.001049  3.992427  -0.001
C  C106  1  0.49278121  0.21417950  0.23741562  1  0.450816  -0.000693  0.1181  0.153579  -0.001055  3.993048  -0.001
C  C107  1  0.49283835  0.78582184  0.76255849  1  0.4487  -0.000494  0.117724  0.153218  -0.000911  3.993721  -0.001
C  C108  1  0.47597768  0.22195156  0.76344059  1  -0.03291  -0.003358  -0.072983  -0.128893  -0.002445  3.903204  -0.003
C  C109  1  0.47603847  0.77809064  0.23658471  1  -0.033441  -0.003362  -0.072972  -0.12882  -0.002448  3.902913  -0.003
C  C110  1  0.52411846  0.27807379  0.26341458  1  -0.02387  -0.003364  -0.073108  -0.129048  -0.002449  3.902984  -0.003
C  C111  1  0.52416148  0.72193333  0.73655919  1  -0.031361  -0.003289  -0.07291  -0.128678  -0.002378  3.903392  -0.003
C  C112  1  0.44344951  0.16713650  0.72298953  1  0.045843  0.004118  -0.063455  -0.015605  0.002769  3.931465  0.003
C  C113  1  0.44348357  0.83288570  0.27704132  1  0.04862  0.004126  -0.063077  -0.015034  0.002775  3.931345  0.003
C  C114  1  0.55676726  0.33285943  0.22295020  1  0.037598  0.00412  -0.06327  -0.015399  0.00277  3.931238  0.003
C  C115  1  0.55678244  0.66714329  0.77701564  1  0.044902  0.004177  -0.063715  -0.016187  0.002824  3.931803  0.003
C  C116  1  0.44229406  0.17801484  0.65763919  1  -0.115625  -0.006399  -0.082473  -0.135511  -0.004259  3.995282  -0.005
C  C117  1  0.44229631  0.82199618  0.34239402  1  -0.115547  -0.006412  -0.082792  -0.136384  -0.004268  3.995898  -0.005
C  C118  1  0.55791889  0.32196400  0.15760332  1  -0.116594  -0.00641  -0.08282  -0.136155  -0.004267  3.995004  -0.005
C  C119  1  0.55788508  0.67803211  0.84236870  1  -0.116134  -0.00634  -0.082439  -0.135625  -0.004193  3.994776  -0.005
C  C120  1  0.47407530  0.24348351  0.63426465  1  0.54874  0.002515  0.06887  0.121869  0.000766  3.887653  0.002
C  C121  1  0.47402467  0.75651802  0.36575542  1  0.547957  0.00251  0.06891  0.12226  0.000776  3.887315  0.002
C  C122  1  0.52599362  0.25648532  0.13424319  1  0.551029  0.002521  0.06887  0.122205  0.00077  3.887213  0.002
C  C123  1  0.52597512  0.74350500  0.86573248  1  0.549309  0.002583  0.06893  0.122372  0.000818  3.887258  0.002
C  C124  1  0.05119241  0.51313468  0.56581102  1  0.780626  -0.003585  0.119119  0.287241  -0.00396  4.038572  -0.001
C  C125  1  0.05118962  0.48687780  0.43417491  1  0.781666  0.00376  0.119214  0.287421  0.004281  4.038508  0.002
C  C126  1  0.94886929  0.98688976  0.06586370  1  0.782521  0.002391  0.119468  0.287418  0.003354  4.037049  0.002
C  C127  1  0.94883422  0.01311353  0.93415940  1  0.781043  0.002364  0.119539  0.287766  0.003338  4.037705  0.002
C  C128  1  0.05570056  0.44406045  0.54845824  1  -0.152363  0.000336  -0.061958  -0.3418  0.000307  3.904281  0.0
C  C129  1  0.05568870  0.55593521  0.45154338  1  -0.15231  0.000597  -0.062149  -0.342122  0.000467  3.904506  0.0
C  C130  1  0.94390760  0.05593124  0.04842756  1  -0.152508  0.005899  -0.062236  -0.341912  0.004756  3.904283  0.004
C  C131  1  0.94393386  0.94406905  0.95155754  1  -0.152698  0.0059  -0.062301  -0.341928  0.00476  3.904434  0.004
C  C132  1  0.04641619  0.42927161  0.48316682  1  0.781883  0.004118  0.120457  0.289827  0.004532  4.056336  0.002
C  C133  1  0.04640417  0.57071245  0.51684757  1  0.782021  -0.003841  0.120553  0.289877  -0.004141  4.05583  -0.002
C  C134  1  0.95350278  0.07072402  0.98314507  1  0.78172  0.003174  0.120458  0.289913  0.003869  4.056199  0.002
C  C135  1  0.95355326  0.92923396  0.01683485  1  0.78092  0.003176  0.120656  0.289813  0.003879  4.054675  0.002
C  C136  1  0.09059552  0.57327327  0.76147622  1  0.459966  0.002308  0.061507  0.105964  0.000689  3.903381  0.002
C  C137  1  0.09062538  0.42671744  0.23853600  1  0.460131  -0.002264  0.0616  0.106138  -0.000517  3.902767  -0.002
C  C138  1  0.90926847  0.92674956  0.26141575  1  0.46002  -0.002319  0.062108  0.107217  -0.00054  3.902215  -0.002
C  C139  1  0.90926632  0.07323379  0.73856730  1  0.459407  -0.002316  0.061695  0.106738  -0.000536  3.902407  -0.002
C  C140  1  0.10074781  0.57653837  0.82756306  1  -0.040182  -0.005981  -0.090239  -0.153648  -0.003991  4.024207  -0.005
C  C141  1  0.10079936  0.42344615  0.17244920  1  -0.040239  0.006034  -0.090061  -0.153219  0.004141  4.023614  0.005
C  C142  1  0.89918740  0.92351736  0.32750719  1  -0.051271  0.006149  -0.090215  -0.154586  0.004221  4.024491  0.005
C  C143  1  0.89917693  0.07648186  0.67247962  1  -0.049832  0.006141  -0.090204  -0.154569  0.004211  4.024978  0.005
C  C144  1  0.07916472  0.63959145  0.85722657  1  0.001813  0.004137  -0.067227  -0.032749  0.002778  3.98553  0.003
C  C145  1  0.07916965  0.36039837  0.14278607  1  0.001144  -0.004185  -0.06738  -0.033247  -0.00273  3.985915  -0.003
C  C146  1  0.92092879  0.86049330  0.35719730  1  0.002605  -0.004291  -0.066915  -0.032156  -0.002806  3.985421  -0.003
C  C147  1  0.92095994  0.13951129  0.64280384  1  0.001947  -0.004279  -0.06684  -0.032123  -0.002791  3.985529  -0.003
C  C148  1  0.05070691  0.69790737  0.82082364  1  -0.030662  -0.003389  -0.068675  -0.13307  -0.002407  3.880931  -0.002
C  C149  1  0.05070941  0.30208122  0.17918412  1  -0.03002  0.003508  -0.068607  -0.132703  0.002579  3.880718  0.003
C  C150  1  0.94945263  0.80215777  0.32082161  1  -0.025866  0.003575  -0.068437  -0.132604  0.002633  3.879785  0.003
C  C151  1  0.94944258  0.19784704  0.67917918  1  -0.025391  0.003574  -0.068509  -0.132861  0.002629  3.879884  0.003
C  C152  1  0.04356279  0.69103610  0.75476618  1  0.486367  -2.5e-05  0.126827  0.169117  -0.000499  3.962038  0.0
C  C153  1  0.04355595  0.30895510  0.24524392  1  0.485864  5e-05  0.126883  0.168872  0.000664  3.961909  0.0
C  C154  1  0.95651431  0.80899107  0.25475871  1  0.486486  5.1e-05  0.126787  0.16869  0.000675  3.962043  0.0
C  C155  1  0.95646794  0.19100095  0.74524401  1  0.486599  5.2e-05  0.126815  0.169043  0.000677  3.961606  0.0
C  C156  1  0.01226251  0.74747862  0.70968666  1  0.431163  -0.000301  0.12248  0.163404  -0.000686  3.971326  0.0
C  C157  1  0.01222813  0.25251595  0.29032379  1  0.431998  0.000451  0.122416  0.163477  0.000917  3.970924  0.0
C  C158  1  0.98779468  0.75253625  0.20967849  1  0.4316  0.000458  0.122162  0.163241  0.000936  3.970944  0.0
C  C159  1  0.98776514  0.24744732  0.79032816  1  0.430211  0.000458  0.122416  0.163072  0.000934  3.971615  0.0
C  C160  1  0.98436983  0.81501428  0.72754046  1  0.053489  -0.003386  -0.073958  -0.134232  -0.00245  3.886744  -0.003
C  C161  1  0.98434438  0.18497644  0.27246712  1  0.053509  0.003405  -0.074016  -0.134255  0.002551  3.886454  0.003
C  C162  1  0.01581575  0.68500021  0.22752259  1  0.054514  0.003461  -0.073734  -0.134176  0.002595  3.88614  0.003
C  C163  1  0.01572824  0.31499280  0.77250117  1  0.055877  0.003469  -0.074161  -0.134517  0.002607  3.886786  0.003
C  C164  1  0.94621162  0.86281513  0.68048176  1  -0.059605  0.004105  -0.068232  -0.026506  0.002765  3.970788  0.003
C  C165  1  0.94615662  0.13718055  0.31952376  1  -0.060016  -0.00402  -0.068059  -0.026306  -0.002597  3.970743  -0.002
C  C166  1  0.05393713  0.63720275  0.18044403  1  -0.060439  -0.004118  -0.067949  -0.026242  -0.002661  3.970053  -0.003
C  C167  1  0.05387002  0.36277817  0.81959033  1  -0.058842  -0.004191  -0.067984  -0.026388  -0.002716  3.970798  -0.003
C  C168  1  0.93930670  0.84251080  0.61708004  1  -0.031811  -0.006063  -0.084926  -0.140275  -0.004034  4.004756  -0.005
C  C169  1  0.93923137  0.15747988  0.38292308  1  -0.030193  0.0061  -0.085056  -0.140402  0.004186  4.004982  0.005
C  C170  1  0.06075970  0.65751294  0.11705247  1  -0.032807  0.006219  -0.084749  -0.140209  0.004267  4.004571  0.005
C  C171  1  0.06064040  0.34245927  0.88298049  1  -0.030894  0.006204  -0.085206  -0.140515  0.004254  4.005784  0.005
C  C172  1  0.97232019  0.77438630  0.60217346  1  0.519165  0.002376  0.068159  0.120389  0.000763  3.893622  0.002
C  C173  1  0.97222455  0.22560403  0.39783407  1  0.519  -0.002273  0.068401  0.12068  -0.00056  3.89342  -0.002
C  C174  1  0.02762915  0.72562826  0.10215739  1  0.517895  -0.00232  0.068204  0.12045  -0.000574  3.893571  -0.002
C  C175  1  0.02754249  0.27433819  0.89786499  1  0.517998  -0.002324  0.068569  0.120875  -0.000574  3.893698  -0.002
S  S176  1  0.55648707  0.63322825  0.59506882  1  3.208713  -4e-05  0.493633  1.248798  -0.000301  6.153658  0.0
S  S177  1  0.55649697  0.36677905  0.40493072  1  3.209482  -0.001097  0.493803  1.249291  -0.0012  6.153312  -0.001
S  S178  1  0.44389715  0.86679012  0.09510364  1  3.207327  -0.0011  0.493806  1.249483  -0.001204  6.150663  -0.001
S  S179  1  0.44380372  0.13320003  0.90488544  1  3.206972  -0.001101  0.493793  1.249101  -0.001204  6.151049  -0.001
S  S180  1  0.06339482  0.38068721  0.61021429  1  3.203739  0.000476  0.49487  1.243477  0.000335  6.150364  0.001
S  S181  1  0.06336723  0.61930888  0.38980445  1  3.202761  0.000541  0.494953  1.243673  0.000569  6.150002  0.001
S  S182  1  0.93610332  0.11932501  0.11017180  1  3.205069  0.001035  0.494924  1.244326  0.001166  6.149833  0.001
S  S183  1  0.93616182  0.88066417  0.88982181  1  3.20407  0.001011  0.49469  1.243898  0.001119  6.149143  0.001
N  N184  1  0.56637775  0.40449518  0.74051281  1  -1.176172  -0.084504  -0.33405  -0.230837  -0.056357  3.566759  -0.073
N  N185  1  0.56639496  0.59553439  0.25948963  1  -1.175794  -0.084473  -0.334308  -0.230771  -0.056346  3.56707  -0.073
N  N186  1  0.43337927  0.09553036  0.24050582  1  -1.180363  -0.084435  -0.333874  -0.230785  -0.056321  3.566642  -0.073
N  N187  1  0.43338474  0.90446295  0.75947657  1  -1.175619  -0.084355  -0.334035  -0.230752  -0.056264  3.566559  -0.073
N  N188  1  0.50662603  0.29539512  0.67372354  1  -1.173397  -0.087523  -0.3438  -0.24743  -0.057918  3.612354  -0.075
N  N189  1  0.50660755  0.70462591  0.32629477  1  -1.174155  -0.087574  -0.343803  -0.247328  -0.057963  3.611528  -0.075
N  N190  1  0.49329977  0.20461378  0.17371407  1  -1.175121  -0.087549  -0.343976  -0.247623  -0.057947  3.612505  -0.075
N  N191  1  0.49329393  0.79537942  0.82626241  1  -1.173108  -0.087531  -0.343915  -0.247545  -0.057949  3.613574  -0.075
N  N192  1  0.06144303  0.62931987  0.72689183  1  -1.164394  -0.085061  -0.334942  -0.232524  -0.056527  3.57337  -0.073
N  N193  1  0.06148144  0.37066505  0.27312026  1  -1.164899  0.085229  -0.335152  -0.232746  0.058179  3.573254  0.073
N  N194  1  0.93845618  0.87067376  0.22686438  1  -1.164992  0.086853  -0.335466  -0.233541  0.059278  3.574379  0.075
N  N195  1  0.93841856  0.12931286  0.77313304  1  -1.16475  0.086828  -0.33513  -0.233126  0.059263  3.573656  0.075
N  N196  1  0.00802168  0.72878263  0.64775416  1  -1.201441  -0.083978  -0.339886  -0.247978  -0.055779  3.598181  -0.072
N  N197  1  0.00797968  0.27121147  0.35225579  1  -1.201313  0.083979  -0.340004  -0.248335  0.057276  3.597936  0.072
N  N198  1  0.99191251  0.77122543  0.14774708  1  -1.200181  0.08558  -0.339637  -0.247745  0.058353  3.597495  0.073
N  N199  1  0.99180252  0.22875097  0.85225960  1  -1.200214  0.08557  -0.339598  -0.247792  0.058345  3.597486  0.073
O  O200  1  0.55586189  0.48525559  0.62640713  1  -1.058839  -0.098105  -0.280866  -0.380659  -0.062663  2.398412  -0.088
O  O201  1  0.55582096  0.51475070  0.37359621  1  -1.059111  -0.097965  -0.280793  -0.380621  -0.062546  2.398711  -0.088
O  O202  1  0.44373792  0.01476178  0.12639716  1  -1.059189  -0.098057  -0.280843  -0.380695  -0.062616  2.397788  -0.088
O  O203  1  0.44367521  0.98521617  0.87359571  1  -1.059556  -0.098057  -0.280722  -0.380603  -0.062615  2.397817  -0.088
O  O204  1  0.53647002  0.62327563  0.44397118  1  -1.04248  -0.094623  -0.275464  -0.382413  -0.060354  2.377242  -0.085
O  O205  1  0.53647768  0.37673595  0.55603112  1  -1.042002  -0.094677  -0.275776  -0.382946  -0.060376  2.377657  -0.085
O  O206  1  0.46338527  0.87670496  0.94396783  1  -1.041692  -0.094874  -0.27546  -0.382378  -0.060515  2.376873  -0.085
O  O207  1  0.46330340  0.12326466  0.05602086  1  -1.041715  -0.094895  -0.275464  -0.382437  -0.060529  2.377833  -0.085
O  O208  1  0.70802386  0.61821126  0.64106116  1  -1.328089  -0.000927  -0.366299  -0.669361  -0.000652  2.309482  -0.002
O  O209  1  0.70799858  0.38178279  0.35892907  1  -1.328523  -0.002512  -0.366384  -0.66948  -0.001607  2.309283  -0.001
O  O210  1  0.29208694  0.88163690  0.14102790  1  -1.32803  -0.002781  -0.366504  -0.669685  -0.001787  2.30747  -0.001
O  O211  1  0.29208424  0.11832379  0.85892823  1  -1.327715  -0.002785  -0.366381  -0.669587  -0.001789  2.307608  -0.001
O  O212  1  0.58756075  0.69577547  0.55931833  1  -1.330905  -0.001614  -0.3656  -0.609328  -0.001038  2.104927  -0.001
O  O213  1  0.58756993  0.30423863  0.44069132  1  -1.330678  -0.001795  -0.365711  -0.609528  -0.001139  2.104942  -0.001
O  O214  1  0.41364328  0.80416279  0.05936243  1  -1.329524  -0.001817  -0.365595  -0.609445  -0.001148  2.103644  -0.001
O  O215  1  0.41338197  0.19581140  0.94063268  1  -1.329632  -0.001817  -0.365683  -0.609137  -0.001148  2.103821  -0.001
O  O216  1  0.37302779  0.63039090  0.62703229  1  -1.335806  0.00064  -0.365848  -0.662276  0.00052  2.288434  0.0
O  O217  1  0.37301382  0.36962438  0.37297831  1  -1.336149  -0.002242  -0.365865  -0.662427  -0.001476  2.288438  -0.001
O  O218  1  0.62727899  0.86992354  0.12712734  1  -1.33661  -0.002484  -0.365893  -0.663025  -0.001636  2.289701  -0.001
O  O219  1  0.62726184  0.13009880  0.87290622  1  -1.33607  -0.002482  -0.3658  -0.662889  -0.001634  2.289412  -0.001
O  O220  1  0.04801905  0.53265997  0.62345792  1  -1.036765  -0.100407  -0.277404  -0.376521  -0.064137  2.391261  -0.09
O  O221  1  0.04803814  0.46732813  0.37653607  1  -1.036654  0.100397  -0.277616  -0.376728  0.065836  2.391633  0.09
O  O222  1  0.95273257  0.96737315  0.12350573  1  -1.038576  0.098665  -0.278587  -0.377882  0.064717  2.391398  0.089
O  O223  1  0.95266014  0.03260162  0.87650030  1  -1.038392  0.098763  -0.27851  -0.377963  0.064781  2.390572  0.089
O  O224  1  0.03316485  0.36984023  0.45965350  1  -1.056226  0.094512  -0.275368  -0.383938  0.061973  2.37259  0.085
O  O225  1  0.03318827  0.63016125  0.54034280  1  -1.056325  -0.094216  -0.275391  -0.383985  -0.060139  2.371933  -0.084
O  O226  1  0.96717014  0.13017083  0.95968210  1  -1.057479  0.092631  -0.276174  -0.385265  0.060733  2.372791  0.083
O  O227  1  0.96726832  0.86979770  0.04032779  1  -1.056486  0.092524  -0.276268  -0.385141  0.060658  2.372752  0.083
O  O228  1  0.20958355  0.40432767  0.65495829  1  -1.324063  -0.000484  -0.368515  -0.66283  -0.000425  2.279369  -0.001
O  O229  1  0.20955337  0.59568827  0.34504637  1  -1.323353  0.002024  -0.368448  -0.662796  0.001381  2.279043  0.0
O  O230  1  0.79018716  0.09562056  0.15498800  1  -1.324887  0.002214  -0.368583  -0.663234  0.001443  2.27931  0.001
O  O231  1  0.79022106  0.90435842  0.84500877  1  -1.32432  0.001993  -0.368562  -0.663207  0.001298  2.278891  0.0
O  O232  1  0.87846737  0.38211854  0.64151259  1  -1.337236  0.001812  -0.36569  -0.663431  0.001259  2.279765  0.001
O  O233  1  0.87846680  0.61790479  0.35848884  1  -1.336894  0.001742  -0.365708  -0.663471  0.00127  2.279853  0.0
O  O234  1  0.12113720  0.11807684  0.14140952  1  -1.337306  0.002399  -0.36567  -0.663902  0.001652  2.279591  0.001
O  O235  1  0.12116216  0.88193594  0.85857198  1  -1.337225  0.001973  -0.365555  -0.663445  0.00137  2.279618  0.001
O  O236  1  0.10652686  0.31541652  0.58066424  1  -1.328618  0.001469  -0.356095  -0.600006  0.001039  2.13349  0.001
O  O237  1  0.10650498  0.68457811  0.41935042  1  -1.328767  -0.000774  -0.356259  -0.600132  -0.000595  2.133414  -0.001
O  O238  1  0.89253788  0.18455040  0.08063406  1  -1.329124  0.002108  -0.356306  -0.600391  0.00137  2.133895  0.002
O  O239  1  0.89266161  0.81542143  0.91934512  1  -1.329038  0.001724  -0.356134  -0.600222  0.001127  2.133325  0.001
