# generated using pymatgen
data_CuH4C6N5
_symmetry_space_group_name_H-M   'P 1'
_cell_length_a   3.63086899
_cell_length_b   13.09130802
_cell_length_c   17.51579561
_cell_angle_alpha   90.00098810
_cell_angle_beta   90.00127162
_cell_angle_gamma   91.06936927
_symmetry_Int_Tables_number   1
_chemical_formula_structural   CuH4C6N5
_chemical_formula_sum   'Cu4 H16 C24 N20'
_cell_volume   832.43022786
_cell_formula_units_Z   4
loop_
 _symmetry_equiv_pos_site_id
 _symmetry_equiv_pos_as_xyz
  1  'x, y, z'
loop_
 _atom_site_type_symbol
 _atom_site_label
 _atom_site_symmetry_multiplicity
 _atom_site_fract_x
 _atom_site_fract_y
 _atom_site_fract_z
 _atom_site_occupancy
 _atom_site_hle17_bader_spin_density
 _atom_site_hle17_ddec_charge
 _atom_site_hle17_ddec_spin_density
 _atom_site_hle17_ddec_sum_bond_order
 _atom_site_hle17_magmom
 _atom_site_hse06_10hf_bader_spin_density
 _atom_site_hse06_10hf_ddec_charge
 _atom_site_hse06_10hf_ddec_spin_density
 _atom_site_hse06_10hf_ddec_sum_bond_order
 _atom_site_hse06_10hf_magmom
 _atom_site_hse06_bader_spin_density
 _atom_site_hse06_ddec_charge
 _atom_site_hse06_ddec_spin_density
 _atom_site_hse06_ddec_sum_bond_order
 _atom_site_hse06_magmom
 _atom_site_pbe_bader_spin_density
 _atom_site_pbe_cm5_charge
 _atom_site_pbe_ddec_charge
 _atom_site_pbe_ddec_spin_density
 _atom_site_pbe_ddec_sum_bond_order
 _atom_site_pbe_magmom
Cu  Cu0  1  0.63844617  0.40349000  0.56178044  1  0  0.391682  0  1.837608  0  0  0.235899  0  2.331371  0  0  0.240158  0  2.281532  0  0  0.551931  0.237258  0  2.363606  0
Cu  Cu1  1  0.36155951  0.09650734  0.06177997  1  0  0.391737  0  1.837609  0  0  0.235953  0  2.331384  0  0  0.240184  0  2.281523  0  0  0.551965  0.237325  0  2.363629  0
Cu  Cu2  1  0.36155782  0.59650977  0.43821945  1  0  0.3917  0  1.837664  0  0  0.235939  0  2.33142  0  0  0.240194  0  2.281576  0  0  0.551939  0.237288  0  2.363654  0
Cu  Cu3  1  0.63844164  0.90349013  0.93822049  1  0  0.391753  0  1.837604  0  0  0.235962  0  2.331363  0  0  0.240218  0  2.28153  0  0  0.551964  0.237318  0  2.363641  0
H  H4  1  0.92432714  0.19464105  0.58196951  1  0  0.07843  0  0.923729  0  0  0.090808  0  0.979536  0  0  0.094078  0  0.975977  0  0  0.117387  0.088264  0  0.982351  0
H  H5  1  0.07567804  0.30535752  0.08197217  1  0  0.078462  0  0.923842  0  0  0.090895  0  0.979591  0  0  0.094127  0  0.976076  0  0  0.11741  0.088352  0  0.98241  0
H  H6  1  0.07567413  0.80535948  0.41803152  1  0  0.07837  0  0.923709  0  0  0.090774  0  0.979502  0  0  0.094023  0  0.975967  0  0  0.11737  0.088226  0  0.982314  0
H  H7  1  0.92431213  0.69464069  0.91802772  1  0  0.078385  0  0.923791  0  0  0.090783  0  0.979588  0  0  0.094038  0  0.976045  0  0  0.117367  0.088239  0  0.982408  0
H  H8  1  0.67682214  0.43739655  0.72357300  1  0  0.077449  0  0.976224  0  0  0.078668  0  1.052841  0  0  0.082125  0  1.049208  0  0  0.111128  0.076103  0  1.055542  0
H  H9  1  0.32318195  0.06260225  0.22357020  1  0  0.077395  0  0.976254  0  0  0.078616  0  1.052866  0  0  0.082073  0  1.049232  0  0  0.111112  0.076051  0  1.05557  0
H  H10  1  0.32318192  0.56260475  0.27642803  1  0  0.077461  0  0.97627  0  0  0.078674  0  1.052877  0  0  0.08213  0  1.049247  0  0  0.11113  0.076112  0  1.055572  0
H  H11  1  0.67682202  0.93739676  0.77642855  1  0  0.077369  0  0.976294  0  0  0.078589  0  1.052905  0  0  0.082047  0  1.04927  0  0  0.111099  0.076025  0  1.055602  0
H  H12  1  0.88191992  0.34194400  0.83972572  1  0  0.114896  0  0.92934  0  0  0.127852  0  0.981295  0  0  0.131439  0  0.979897  0  0  0.112098  0.125244  0  0.982524  0
H  H13  1  0.11808028  0.15805442  0.33972266  1  0  0.11488  0  0.92932  0  0  0.127833  0  0.981284  0  0  0.131421  0  0.979883  0  0  0.112097  0.125221  0  0.982511  0
H  H14  1  0.11807857  0.65805575  0.16027531  1  0  0.114871  0  0.929292  0  0  0.127821  0  0.981262  0  0  0.131407  0  0.979863  0  0  0.112094  0.125214  0  0.982491  0
H  H15  1  0.88192926  0.84194613  0.66027609  1  0  0.114865  0  0.929338  0  0  0.127822  0  0.981296  0  0  0.13141  0  0.979897  0  0  0.1121  0.125213  0  0.98252  0
H  H16  1  0.13070532  0.08867108  0.69255805  1  0  0.110838  0  0.93795  0  0  0.12429  0  0.990998  0  0  0.127297  0  0.990616  0  0  0.111109  0.122119  0  0.991479  0
H  H17  1  0.86928982  0.41132621  0.19256056  1  0  0.110855  0  0.937962  0  0  0.124246  0  0.991063  0  0  0.127254  0  0.990681  0  0  0.111098  0.12208  0  0.991543  0
H  H18  1  0.86929044  0.91132943  0.30744241  1  0  0.11084  0  0.937921  0  0  0.124256  0  0.991004  0  0  0.127264  0  0.990623  0  0  0.111096  0.122087  0  0.991488  0
H  H19  1  0.13070588  0.58867278  0.80743876  1  0  0.110815  0  0.93795  0  0  0.12426  0  0.990999  0  0  0.127269  0  0.990616  0  0  0.111101  0.122093  0  0.991487  0
C  C20  1  0.91730648  0.22420535  0.64017258  1  0  0.107419  0  3.734311  0  0  0.079417  0  3.982657  0  0  0.086252  0  3.999497  0  0  0.037022  0.074807  0  3.971882  0
C  C21  1  0.08269407  0.27579455  0.14017032  1  0  0.107375  0  3.734243  0  0  0.079284  0  3.982595  0  0  0.086151  0  3.999435  0  0  0.036984  0.074662  0  3.971855  0
C  C22  1  0.08269479  0.77579517  0.35982845  1  0  0.107457  0  3.734248  0  0  0.079417  0  3.982598  0  0  0.086267  0  3.999441  0  0  0.037013  0.07482  0  3.971801  0
C  C23  1  0.91730441  0.72420520  0.85982729  1  0  0.107455  0  3.734278  0  0  0.079415  0  3.982637  0  0  0.086262  0  3.999475  0  0  0.037017  0.074811  0  3.971866  0
C  C24  1  0.78358366  0.36036167  0.71937196  1  0  0.129242  0  3.688283  0  0  0.099155  0  3.939049  0  0  0.106231  0  3.955882  0  0  0.038731  0.094506  0  3.928044  0
C  C25  1  0.21641718  0.13963625  0.21937025  1  0  0.129334  0  3.688129  0  0  0.099229  0  3.938881  0  0  0.106302  0  3.955718  0  0  0.03876  0.094577  0  3.927878  0
C  C26  1  0.21641758  0.63963809  0.28062850  1  0  0.129143  0  3.688303  0  0  0.099068  0  3.939064  0  0  0.106141  0  3.955898  0  0  0.038697  0.094412  0  3.928064  0
C  C27  1  0.78358137  0.86036503  0.78062850  1  0  0.129391  0  3.688138  0  0  0.099295  0  3.938889  0  0  0.106367  0  3.955724  0  0  0.038796  0.094644  0  3.92788  0
C  C28  1  0.89644426  0.30715224  0.78337639  1  0  -0.146246  0  3.703037  0  0  -0.164593  0  3.945618  0  0  -0.173118  0  3.966756  0  0  -0.080895  -0.159132  0  3.931726  0
C  C29  1  0.10355259  0.19284716  0.28337486  1  0  -0.146128  0  3.702936  0  0  -0.164458  0  3.945533  0  0  -0.172982  0  3.966674  0  0  -0.08085  -0.158989  0  3.931631  0
C  C30  1  0.10355429  0.69284905  0.21662522  1  0  -0.146131  0  3.702943  0  0  -0.164461  0  3.945533  0  0  -0.172986  0  3.966673  0  0  -0.080846  -0.158999  0  3.931643  0
C  C31  1  0.89645143  0.80715337  0.71662389  1  0  -0.146178  0  3.702912  0  0  -0.164522  0  3.945496  0  0  -0.173049  0  3.966634  0  0  -0.080879  -0.159055  0  3.931597  0
C  C32  1  0.02665367  0.20761331  0.77524910  1  0  0.07424  0  3.778381  0  0  0.085737  0  4.012338  0  0  0.092095  0  4.033149  0  0  0.016428  0.081373  0  3.998356  0
C  C33  1  0.97333944  0.29238360  0.27524882  1  0  0.074031  0  3.778542  0  0  0.085473  0  4.012559  0  0  0.091826  0  4.033383  0  0  0.016311  0.081111  0  3.998577  0
C  C34  1  0.97334481  0.79238645  0.22475194  1  0  0.074189  0  3.77834  0  0  0.085644  0  4.012358  0  0  0.092004  0  4.033163  0  0  0.016361  0.081276  0  3.998382  0
C  C35  1  0.02666174  0.70761463  0.72475164  1  0  0.07405  0  3.778386  0  0  0.085552  0  4.012363  0  0  0.091906  0  4.033185  0  0  0.016349  0.081188  0  3.998397  0
C  C36  1  0.03259808  0.16585444  0.70140292  1  0  -0.147706  0  3.716404  0  0  -0.168657  0  3.963899  0  0  -0.177286  0  3.986589  0  0  -0.083993  -0.16308  0  3.94884  0
C  C37  1  0.96739537  0.33414535  0.20140373  1  0  -0.147576  0  3.716304  0  0  -0.168445  0  3.963812  0  0  -0.17707  0  3.98649  0  0  -0.083917  -0.162866  0  3.94875  0
C  C38  1  0.96740319  0.83414609  0.29859811  1  0  -0.147663  0  3.716292  0  0  -0.168562  0  3.9638  0  0  -0.177191  0  3.986485  0  0  -0.083957  -0.16299  0  3.948748  0
C  C39  1  0.03259497  0.66585745  0.79859502  1  0  -0.14754  0  3.716428  0  0  -0.168489  0  3.96393  0  0  -0.177116  0  3.986614  0  0  -0.083916  -0.162914  0  3.948888  0
C  C40  1  0.15262391  0.14949296  0.84055691  1  0  0.231412  0  3.815614  0  0  0.213604  0  4.091347  0  0  0.216752  0  4.112302  0  0  0.203123  0.21164  0  4.076925  0
C  C41  1  0.84737084  0.35050471  0.34055796  1  0  0.231449  0  3.815564  0  0  0.213662  0  4.091286  0  0  0.216812  0  4.112238  0  0  0.203132  0.211692  0  4.076873  0
C  C42  1  0.84737730  0.85050604  0.15944412  1  0  0.231389  0  3.81567  0  0  0.213585  0  4.091424  0  0  0.216732  0  4.11238  0  0  0.203116  0.211626  0  4.076999  0
C  C43  1  0.15263316  0.64949506  0.65944136  1  0  0.231571  0  3.815384  0  0  0.213748  0  4.09112  0  0  0.216898  0  4.112069  0  0  0.203156  0.211771  0  4.07672  0
N  N44  1  0.37083357  0.02832003  0.90612316  1  0  -0.092133  0  3.274538  0  0  -0.040448  0  3.601703  0  0  -0.038861  0  3.600341  0  0  -0.160124  -0.042775  0  3.603952  0
N  N45  1  0.62917114  0.47167918  0.40612422  1  0  -0.09213  0  3.274384  0  0  -0.040475  0  3.601562  0  0  -0.038885  0  3.600193  0  0  -0.160124  -0.042804  0  3.603794  0
N  N46  1  0.62916214  0.97167895  0.09387674  1  0  -0.09208  0  3.274444  0  0  -0.040403  0  3.601582  0  0  -0.038805  0  3.600203  0  0  -0.160108  -0.042731  0  3.603839  0
N  N47  1  0.37083007  0.52831982  0.59387510  1  0  -0.092087  0  3.274328  0  0  -0.040408  0  3.601492  0  0  -0.038821  0  3.600126  0  0  -0.160076  -0.042734  0  3.603724  0
N  N48  1  0.28911184  0.05453515  0.83500961  1  0  -0.274614  0  2.959044  0  0  -0.253713  0  3.236571  0  0  -0.262707  0  3.250791  0  0  -0.209898  -0.247224  0  3.227056  0
N  N49  1  0.71088787  0.44546393  0.33501071  1  0  -0.274656  0  2.958931  0  0  -0.253751  0  3.236463  0  0  -0.262745  0  3.250675  0  0  -0.20991  -0.247268  0  3.226957  0
N  N50  1  0.71088665  0.94546461  0.16499085  1  0  -0.274646  0  2.9591  0  0  -0.253743  0  3.236631  0  0  -0.262739  0  3.250849  0  0  -0.209912  -0.247257  0  3.227122  0
N  N51  1  0.28911338  0.55453584  0.66498862  1  0  -0.274769  0  2.959005  0  0  -0.253858  0  3.236551  0  0  -0.262852  0  3.250764  0  0  -0.209954  -0.247377  0  3.22705  0
N  N52  1  0.14929725  0.18279280  0.91361404  1  0  -0.276366  0  2.907944  0  0  -0.265042  0  3.18182  0  0  -0.27167  0  3.19302  0  0  -0.22031  -0.260314  0  3.174423  0
N  N53  1  0.85069720  0.31720504  0.41361182  1  0  -0.276373  0  2.907958  0  0  -0.265054  0  3.181822  0  0  -0.271682  0  3.193021  0  0  -0.220305  -0.260321  0  3.174409  0
N  N54  1  0.85070396  0.81720620  0.08638700  1  0  -0.276381  0  2.907995  0  0  -0.26507  0  3.181863  0  0  -0.271698  0  3.193068  0  0  -0.220319  -0.260338  0  3.174465  0
N  N55  1  0.14930401  0.68279396  0.58638694  1  0  -0.276427  0  2.907966  0  0  -0.265082  0  3.181849  0  0  -0.271713  0  3.193054  0  0  -0.220337  -0.260348  0  3.17443  0
N  N56  1  0.28586710  0.10610228  0.95365942  1  0  -0.08735  0  3.362504  0  0  -0.032705  0  3.702593  0  0  -0.031904  0  3.70033  0  0  -0.170481  -0.034488  0  3.705316  0
N  N57  1  0.71413451  0.39389650  0.45365929  1  0  -0.087296  0  3.362317  0  0  -0.032611  0  3.702368  0  0  -0.031823  0  3.700123  0  0  -0.170442  -0.034382  0  3.705053  0
N  N58  1  0.71413133  0.89389595  0.04634104  1  0  -0.087368  0  3.362427  0  0  -0.032683  0  3.702484  0  0  -0.031894  0  3.700239  0  0  -0.170475  -0.034466  0  3.705215  0
N  N59  1  0.28586673  0.60610327  0.54634004  1  0  -0.087297  0  3.362377  0  0  -0.032672  0  3.702494  0  0  -0.031882  0  3.700243  0  0  -0.170479  -0.034435  0  3.70516  0
N  N60  1  0.79376124  0.32061143  0.64801785  1  0  -0.291207  0  3.393156  0  0  -0.210301  0  3.694511  0  0  -0.220899  0  3.700078  0  0  -0.37327  -0.204339  0  3.691134  0
N  N61  1  0.20624284  0.17938638  0.14801718  1  0  -0.291351  0  3.393158  0  0  -0.210385  0  3.694489  0  0  -0.220967  0  3.700019  0  0  -0.373305  -0.204421  0  3.691124  0
N  N62  1  0.20624281  0.67938987  0.35198319  1  0  -0.291177  0  3.393139  0  0  -0.210252  0  3.694483  0  0  -0.220839  0  3.70003  0  0  -0.37322  -0.204287  0  3.691092  0
N  N63  1  0.79375562  0.82061261  0.85198214  1  0  -0.291325  0  3.393156  0  0  -0.210381  0  3.694497  0  0  -0.22097  0  3.700047  0  0  -0.37329  -0.204416  0  3.691132  0
