# generated using pymatgen
data_Al2H9C20S2N(ClO5)2
_symmetry_space_group_name_H-M   'P 1'
_cell_length_a   6.63166857
_cell_length_b   11.14955820
_cell_length_c   12.48447687
_cell_angle_alpha   79.18669777
_cell_angle_beta   78.38091020
_cell_angle_gamma   72.08125173
_symmetry_Int_Tables_number   1
_chemical_formula_structural   Al2H9C20S2N(ClO5)2
_chemical_formula_sum   'Al2 H9 C20 S2 N1 Cl2 O10'
_cell_volume   852.47585633
_cell_formula_units_Z   1
loop_
 _symmetry_equiv_pos_site_id
 _symmetry_equiv_pos_as_xyz
  1  'x, y, z'
loop_
 _atom_site_type_symbol
 _atom_site_label
 _atom_site_symmetry_multiplicity
 _atom_site_fract_x
 _atom_site_fract_y
 _atom_site_fract_z
 _atom_site_occupancy
 _atom_site_pbe_bader_charge
 _atom_site_pbe_bader_spin_density
 _atom_site_pbe_cm5_charge
 _atom_site_pbe_ddec_charge
 _atom_site_pbe_ddec_spin_density
 _atom_site_pbe_ddec_sum_bond_order
 _atom_site_pbe_magmom
Al  Al0  1  0.49058488  0.49715307  0.50492751  1  2.50278  0  0.389278  1.635693  0  2.594921  0
Al  Al1  1  0.98563657  0.50183635  0.50647008  1  2.500477  0  0.393412  1.633174  0  2.573067  0
H  H2  1  0.29247222  0.34032689  0.55940642  1  0.602822  0  0.349996  0.425706  0  0.862025  0
H  H3  1  0.74696720  0.58589291  0.37308992  1  0.624845  0  0.34391  0.417015  0  0.878151  0
H  H4  1  0.65368926  0.57523343  0.15897517  1  0.113101  0  0.113067  0.135091  0  0.996798  0
H  H5  1  0.23847135  0.24744080  0.36433375  1  0.099356  0  0.107997  0.130304  0  1.029784  0
H  H6  1  0.47438294  0.77640220  0.38513997  1  0.10454  0  0.113383  0.132139  0  1.035836  0
H  H7  1  0.75055862  0.87196597  0.57471070  1  0.115827  0  0.115554  0.124886  0  0.974173  0
H  H8  1  0.63297930  0.10863991  0.56792556  1  0.064292  0  0.109425  0.113277  0  0.986899  0
H  H9  1  0.12323872  0.43885102  0.88109172  1  0.471107  0  0.281901  0.269391  0  1.03426  0
H  H10  1  0.28953344  0.43921902  0.75384423  1  0.502491  0  0.311957  0.325519  0  0.955253  0
C  C11  1  0.85479758  0.27250043  0.49217220  1  1.567559  0  0.269003  0.65423  0  4.074048  0
C  C12  1  0.66992153  0.49581454  0.70124941  1  1.541768  0  0.24797  0.650657  0  4.155176  0
C  C13  1  0.13377427  0.72432703  0.50629226  1  1.619893  0  0.270431  0.644464  0  4.089829  0
C  C14  1  0.30099498  0.51537907  0.30529306  1  1.569234  0  0.253251  0.640534  0  4.156211  0
C  C15  1  0.40781079  0.47765251  0.87747896  1  0.570505  0  0.114705  0.292639  0  4.106218  0
C  C16  1  0.54080138  0.54769935  0.12328304  1  0.061235  0  -0.089348  -0.130709  0  3.971398  0
C  C17  1  0.59548172  0.50580855  0.81648889  1  -0.160346  0  -0.045954  -0.27048  0  3.946493  0
C  C18  1  0.36058663  0.51791370  0.18550682  1  -0.145718  0  -0.024752  -0.129782  0  3.991119  0
C  C19  1  0.55623472  0.53552787  0.01147970  1  -0.168642  0  -0.021842  0.006879  0  4.114993  0
C  C20  1  0.38876499  0.49557329  0.98998630  1  -0.149653  0  -0.025954  -0.117578  0  4.012851  0
C  C21  1  0.93506114  0.13329495  0.48433281  1  -0.014488  0  -0.008204  -0.081981  0  3.929947  0
C  C22  1  0.14658275  0.07386861  0.43237581  1  0.088603  0  0.000904  0.071656  0  3.95492  0
C  C23  1  0.79541820  0.06088943  0.53199206  1  0.032378  0  -0.079236  -0.086634  0  3.992733  0
C  C24  1  0.28723683  0.14423760  0.37057309  1  0.040688  0  -0.096377  -0.194212  0  3.950768  0
C  C25  1  0.48497179  0.08461134  0.31544476  1  0.00998  0  0.008518  0.090814  0  4.069867  0
C  C26  1  0.06924056  0.86615117  0.49371544  1  -0.019752  0  -0.004188  -0.074467  0  3.928948  0
C  C27  1  0.86138846  0.92799700  0.53640447  1  -0.087703  0  -0.077546  -0.088648  0  3.98339  0
C  C28  1  0.21481680  0.93758326  0.43763997  1  -0.020219  0  0.003413  0.072733  0  3.949843  0
C  C29  1  0.41958414  0.87916488  0.38111926  1  0.029543  0  -0.090636  -0.180693  0  3.939592  0
C  C30  1  0.55187331  0.94987842  0.32060361  1  0.097507  0  0.009087  0.09175  0  4.064567  0
S  S31  1  0.73803656  0.55607957  0.89470642  1  0.213126  0  0.068517  0.091367  0  2.851441  0
S  S32  1  0.20924220  0.47517831  0.10804788  1  0.242342  0  0.083839  0.134026  0  2.782716  0
N  N33  1  0.27120506  0.43536305  0.83737523  1  -1.280216  0  -0.575646  -0.567921  0  3.358859  0
Cl  Cl34  1  0.64792251  0.17440125  0.23952533  1  -0.194572  0  -0.000395  -0.060585  0  1.5551  0
Cl  Cl35  1  0.79587490  0.87336520  0.25030210  1  -0.195414  0  -0.005197  -0.066673  0  1.518742  0
O  O36  1  0.65912774  0.32635828  0.48087626  1  -1.258494  0  -0.239044  -0.604957  0  2.350931  0
O  O37  1  0.84978580  0.51623345  0.65550096  1  -1.264759  0  -0.247171  -0.588847  0  2.295  0
O  O38  1  0.99682882  0.67253191  0.49194449  1  -1.252739  0  -0.229469  -0.587275  0  2.370948  0
O  O39  1  0.43597936  0.53530440  0.35501257  1  -1.270387  0  -0.241702  -0.602583  0  2.358917  0
O  O40  1  0.31950462  0.66493684  0.53055374  1  -1.264054  0  -0.233344  -0.577601  0  2.336073  0
O  O41  1  0.12261978  0.49374180  0.35076270  1  -1.260242  0  -0.246112  -0.600529  0  2.336202  0
O  O42  1  0.98406752  0.32617744  0.51351886  1  -1.266991  0  -0.238458  -0.603897  0  2.347488  0
O  O43  1  0.54816637  0.46350936  0.65013162  1  -1.27417  0  -0.243756  -0.609484  0  2.377855  0
O  O44  1  0.25318261  0.43252153  0.55312421  1  -1.408143  0  -0.447203  -0.978738  0  2.173273  0
O  O45  1  0.72717255  0.56017171  0.45223797  1  -1.429298  0  -0.447985  -0.979668  0  2.210882  0
