# generated using pymatgen
data_GdH9C9NO11
_symmetry_space_group_name_H-M   'P 1'
_cell_length_a   7.44920208
_cell_length_b   9.24777027
_cell_length_c   11.53660133
_cell_angle_alpha   72.27883215
_cell_angle_beta   69.65347585
_cell_angle_gamma   80.96527014
_symmetry_Int_Tables_number   1
_chemical_formula_structural   GdH9C9NO11
_chemical_formula_sum   'Gd2 H18 C18 N2 O22'
_cell_volume   708.62757325
_cell_formula_units_Z   2
loop_
 _symmetry_equiv_pos_site_id
 _symmetry_equiv_pos_as_xyz
  1  'x, y, z'
loop_
 _atom_site_type_symbol
 _atom_site_label
 _atom_site_symmetry_multiplicity
 _atom_site_fract_x
 _atom_site_fract_y
 _atom_site_fract_z
 _atom_site_occupancy
 _atom_site_hle17_bader_spin_density
 _atom_site_hle17_ddec_charge
 _atom_site_hle17_ddec_spin_density
 _atom_site_hle17_ddec_sum_bond_order
 _atom_site_hle17_magmom
 _atom_site_hse06_10hf_bader_spin_density
 _atom_site_hse06_10hf_ddec_charge
 _atom_site_hse06_10hf_ddec_spin_density
 _atom_site_hse06_10hf_ddec_sum_bond_order
 _atom_site_hse06_10hf_magmom
 _atom_site_hse06_bader_spin_density
 _atom_site_hse06_ddec_charge
 _atom_site_hse06_ddec_spin_density
 _atom_site_hse06_ddec_sum_bond_order
 _atom_site_hse06_magmom
 _atom_site_pbe_bader_spin_density
 _atom_site_pbe_cm5_charge
 _atom_site_pbe_ddec_charge
 _atom_site_pbe_ddec_spin_density
 _atom_site_pbe_ddec_sum_bond_order
 _atom_site_pbe_magmom
Gd  Gd0  1  0.61045339  0.55220613  0.72180947  1  0  2.185403  0  1.790886  0  0  2.099907  0  2.14833  0  0  2.150669  0  2.093255  0  0  1.468527  2.061081  0  2.191479  0
Gd  Gd1  1  0.38954347  0.44779366  0.27819661  1  0  2.185387  0  1.790891  0  0  2.099967  0  2.148247  0  0  2.150736  0  2.093152  0  0  1.468479  2.061109  0  2.191419  0
H  H2  1  0.72664555  0.00633003  0.78196901  1  0  0.127123  0  0.915257  0  0  0.135255  0  0.974466  0  0  0.13998  0  0.970183  0  0  0.119285  0.13183  0  0.977585  0
H  H3  1  0.27336025  0.99366890  0.21802669  1  0  0.127226  0  0.915251  0  0  0.135302  0  0.97452  0  0  0.140027  0  0.970237  0  0  0.119304  0.131878  0  0.977637  0
H  H4  1  0.68471524  0.14834833  0.11300644  1  0  0.128021  0  0.963715  0  0  0.130686  0  1.036044  0  0  0.13562  0  1.031063  0  0  0.121874  0.127061  0  1.039748  0
H  H5  1  0.31528766  0.85165174  0.88698701  1  0  0.12797  0  0.9638  0  0  0.130655  0  1.036098  0  0  0.13559  0  1.031112  0  0  0.121863  0.12703  0  1.039815  0
H  H6  1  0.87215218  0.68450638  0.10146453  1  0  0.144438  0  0.920903  0  0  0.148673  0  0.987291  0  0  0.153466  0  0.982941  0  0  0.129808  0.145084  0  0.990623  0
H  H7  1  0.12785063  0.31549363  0.89853243  1  0  0.144467  0  0.920903  0  0  0.148693  0  0.987285  0  0  0.153483  0  0.982941  0  0  0.129843  0.145118  0  0.99061  0
H  H8  1  0.98490275  0.55646020  0.72770938  1  0  0.433973  0  0.868563  0  0  0.399292  0  0.938994  0  0  0.411168  0  0.921465  0  0  0.299021  0.390884  0  0.951377  0
H  H9  1  0.01510020  0.44353750  0.27229069  1  0  0.434036  0  0.868463  0  0  0.399339  0  0.938909  0  0  0.411217  0  0.921379  0  0  0.299051  0.39093  0  0.951294  0
H  H10  1  0.05387427  0.50843517  0.59529225  1  0  0.461234  0  0.826145  0  0  0.433491  0  0.881418  0  0  0.444776  0  0.865072  0  0  0.309917  0.42546  0  0.89304  0
H  H11  1  0.94611993  0.49156469  0.40470745  1  0  0.461182  0  0.826216  0  0  0.43343  0  0.881502  0  0  0.444717  0  0.865154  0  0  0.309902  0.425398  0  0.893128  0
H  H12  1  0.18406020  0.60882771  0.87247129  1  0  0.452095  0  0.843475  0  0  0.418184  0  0.91114  0  0  0.429689  0  0.894439  0  0  0.297857  0.410046  0  0.922917  0
H  H13  1  0.81593942  0.39117447  0.12752930  1  0  0.452101  0  0.843476  0  0  0.418183  0  0.911153  0  0  0.42969  0  0.89445  0  0  0.297841  0.410041  0  0.922935  0
H  H14  1  0.31797882  0.61366573  0.95653756  1  0  0.452707  0  0.843953  0  0  0.423013  0  0.904938  0  0  0.434173  0  0.88877  0  0  0.303707  0.415092  0  0.916412  0
H  H15  1  0.68201343  0.38633740  0.04346873  1  0  0.452775  0  0.843858  0  0  0.423081  0  0.904844  0  0  0.434241  0  0.888677  0  0  0.303749  0.415159  0  0.91632  0
H  H16  1  0.63068284  0.85173986  0.49665627  1  0  0.441087  0  0.846109  0  0  0.406866  0  0.913156  0  0  0.4184  0  0.895997  0  0  0.307513  0.398731  0  0.925242  0
H  H17  1  0.36931887  0.14825672  0.50334172  1  0  0.441063  0  0.846149  0  0  0.406858  0  0.913172  0  0  0.418393  0  0.896011  0  0  0.307515  0.398719  0  0.925265  0
H  H18  1  0.51404896  0.88939903  0.62952323  1  0  0.448915  0  0.830514  0  0  0.423604  0  0.883  0  0  0.433393  0  0.868406  0  0  0.319075  0.416666  0  0.89337  0
H  H19  1  0.48594528  0.11060205  0.37047097  1  0  0.448891  0  0.830531  0  0  0.423585  0  0.883019  0  0  0.433377  0  0.868418  0  0  0.319054  0.41664  0  0.893399  0
C  C20  1  0.80200212  0.83153366  0.93405126  1  0  -0.046277  0  3.707843  0  0  -0.021624  0  3.949656  0  0  -0.030632  0  3.970935  0  0  -0.003793  -0.016135  0  3.935487  0
C  C21  1  0.19800332  0.16846867  0.06594459  1  0  -0.046164  0  3.707916  0  0  -0.02151  0  3.94966  0  0  -0.030516  0  3.970941  0  0  -0.003753  -0.016018  0  3.935491  0
C  C22  1  0.74522105  0.97984360  0.87594671  1  0  -0.03769  0  3.630962  0  0  -0.081068  0  3.884793  0  0  -0.077069  0  3.901802  0  0  -0.058558  -0.083344  0  3.873282  0
C  C23  1  0.25478607  0.02015650  0.12404843  1  0  -0.037982  0  3.631315  0  0  -0.081316  0  3.885157  0  0  -0.07732  0  3.902169  0  0  -0.058631  -0.083594  0  3.873639  0
C  C24  1  0.71164525  0.09598884  0.93646345  1  0  -0.050706  0  3.737453  0  0  -0.025259  0  3.975155  0  0  -0.035707  0  3.999486  0  0  -0.008742  -0.018808  0  3.959062  0
C  C25  1  0.28836325  0.90401125  0.06353314  1  0  -0.050508  0  3.737427  0  0  -0.025082  0  3.975102  0  0  -0.03553  0  3.999433  0  0  -0.008745  -0.018628  0  3.958998  0
C  C26  1  0.72010261  0.06176400  0.06117609  1  0  -0.086206  0  3.662297  0  0  -0.12557  0  3.921024  0  0  -0.1217  0  3.937855  0  0  -0.064648  -0.127857  0  3.909808  0
C  C27  1  0.27990313  0.93823610  0.93881761  1  0  -0.086178  0  3.66224  0  0  -0.125536  0  3.920956  0  0  -0.121674  0  3.937808  0  0  -0.064606  -0.127821  0  3.909751  0
C  C28  1  0.77677585  0.91374408  0.11700470  1  0  0.06702  0  3.713007  0  0  0.059984  0  3.980232  0  0  0.054351  0  4.00342  0  0  0.083245  0.06336  0  3.964603  0
C  C29  1  0.22322840  0.08625597  0.88299107  1  0  0.067017  0  3.712982  0  0  0.059951  0  3.980225  0  0  0.054317  0  4.00341  0  0  0.083278  0.063323  0  3.96461  0
C  C30  1  0.82619308  0.79834831  0.05437441  1  0  -0.077984  0  3.631094  0  0  -0.119811  0  3.894411  0  0  -0.115171  0  3.909392  0  0  -0.056824  -0.12232  0  3.884157  0
C  C31  1  0.17381107  0.20165288  0.94562112  1  0  -0.078033  0  3.631189  0  0  -0.119842  0  3.894517  0  0  -0.115199  0  3.90949  0  0  -0.056883  -0.122359  0  3.884257  0
C  C32  1  0.82404248  0.70927627  0.86766062  1  0  0.692726  0  3.86591  0  0  0.639954  0  4.161842  0  0  0.674925  0  4.153196  0  0  0.231815  0.616286  0  4.166881  0
C  C33  1  0.17596025  0.29072369  0.13233896  1  0  0.692681  0  3.86593  0  0  0.639936  0  4.16181  0  0  0.674908  0  4.153164  0  0  0.231797  0.616255  0  4.166869  0
C  C34  1  0.66207213  0.25416268  0.86746746  1  0  0.64863  0  3.915785  0  0  0.597912  0  4.22021  0  0  0.631576  0  4.214054  0  0  0.199944  0.575256  0  4.223303  0
C  C35  1  0.33793503  0.74583623  0.13253055  1  0  0.648452  0  3.915725  0  0  0.597747  0  4.220152  0  0  0.631412  0  4.213999  0  0  0.199893  0.575093  0  4.223239  0
C  C36  1  0.60614078  0.50268084  0.45724529  1  0  0.566714  0  3.905698  0  0  0.521646  0  4.206106  0  0  0.551649  0  4.197978  0  0  0.226769  0.501296  0  4.21064  0
C  C37  1  0.39385263  0.49731974  0.54277868  1  0  0.566482  0  3.906174  0  0  0.5216  0  4.206331  0  0  0.551624  0  4.198177  0  0  0.226878  0.501247  0  4.210868  0
N  N38  1  0.78577338  0.87632911  0.24712612  1  0  0.51748  0  3.859046  0  0  0.539307  0  4.161265  0  0  0.560805  0  4.169679  0  0  0.068233  0.524961  0  4.155464  0
N  N39  1  0.21422527  0.12366971  0.75287113  1  0  0.517505  0  3.859072  0  0  0.539331  0  4.161297  0  0  0.560826  0  4.169714  0  0  0.068211  0.524983  0  4.155503  0
O  O40  1  0.68963504  0.71076251  0.82292443  1  0  -0.703587  0  2.009712  0  0  -0.658991  0  2.258983  0  0  -0.686838  0  2.250081  0  0  -0.38652  -0.639115  0  2.26455  0
O  O41  1  0.31036473  0.28923855  0.17707554  1  0  -0.70357  0  2.009725  0  0  -0.658997  0  2.258982  0  0  -0.686845  0  2.25008  0  0  -0.386517  -0.639116  0  2.264555  0
O  O42  1  0.96920641  0.61596742  0.85951638  1  0  -0.620054  0  1.98926  0  0  -0.555931  0  2.20144  0  0  -0.581692  0  2.190304  0  0  -0.289635  -0.53792  0  2.208616  0
O  O43  1  0.03079376  0.38403028  0.14048168  1  0  -0.620051  0  1.989251  0  0  -0.555926  0  2.201415  0  0  -0.581692  0  2.19028  0  0  -0.289619  -0.537909  0  2.208593  0
O  O44  1  0.62510122  0.27719413  0.76344422  1  0  -0.672774  0  1.943583  0  0  -0.641077  0  2.178296  0  0  -0.666151  0  2.171304  0  0  -0.373312  -0.623357  0  2.182548  0
O  O45  1  0.37490240  0.72281035  0.23655759  1  0  -0.6727  0  1.943477  0  0  -0.641014  0  2.178169  0  0  -0.666089  0  2.171177  0  0  -0.373256  -0.623299  0  2.18242  0
O  O46  1  0.65941083  0.36593774  0.91231178  1  0  -0.69298  0  2.042111  0  0  -0.640956  0  2.277869  0  0  -0.667244  0  2.269271  0  0  -0.359628  -0.622403  0  2.283313  0
O  O47  1  0.34058792  0.63405874  0.08769033  1  0  -0.692899  0  2.042034  0  0  -0.640879  0  2.277777  0  0  -0.667168  0  2.269181  0  0  -0.359624  -0.622333  0  2.283224  0
O  O48  1  0.67295703  0.94927623  0.32268192  1  0  -0.418633  0  1.782629  0  0  -0.383058  0  1.983857  0  0  -0.399677  0  1.976386  0  0  -0.131298  -0.372123  0  1.989226  0
O  O49  1  0.32704566  0.05072492  0.67731480  1  0  -0.418727  0  1.782609  0  0  -0.383147  0  1.98383  0  0  -0.399766  0  1.976362  0  0  -0.131343  -0.372207  0  1.989202  0
O  O50  1  0.90177638  0.77511969  0.27859790  1  0  -0.300608  0  1.79002  0  0  -0.27577  0  1.995011  0  0  -0.285239  0  1.991612  0  0  -0.075613  -0.26955  0  1.997562  0
O  O51  1  0.09821842  0.22487452  0.72140125  1  0  -0.300536  0  1.790072  0  0  -0.27571  0  1.995084  0  0  -0.285164  0  1.991673  0  0  -0.075573  -0.26949  0  1.997635  0
O  O52  1  0.72500867  0.52448194  0.50647467  1  0  -0.646956  0  2.088108  0  0  -0.596182  0  2.316073  0  0  -0.622359  0  2.307547  0  0  -0.350756  -0.577516  0  2.321454  0
O  O53  1  0.27497930  0.47551993  0.49353629  1  0  -0.647035  0  2.08782  0  0  -0.596363  0  2.315706  0  0  -0.622552  0  2.307173  0  0  -0.350899  -0.577682  0  2.321073  0
O  O54  1  0.64553398  0.48562380  0.34672822  1  0  -0.63149  0  2.04632  0  0  -0.59232  0  2.287753  0  0  -0.616433  0  2.279707  0  0  -0.356596  -0.575249  0  2.292891  0
O  O55  1  0.35445754  0.51437131  0.65328269  1  0  -0.631345  0  2.047055  0  0  -0.592205  0  2.288395  0  0  -0.616316  0  2.280337  0  0  -0.356579  -0.575151  0  2.293561  0
O  O56  1  0.94038343  0.54198607  0.66001715  1  0  -0.937714  0  1.891725  0  0  -0.897569  0  2.086079  0  0  -0.917561  0  2.050314  0  0  -0.674804  -0.882855  0  2.111149  0
O  O57  1  0.05961389  0.45801038  0.33998527  1  0  -0.937711  0  1.891669  0  0  -0.897571  0  2.086076  0  0  -0.917549  0  2.050281  0  0  -0.674836  -0.882863  0  2.111153  0
O  O58  1  0.31947791  0.60161534  0.87294362  1  0  -0.940499  0  1.835955  0  0  -0.898609  0  2.036406  0  0  -0.919312  0  2.002224  0  0  -0.664186  -0.883474  0  2.060435  0
O  O59  1  0.68051821  0.39839242  0.12705989  1  0  -0.940551  0  1.835907  0  0  -0.898671  0  2.036358  0  0  -0.919375  0  2.002175  0  0  -0.664198  -0.883544  0  2.060402  0
O  O60  1  0.57702687  0.80733328  0.58997671  1  0  -0.903344  0  1.83887  0  0  -0.863936  0  2.008353  0  0  -0.88183  0  1.974347  0  0  -0.63163  -0.850992  0  2.032265  0
O  O61  1  0.42297176  0.19266553  0.41002142  1  0  -0.903309  0  1.838945  0  0  -0.863934  0  2.008362  0  0  -0.881831  0  1.974356  0  0  -0.631639  -0.850985  0  2.032296  0
