# generated using pymatgen
data_Cu3H26C32(NO3)4
_symmetry_space_group_name_H-M   'P 1'
_cell_length_a   7.82785427
_cell_length_b   8.67991385
_cell_length_c   11.29178011
_cell_angle_alpha   85.22371680
_cell_angle_beta   76.55056766
_cell_angle_gamma   87.15660145
_symmetry_Int_Tables_number   1
_chemical_formula_structural   Cu3H26C32(NO3)4
_chemical_formula_sum   'Cu3 H26 C32 N4 O12'
_cell_volume   743.22733013
_cell_formula_units_Z   1
loop_
 _symmetry_equiv_pos_site_id
 _symmetry_equiv_pos_as_xyz
  1  'x, y, z'
loop_
 _atom_site_type_symbol
 _atom_site_label
 _atom_site_symmetry_multiplicity
 _atom_site_fract_x
 _atom_site_fract_y
 _atom_site_fract_z
 _atom_site_occupancy
 _atom_site_hle17_ddec_charge
 _atom_site_hle17_ddec_spin_density
 _atom_site_hle17_ddec_sum_bond_order
 _atom_site_hle17_magmom
 _atom_site_hse06_10hf_ddec_charge
 _atom_site_hse06_10hf_ddec_spin_density
 _atom_site_hse06_10hf_ddec_sum_bond_order
 _atom_site_hse06_10hf_magmom
 _atom_site_hse06_ddec_charge
 _atom_site_hse06_ddec_spin_density
 _atom_site_hse06_ddec_sum_bond_order
 _atom_site_hse06_magmom
 _atom_site_pbe_cm5_charge
 _atom_site_pbe_ddec_charge
 _atom_site_pbe_ddec_spin_density
 _atom_site_pbe_ddec_sum_bond_order
 _atom_site_pbe_magmom
Cu  Cu0  1  0.88449630  0.62267013  0.42132165  1  0.915562  0.806881  1.818324  0.525  0.919218  0.809208  2.269657  0.579  0.995195  1.175105  2.159118  0.709  0.71024  0.885418  0.800187  2.309409  0.552
Cu  Cu1  1  0.11141597  0.38235710  0.57666696  1  0.917217  -0.837691  1.921127  -0.508  0.987021  0.193733  2.306861  0.138  1.003357  -0.787216  2.251525  -0.679  0.745878  0.925986  -0.27489  2.377653  -0.175
Cu  Cu2  1  0.49731044  0.49756795  0.50128922  1  1.00153  0.683995  2.027823  0.439  1.120469  -0.28503  2.450594  -0.169  1.076541  -0.691144  2.395798  -0.593  0.802894  1.09272  0.078318  2.489061  0.052
H  H3  1  0.16149375  0.77202898  0.22663555  1  0.086925  0.000598  0.974872  0.001  0.096356  0.000299  1.037596  0.001  0.10135  0.000347  1.031969  0.001  0.117705  0.093854  0.000451  1.040344  0.001
H  H4  1  0.83974550  0.23164097  0.77241543  1  0.088717  -0.000499  0.972976  -0.001  0.097667  -8e-06  1.035148  0.0  0.102246  -0.0003  1.030884  -0.001  0.119446  0.095252  -0.000116  1.038088  0.0
H  H5  1  0.15640693  0.83206932  0.73943974  1  0.301246  9.4e-05  0.940355  0.0  0.285417  -9.5e-05  1.000605  0.0  0.291369  -0.000114  0.998637  0.0  0.305236  0.278908  1.7e-05  1.006383  0.0
H  H6  1  0.84598363  0.16926901  0.25873330  1  0.302666  -0.000106  0.940786  0.0  0.284088  -1.7e-05  1.005822  0.0  0.29202  -6.9e-05  0.999779  0.0  0.303394  0.277961  3e-06  1.010436  0.0
H  H7  1  0.38889440  0.97429283  0.20364159  1  0.100531  0.000271  0.951764  0.0  0.109328  0.000236  1.01376  0.0  0.114509  0.000283  1.011684  0.0  0.106611  0.106572  0.000271  1.015081  0.0
H  H8  1  0.61511681  0.02725245  0.79648082  1  0.10051  -0.000293  0.94987  0.0  0.112153  1e-06  1.009188  0.0  0.115117  -0.000268  1.009399  0.0  0.108242  0.109047  -4.4e-05  1.010699  0.0
H  H9  1  0.42535436  0.09028992  0.39404559  1  0.104305  0.000371  0.935165  0.0  0.11586  7.6e-05  0.992572  0.0  0.118816  5.2e-05  0.989462  0.0  0.112304  0.113739  0.000152  0.994335  0.0
H  H10  1  0.57716874  0.91076407  0.60649105  1  0.1052  -0.000345  0.93447  0.0  0.119193  -2.6e-05  0.988431  0.0  0.120288  -7e-05  0.987849  0.0  0.114136  0.117289  -8.5e-05  0.989934  0.0
H  H11  1  0.02247698  0.78963004  0.59979470  1  0.095194  0.000874  0.970444  0.001  0.100244  0.000129  1.036047  0.001  0.104105  0.000108  1.03484  0.001  0.121376  0.09875  0.000444  1.036524  0.001
H  H12  1  0.97354660  0.21590168  0.39863409  1  0.095285  -0.000646  0.97684  -0.001  0.10464  -5.6e-05  1.035044  0.0  0.104915  -0.000631  1.038875  -0.001  0.123679  0.101899  -5.9e-05  1.038149  0.0
H  H13  1  0.15415201  0.14648364  0.82372059  1  0.072106  7.2e-05  0.931307  0.0  0.086787  -1.4e-05  0.995502  0.0  0.088408  5.3e-05  0.994309  0.0  0.108002  0.086601  2.8e-05  0.995749  0.0
H  H14  1  0.84704257  0.85340164  0.17697129  1  0.069906  -8.3e-05  0.932978  0.0  0.088211  -7.6e-05  0.994781  0.0  0.086742  -7.5e-05  0.996699  0.0  0.108497  0.086786  -8.2e-05  0.996375  0.0
H  H15  1  0.29165552  0.00403152  0.87840009  1  0.043875  2.1e-05  0.930903  0.0  0.063863  -0.000118  0.993549  0.0  0.063256  -2.4e-05  0.994875  0.0  0.096151  0.063551  1.5e-05  0.994081  0.0
H  H16  1  0.70876223  0.99511203  0.12204462  1  0.044326  0.000104  0.930974  0.0  0.062289  -4.6e-05  0.996568  0.0  0.063029  1e-06  0.996304  0.0  0.096004  0.062893  0.000103  0.996146  0.0
H  H17  1  0.03732872  0.83356612  0.96025658  1  0.072221  -2.1e-05  0.954896  0.0  0.088692  8e-06  1.017152  0.0  0.090338  2.3e-05  1.016347  0.0  0.090837  0.087694  -1.2e-05  1.017373  0.0
H  H18  1  0.96268261  0.16597557  0.03941983  1  0.071984  1.3e-05  0.955566  0.0  0.087068  3.4e-05  1.020173  0.0  0.089778  3.5e-05  1.017602  0.0  0.090271  0.086533  3.5e-05  1.019594  0.0
H  H19  1  0.89602126  0.96913221  0.90450724  1  0.063928  -7e-06  0.939827  0.0  0.081769  -1.4e-05  1.002198  0.0  0.082752  -2e-05  1.00302  0.0  0.087554  0.081668  6e-06  1.001211  0.0
H  H20  1  0.10445059  0.03063097  0.09486353  1  0.064301  2.7e-05  0.940566  0.0  0.083259  -2e-06  1.001754  0.0  0.083217  5e-06  1.003597  0.0  0.088238  0.082951  1e-05  1.000981  0.0
H  H21  1  0.37878066  0.68072325  0.83105928  1  0.118338  -0.000142  0.962661  0.0  0.127596  5e-06  1.022815  0.0  0.1276  -0.000156  1.025631  0.0  0.10887  0.125289  0.000146  1.024059  0.0
H  H22  1  0.61873395  0.31407729  0.17383128  1  0.118106  2.8e-05  0.961785  0.0  0.129611  3.8e-05  1.020141  0.0  0.128996  -1.9e-05  1.023157  0.0  0.109057  0.126507  3.5e-05  1.022196  0.0
H  H23  1  0.33828314  0.73989574  0.04800698  1  0.084996  0.000242  0.957299  0.0  0.100158  9.3e-05  1.012556  0.0  0.100662  4.4e-05  1.014103  0.0  0.100459  0.098354  0.000113  1.01354  0.0
H  H24  1  0.66537497  0.25863534  0.95596839  1  0.084428  -0.000187  0.957105  0.0  0.097176  6.5e-05  1.015532  0.0  0.099751  -2.7e-05  1.014298  0.0  0.098883  0.096193  -2.7e-05  1.01528  0.0
H  H25  1  0.59071510  0.69829265  0.15020152  1  0.102731  -0.00017  0.936818  0.0  0.118677  -0.000159  0.988952  0.0  0.116474  -0.00013  0.99387  0.0  0.109593  0.115561  -2.2e-05  0.990931  0.0
H  H26  1  0.41627350  0.30036906  0.85042008  1  0.104068  0.000152  0.93609  0.0  0.11412  0.0  0.994803  0.0  0.115634  -8.8e-05  0.995762  0.0  0.107841  0.112976  -0.0  0.99474  0.0
H  H27  1  0.88225316  0.61481188  0.03097523  1  0.096503  0.000145  0.956505  0.0  0.10869  1e-05  1.017063  0.0  0.108757  -6.9e-05  1.018793  0.0  0.105225  0.106403  9.4e-05  1.018139  0.0
H  H28  1  0.12211552  0.38112415  0.96751820  1  0.097508  2.7e-05  0.955299  0.0  0.106962  6.8e-05  1.017876  0.0  0.109963  -1.5e-05  1.016843  0.0  0.104644  0.105949  1.2e-05  1.01758  0.0
C  C29  1  0.18527744  0.82536272  0.30488169  1  0.138465  -0.005127  3.666215  -0.004  0.105939  1.7e-05  3.920547  0.0  0.117598  -0.000223  3.934811  -0.001  0.048602  0.098735  -0.000293  3.910403  0.0
C  C30  1  0.81536773  0.17842830  0.69432179  1  0.138413  0.002379  3.667316  0.002  0.104859  -0.000653  3.922715  -0.001  0.118009  0.002136  3.935093  0.002  0.049764  0.098438  -7.7e-05  3.910888  0.0
C  C31  1  0.31112896  0.93658882  0.29360826  1  -0.117688  0.008703  3.717029  0.008  -0.126346  0.000205  3.969785  0.001  -0.134694  0.002282  3.984271  0.002  -0.08161  -0.120871  0.003615  3.956841  0.004
C  C32  1  0.69086153  0.06599943  0.70611540  1  -0.116538  -0.004003  3.718598  -0.004  -0.125702  -0.000938  3.967631  -0.001  -0.135858  -0.00322  3.987969  -0.004  -0.079367  -0.119719  0.000823  3.954778  0.001
C  C33  1  0.33272902  0.99961215  0.39810971  1  0.030624  -0.006976  3.660286  -0.006  -0.003156  -0.00121  3.908467  -0.001  0.010577  -0.00145  3.915263  -0.002  -0.053708  -0.008071  -0.00204  3.896909  -0.002
C  C34  1  0.66841728  0.00275569  0.60187292  1  0.028757  0.004628  3.663899  0.004  0.000905  -2.1e-05  3.900557  0.0  0.008497  0.003483  3.919387  0.003  -0.051098  -0.005866  0.000109  3.891752  0.0
C  C35  1  0.23077458  0.94641447  0.51141610  1  -0.106727  0.007387  3.731165  0.008  -0.08121  0.001005  3.96254  0.002  -0.093451  0.002027  3.986317  0.002  -0.008903  -0.071983  0.003114  3.944668  0.004
C  C36  1  0.76836635  0.05689803  0.48820614  1  -0.107617  -0.004996  3.733407  -0.005  -0.073775  0.00095  3.952254  0.001  -0.093669  -0.003005  3.987241  -0.004  -0.006534  -0.067168  -1.7e-05  3.939571  0.0
C  C37  1  0.10911651  0.83254440  0.51493997  1  0.129378  -0.004943  3.656525  -0.005  0.100663  -0.001511  3.892604  -0.001  0.102274  -0.000945  3.926775  -0.001  0.055269  0.095513  0.001318  3.879482  0.001
C  C38  1  0.88870438  0.17219601  0.48390059  1  0.123128  0.004111  3.657867  0.004  0.100622  0.000431  3.890009  0.001  0.100263  0.002041  3.924768  0.003  0.058027  0.091744  8.2e-05  3.879268  -0.001
C  C39  1  0.24286773  0.02463693  0.62223461  1  0.533566  0.00089  3.886835  0.001  0.485936  -0.000196  4.179947  0.0  0.51562  0.000464  4.179145  0.0  0.231872  0.465698  0.000538  4.177019  0.0
C  C40  1  0.75627955  0.97821420  0.37749888  1  0.53564  -0.001091  3.885527  -0.001  0.480166  -0.000281  4.181503  0.0  0.513681  -0.000555  4.181575  -0.001  0.232438  0.461857  -0.000489  4.177969  -0.001
C  C41  1  0.17011730  0.02143362  0.84462067  1  0.066184  6e-06  3.65705  0.0  0.006475  -9e-06  3.918607  0.0  0.012442  -1.5e-05  3.928267  0.0  -0.062428  0.002792  2.1e-05  3.910161  0.0
C  C42  1  0.83061163  0.97829273  0.15551281  1  0.06889  -3.7e-05  3.654629  0.0  0.007184  -5.2e-05  3.91735  0.0  0.01321  -4.1e-05  3.928511  0.0  -0.062052  0.003481  -3e-06  3.908992  0.0
C  C43  1  0.01492641  0.95825138  0.94142982  1  -0.137058  -1.1e-05  3.706089  0.0  -0.176241  -9.7e-05  3.965289  0.0  -0.177608  6.9e-05  3.977324  0.0  -0.168729  -0.174761  4.8e-05  3.955315  0.0
C  C44  1  0.98531858  0.04130464  0.05823142  1  -0.138262  4.4e-05  3.706981  0.0  -0.177248  -1.9e-05  3.967172  0.0  -0.178787  8.4e-05  3.979398  0.0  -0.1685  -0.175914  9.6e-05  3.957106  0.0
C  C45  1  0.67250510  0.59640925  0.67616995  1  0.662464  -0.006609  3.847094  -0.011  0.616796  -0.001831  4.133299  -0.004  0.662486  -0.001461  4.130264  -0.004  0.228344  0.5911  -0.000814  4.13678  -0.004
C  C46  1  0.32400558  0.39989067  0.32566827  1  0.662757  0.001992  3.843858  0.004  0.615982  -0.000465  4.119989  -0.001  0.658069  -0.001279  4.129421  -0.001  0.232801  0.590161  -0.000751  4.124235  0.001
C  C47  1  0.65447354  0.62311884  0.80777693  1  -0.069847  0.015702  3.725621  0.016  -0.052879  0.008218  3.953611  0.009  -0.064989  0.003428  3.978418  0.004  -0.011713  -0.047887  0.007952  3.936549  0.008
C  C48  1  0.34296986  0.37076485  0.19440857  1  -0.073586  0.002137  3.729666  0.002  -0.056996  0.003466  3.952149  0.004  -0.065857  -9e-05  3.979896  -0.001  -0.011663  -0.050214  -0.002973  3.935949  -0.003
C  C49  1  0.48966200  0.67223143  0.87468018  1  -0.076466  0.005281  3.72156  0.005  -0.099353  -0.000441  3.967371  0.0  -0.100313  -9.3e-05  3.994651  0.0  -0.084039  -0.098028  0.000891  3.952747  0.001
C  C50  1  0.50921225  0.32246290  0.12892735  1  -0.075809  -0.000198  3.71855  0.0  -0.096557  -0.000521  3.962969  0.0  -0.100634  -0.002489  3.990567  -0.003  -0.083046  -0.097221  -0.001748  3.949871  -0.001
C  C51  1  0.46780151  0.70396469  0.99645763  1  -0.07312  -0.006064  3.772051  -0.005  -0.086593  0.001102  4.023167  0.001  -0.093257  -0.001046  4.052661  -0.001  -0.089684  -0.08662  -0.001457  4.011564  -0.001
C  C52  1  0.53453304  0.29273693  0.00648577  1  -0.074593  0.004337  3.770496  0.003  -0.094342  0.002098  4.030822  0.002  -0.094882  0.00269  4.052173  0.002  -0.092302  -0.091483  0.002981  4.015679  0.002
C  C53  1  0.60864090  0.68219169  0.05324004  1  -0.051319  0.006457  3.740175  0.005  -0.065795  -0.001287  3.985686  -0.001  -0.069341  -0.000529  4.018635  0.0  -0.079846  -0.065721  0.000488  3.974752  0.001
C  C54  1  0.39564997  0.31479218  0.94784022  1  -0.049639  0.000501  3.738356  0.0  -0.065002  -0.000823  3.995277  -0.001  -0.06827  -0.002531  4.019608  -0.003  -0.080332  -0.064706  -0.00243  3.979962  -0.002
C  C55  1  0.77299961  0.63394340  0.98633751  1  -0.076091  -0.003706  3.731356  -0.003  -0.095224  0.001219  3.979585  0.001  -0.102684  -0.001515  4.0088  -0.001  -0.080801  -0.094915  -0.002158  3.966202  -0.002
C  C56  1  0.23000921  0.36163620  0.01344775  1  -0.077288  0.005061  3.732411  0.004  -0.102813  0.001539  3.98788  0.001  -0.105184  0.002286  4.011278  0.002  -0.082425  -0.099529  0.002951  3.970908  0.003
C  C57  1  0.79882258  0.60588632  0.86311122  1  -0.067857  -0.007039  3.718249  -0.007  -0.059141  -0.004874  3.953884  -0.005  -0.061458  -0.001168  3.974442  -0.002  -0.010048  -0.054693  0.002891  3.939081  0.003
C  C58  1  0.20099976  0.38903800  0.13697705  1  -0.065114  0.010922  3.719943  0.011  -0.050662  0.003732  3.955571  0.004  -0.0582  0.004282  3.976566  0.004  -0.009294  -0.048681  0.00203  3.940637  0.002
C  C59  1  0.98022088  0.55724505  0.79416961  1  0.661455  0.002441  3.88071  0.006  0.617552  -0.000431  4.164157  0.0  0.655116  -0.002137  4.171069  -0.002  0.219783  0.592102  -0.000659  4.173385  0.0
C  C60  1  0.02040756  0.44257224  0.20348436  1  0.66094  -0.00469  3.897127  -0.008  0.612048  0.00218  4.196848  0.0  0.652859  0.001857  4.187147  -0.002  0.213021  0.587555  0.002727  4.20237  0.0
N  N61  1  0.08440325  0.77472615  0.41350354  1  -0.311653  0.054687  3.286957  0.061  -0.258655  0.02806  3.579083  0.034  -0.289652  0.042247  3.600969  0.043  -0.339235  -0.243849  0.036317  3.567985  0.04
N  N62  1  0.91396561  0.22992452  0.58515299  1  -0.312175  -0.045685  3.295238  -0.049  -0.252366  0.005881  3.583228  0.008  -0.286348  -0.034545  3.606235  -0.051  -0.335913  -0.237285  -0.008896  3.571498  -0.009
N  N63  1  0.18827553  0.94691043  0.73147918  1  -0.432424  0.000832  3.315963  0.001  -0.368606  -0.00191  3.559624  -0.002  -0.391613  0.000179  3.571948  0.0  -0.41801  -0.353056  0.000835  3.552996  0.001
N  N64  1  0.81304590  0.05432156  0.26795277  1  -0.43384  0.000698  3.314498  0.001  -0.368803  -0.000834  3.562818  -0.001  -0.391197  -0.000337  3.571849  0.0  -0.416971  -0.352099  0.000964  3.554221  0.001
O  O65  1  0.29771779  0.15986601  0.61115077  1  -0.607787  0.002748  1.998721  0.001  -0.591485  -0.000389  2.269629  -0.001  -0.612055  0.001203  2.256893  0.0  -0.317303  -0.573133  0.002382  2.277864  0.002
O  O66  1  0.69966651  0.84359983  0.38949894  1  -0.611163  -0.002458  2.0029  0.0  -0.576278  -0.000308  2.273014  0.001  -0.609872  -0.001327  2.263192  0.0  -0.315076  -0.562194  0.001079  2.280088  0.003
O  O67  1  0.80466739  0.65133890  0.60017745  1  -0.602338  0.08276  2.204015  0.103  -0.57361  0.058213  2.509421  0.078  -0.618231  0.066938  2.49604  0.077  -0.297558  -0.548523  0.069119  2.51453  0.088
O  O68  1  0.18928084  0.34893925  0.40256397  1  -0.608754  -0.087096  2.224037  -0.099  -0.548023  0.035613  2.505655  0.048  -0.620528  -0.024504  2.5168  -0.039  -0.288126  -0.530592  -0.042818  2.519153  -0.05
O  O69  1  0.54443275  0.52469529  0.65508511  1  -0.564682  0.094603  2.101257  0.117  -0.493108  0.012627  2.355082  0.018  -0.561767  -0.01342  2.359344  -0.023  -0.286616  -0.473949  0.006468  2.365851  0.01
O  O70  1  0.45363122  0.46805941  0.34660857  1  -0.553825  0.048917  2.115043  0.058  -0.480057  -0.031447  2.380017  -0.036  -0.550351  -0.01814  2.384032  -0.033  -0.27812  -0.455256  -0.009667  2.383114  -0.012
O  O71  1  0.98418342  0.43018384  0.74009168  1  -0.627328  -0.101272  2.114788  -0.116  -0.5613  -0.009848  2.373464  -0.013  -0.649136  -0.039085  2.399421  -0.063  -0.319383  -0.546678  -0.010135  2.390487  -0.01
O  O72  1  0.01755917  0.57112685  0.25379158  1  -0.619464  0.100757  2.088951  0.124  -0.591186  0.051188  2.373757  0.067  -0.637158  0.064692  2.366081  0.074  -0.328492  -0.565286  0.056565  2.381679  0.07
O  O73  1  0.10748366  0.63564386  0.79773136  1  -0.568116  -0.024112  1.978194  -0.027  -0.507232  0.001259  2.198019  0.002  -0.541511  0.016711  2.189369  0.017  -0.287606  -0.491011  -0.005818  2.202187  -0.006
O  O74  1  0.89204388  0.36358172  0.20144416  1  -0.578053  0.019692  1.976661  0.024  -0.518673  0.014884  2.194606  0.019  -0.546276  0.024328  2.184971  0.027  -0.295973  -0.501691  0.012916  2.200564  0.016
O  O75  1  0.72556773  0.47231034  0.42918980  1  -0.451809  0.879976  1.404554  1.005  -0.750745  0.211432  1.889579  0.268  -0.569484  0.667528  1.756743  0.703  -0.490331  -0.702731  0.333776  1.894869  0.391
O  O76  1  0.26626575  0.53495858  0.56474895  1  -0.526846  -0.706259  1.437932  -0.755  -0.72255  -0.103263  1.855167  -0.1  -0.56157  0.548574  1.752441  0.564  -0.498351  -0.721095  -0.064959  1.892161  -0.069
