# generated using pymatgen
data_Al6H24C72O29
_symmetry_space_group_name_H-M   'P 1'
_cell_length_a   13.06217023
_cell_length_b   13.12831215
_cell_length_c   26.71264081
_cell_angle_alpha   83.07690305
_cell_angle_beta   83.00030925
_cell_angle_gamma   61.91526465
_symmetry_Int_Tables_number   1
_chemical_formula_structural   Al6H24C72O29
_chemical_formula_sum   'Al6 H24 C72 O29'
_cell_volume   4000.84772721
_cell_formula_units_Z   1
loop_
 _symmetry_equiv_pos_site_id
 _symmetry_equiv_pos_as_xyz
  1  'x, y, z'
loop_
 _atom_site_type_symbol
 _atom_site_label
 _atom_site_symmetry_multiplicity
 _atom_site_fract_x
 _atom_site_fract_y
 _atom_site_fract_z
 _atom_site_occupancy
 _atom_site_pbe_bader_charge
 _atom_site_pbe_bader_spin_density
 _atom_site_pbe_cm5_charge
 _atom_site_pbe_ddec_charge
 _atom_site_pbe_ddec_spin_density
 _atom_site_pbe_ddec_sum_bond_order
 _atom_site_pbe_magmom
Al  Al0  1  0.41199712  0.40958867  0.50891177  1  2.493016  0  0.400521  1.681719  0  2.558588  0
Al  Al1  1  0.65111761  0.42719090  0.49401707  1  2.479255  0  0.509438  1.658974  0  2.509289  0
Al  Al2  1  0.42751466  0.64858052  0.49744379  1  2.479728  0  0.507964  1.660711  0  2.515041  0
Al  Al3  1  0.92412664  0.92845184  0.97893430  1  2.494233  0  0.400909  1.678654  0  2.561586  0
Al  Al4  1  0.90994473  0.68831989  0.99571688  1  2.481856  0  0.509648  1.660297  0  2.511047  0
Al  Al5  1  0.68559774  0.91014543  0.99249883  1  2.482081  0  0.509382  1.663596  0  2.506905  0
H  H6  1  0.23909286  0.79417214  0.19589018  1  0.072588  0  0.107526  0.102985  0  0.980547  0
H  H7  1  0.06742795  0.86993436  0.27763544  1  0.072328  0  0.105387  0.096233  0  0.985876  0
H  H8  1  0.25645469  0.48019736  0.21720762  1  0.102132  0  0.107205  0.102414  0  0.978583  0
H  H9  1  0.08302502  0.55611500  0.29887745  1  0.080874  0  0.108744  0.100998  0  0.978587  0
H  H10  1  0.95073142  0.76258880  0.23929222  1  0.02964  0  0.101632  0.089396  0  0.998457  0
H  H11  1  0.54554402  0.04453049  0.24658453  1  0.062667  0  0.103229  0.093274  0  0.988937  0
H  H12  1  0.73964232  0.95191661  0.30589819  1  0.055858  0  0.102956  0.091558  0  0.990551  0
H  H13  1  0.47518118  0.26729919  0.28028432  1  0.108512  0  0.103986  0.095852  0  0.988099  0
H  H14  1  0.91782116  0.67738775  0.72613260  1  0.595751  0  0.332055  0.363662  0  0.888954  0
H  H15  1  0.42969257  0.62126656  0.17280768  1  0.055938  0  0.103322  0.103858  0  0.999998  0
H  H16  1  0.64469069  0.52583117  0.17047404  1  0.062031  0  0.100456  0.096608  0  1.000358  0
H  H17  1  0.60793341  0.31148054  0.19682508  1  0.090696  0  0.100306  0.094688  0  1.012052  0
H  H18  1  0.74509298  0.42806874  0.24910135  1  0.047998  0  0.101911  0.095016  0  0.994152  0
H  H19  1  0.62887806  0.41935059  0.32900002  1  0.102581  0  0.09994  0.097291  0  1.013268  0
H  H20  1  0.41397640  0.50910297  0.33088998  1  0.090388  0  0.101333  0.106452  0  1.025861  0
H  H21  1  0.80293164  0.21789702  0.25570634  1  0.06609  0  0.101529  0.091085  0  0.998701  0
H  H22  1  0.87308212  0.99612643  0.22193726  1  0.088565  0  0.101075  0.091252  0  1.000546  0
H  H23  1  0.50077643  0.82513035  0.77750713  1  0.101382  0  0.113411  0.106444  0  0.975043  0
H  H24  1  0.65277779  0.83715639  0.69450139  1  0.124309  0  0.111709  0.116744  0  0.975435  0
H  H25  1  0.50912484  0.62838792  0.73974465  1  0.065103  0  0.109911  0.099972  0  0.979623  0
H  H26  1  0.70229525  0.48278114  0.79700297  1  0.092766  0  0.113148  0.105399  0  0.975069  0
H  H27  1  0.85494905  0.49282291  0.71409590  1  0.106867  0  0.112572  0.117953  0  0.974926  0
H  H28  1  0.34301052  0.28036547  0.54640619  1  0.557263  0  0.295849  0.388725  0  0.914425  0
H  H29  1  0.04192487  0.00832821  0.99582351  1  0.585686  0  0.295694  0.386301  0  0.917919  0
C  C30  1  0.61989517  0.28569065  0.43533314  1  1.622834  0  0.275486  0.709578  0  4.166648  0
C  C31  1  0.14048787  0.68124660  0.19746150  1  0.105709  0  0.006919  0.119386  0  3.818936  0
C  C32  1  0.11721665  0.60910728  0.27547471  1  -0.022832  0  -0.067226  -0.073172  0  3.637469  0
C  C33  1  0.60788621  0.61610786  0.41854695  1  1.685145  0  0.283997  0.699961  0  4.170637  0
C  C34  1  0.18092737  0.66919939  0.29723744  1  0.120548  0  0.011684  0.092245  0  3.783275  0
C  C35  1  0.21277978  0.56697246  0.23094379  1  -0.05367  0  -0.064557  -0.101299  0  3.605942  0
C  C36  1  0.27865588  0.62669892  0.25096956  1  0.01638  0  0.015822  0.051567  0  3.639679  0
C  C37  1  0.11681337  0.68946119  0.14659330  1  -0.488872  0  -0.020156  -0.026403  0  4.079306  0
C  C38  1  0.20449403  0.66120979  0.34810876  1  -0.039471  0  -0.014531  -0.014783  0  4.076548  0
C  C39  1  0.71062457  0.03144223  0.28104810  1  -0.009391  0  -0.067172  -0.073272  0  3.626095  0
C  C40  1  0.60234198  0.08360956  0.24893074  1  -0.007861  0  -0.068433  -0.078737  0  3.628468  0
C  C41  1  0.66915043  0.70027021  0.27340032  1  0.048536  0  0.007373  0.000745  0  4.168145  0
C  C42  1  0.69154698  0.07722625  0.10557082  1  0.102291  0  -0.048589  -0.214962  0  3.983188  0
C  C43  1  0.65449696  0.22088079  0.39136240  1  0.225886  0  -0.048074  -0.218482  0  3.974535  0
C  C44  1  0.78477100  0.05646709  0.23547853  1  -0.038477  0  -0.071031  -0.081593  0  3.635345  0
C  C45  1  0.28729300  0.61680725  0.43768479  1  1.62767  0  0.280475  0.710553  0  4.168142  0
C  C46  1  0.67653444  0.10824894  0.20212969  1  0.094118  0  0.00692  0.116075  0  3.800158  0
C  C47  1  0.74588760  0.17927503  0.25321203  1  -0.018512  0  -0.069458  -0.078527  0  3.638142  0
C  C48  1  0.67160000  0.15542829  0.30015843  1  0.091495  0  0.008246  0.11368  0  3.793355  0
C  C49  1  0.63736950  0.23189404  0.22149394  1  -0.016637  0  -0.066112  -0.067964  0  3.615125  0
C  C50  1  0.56324704  0.20654397  0.26677623  1  -0.05538  0  -0.06743  -0.073611  0  3.620486  0
C  C51  1  0.68167880  0.09006948  0.15069168  1  -0.384803  0  -0.019703  -0.022853  0  4.072487  0
C  C52  1  0.65263581  0.67838110  0.32330563  1  -0.061774  0  0.001581  0.037044  0  4.231297  0
C  C53  1  0.66545583  0.18520564  0.34992124  1  -0.47121  0  -0.01327  -0.015391  0  4.060249  0
C  C54  1  0.66347946  0.75857153  0.71758160  1  -0.064419  0  -0.071728  -0.155679  0  3.604968  0
C  C55  1  0.57921712  0.75158844  0.76305446  1  -0.037767  0  -0.064808  -0.066237  0  3.640564  0
C  C56  1  0.70801711  0.69341006  0.88998462  1  0.20404  0  -0.043332  -0.225972  0  3.95169  0
C  C57  1  0.61520759  0.29116841  0.57565144  1  1.690771  0  0.276297  0.694213  0  4.183279  0
C  C58  1  0.64292675  0.62693618  0.60213090  1  0.304403  0  -0.048001  -0.225648  0  3.965234  0
C  C59  1  0.77136702  0.67624546  0.74874085  1  0.607871  0  0.096795  0.290109  0  3.742177  0
C  C60  1  0.68565229  0.67096085  0.79581573  1  0.097857  0  0.00832  0.049123  0  3.775318  0
C  C61  1  0.77632638  0.56672385  0.72831099  1  -0.065601  0  -0.07484  -0.166274  0  3.630081  0
C  C62  1  0.66942959  0.64819767  0.69596318  1  0.10931  0  0.008427  0.120159  0  3.801954  0
C  C63  1  0.63650429  0.65385525  0.36841271  1  0.009139  0  0.008299  -0.127799  0  3.799935  0
C  C64  1  0.69131718  0.56111117  0.77372533  1  -0.017087  0  -0.059345  -0.055554  0  3.623835  0
C  C65  1  0.58404702  0.64248950  0.74296231  1  0.002031  0  -0.05911  -0.062109  0  3.601658  0
C  C66  1  0.69736333  0.68199429  0.84648380  1  -0.428291  0  0.002841  0.035247  0  4.021136  0
C  C67  1  0.65656959  0.63736564  0.64532922  1  -0.562601  0  -0.002726  0.007213  0  4.033105  0
C  C68  1  0.09341564  0.69563489  0.86289638  1  0.282201  0  0.011951  -0.114852  0  3.807561  0
C  C69  1  0.61405717  0.60570686  0.55583875  1  1.624835  0  0.284049  0.72668  0  4.143229  0
C  C70  1  0.12195025  0.68174509  0.81781126  1  -0.265861  0  -0.002756  0.029797  0  4.24543  0
C  C71  1  0.15138439  0.66902194  0.76835200  1  -0.216567  0  0.004428  0.006217  0  4.195075  0
C  C72  1  0.17723099  0.65986061  0.72254615  1  0.1317  0  -0.006076  -0.019157  0  4.212776  0
C  C73  1  0.20860597  0.64831678  0.67312934  1  -0.365787  0  -0.011729  0.02015  0  4.279081  0
C  C74  1  0.10850832  0.78351944  0.26361857  1  -0.023721  0  -0.067896  -0.07531  0  3.645966  0
C  C75  1  0.23958053  0.63660347  0.62806224  1  0.240058  0  0.001681  -0.130139  0  3.833585  0
C  C76  1  0.69893596  0.09553227  0.86113778  1  -0.026445  0  0.010329  -0.119233  0  3.811311  0
C  C77  1  0.68809928  0.12551416  0.81599272  1  -0.044857  0  -0.002986  0.028892  0  4.247144  0
C  C78  1  0.67710198  0.15575054  0.76646813  1  0.20794  0  0.004089  0.002204  0  4.188387  0
C  C79  1  0.66797543  0.18110937  0.72065634  1  -0.252521  0  -0.0003  -0.006288  0  4.192385  0
C  C80  1  0.65589744  0.21094494  0.67114808  1  0.002368  0  -0.007147  0.028108  0  4.258238  0
C  C81  1  0.29393907  0.60818326  0.57815249  1  1.689402  0  0.276801  0.691224  0  4.190913  0
C  C82  1  0.64344069  0.24016695  0.62600465  1  -0.07647  0  0.001939  -0.132765  0  3.824467  0
C  C83  1  0.04656905  0.72501684  0.05461740  1  1.675287  0  0.278351  0.717132  0  4.163704  0
C  C84  1  0.72867388  0.74018290  0.07583350  1  1.703383  0  0.282712  0.697489  0  4.180193  0
C  C85  1  0.20407292  0.74147247  0.21902294  1  -0.019783  0  -0.066796  -0.107222  0  3.622774  0
C  C86  1  0.72054034  0.04051255  0.05513429  1  1.647155  0  0.27472  0.714428  0  4.164119  0
C  C87  1  0.04162894  0.72628150  0.91299231  1  1.681549  0  0.280098  0.688603  0  4.189187  0
C  C88  1  0.72995779  0.72064966  0.93644213  1  1.621459  0  0.286766  0.730051  0  4.138659  0
C  C89  1  0.72444757  0.04299715  0.91150451  1  1.685176  0  0.28325  0.688376  0  4.186292  0
C  C90  1  0.70677387  0.72550033  0.12972978  1  0.277117  0  0.00917  -0.126329  0  3.796691  0
C  C91  1  0.69508760  0.72129845  0.17615275  1  -0.476022  0  0.000652  0.03166  0  4.233886  0
C  C92  1  0.68203426  0.71321979  0.22688355  1  0.042594  0  0.006628  0.00155  0  4.171481  0
C  C93  1  0.40654464  0.57276646  0.25217931  1  -0.020543  0  -0.012785  0.059423  0  4.023594  0
C  C94  1  0.47324188  0.57638538  0.20711777  1  -0.129313  0  -0.093916  -0.142778  0  3.997756  0
C  C95  1  0.59426260  0.52293476  0.20578762  1  -0.032592  0  -0.09476  -0.087657  0  4.059817  0
C  C96  1  0.09455202  0.69916297  0.10274310  1  0.199459  0  -0.04625  -0.209341  0  3.98277  0
C  C97  1  0.65054185  0.46740045  0.24978736  1  0.018843  0  -0.094461  -0.095447  0  4.038482  0
C  C98  1  0.58529895  0.46311290  0.29466793  1  -0.036468  0  -0.09052  -0.072209  0  4.015269  0
C  C99  1  0.46407535  0.51411642  0.29581122  1  -0.110075  0  -0.091556  -0.134492  0  3.970559  0
C  C100  1  0.23039080  0.64937679  0.39151621  1  -0.215838  0  -0.041548  -0.211746  0  3.97321  0
C  C101  1  0.04418307  0.72375212  0.24349092  1  0.018305  0  -0.063959  -0.07063  0  3.615534  0
O  O102  1  0.31134280  0.51718638  0.45838592  1  -1.223045  0  -0.200145  -0.533387  0  2.277888  0
O  O103  1  0.65351371  0.83135066  0.05311647  1  -1.242391  0  -0.22043  -0.572261  0  2.247171  0
O  O104  1  0.64274928  0.02870655  0.03411556  1  -1.259925  0  -0.249272  -0.617295  0  2.226639  0
O  O105  1  0.51739521  0.31625433  0.45455656  1  -1.217491  0  -0.204569  -0.550567  0  2.296746  0
O  O106  1  0.81901509  0.02641438  0.92678996  1  -1.199517  0  -0.19176  -0.517687  0  2.282164  0
O  O107  1  0.01778144  0.82599017  0.92423953  1  -1.201612  0  -0.19686  -0.529931  0  2.285276  0
O  O108  1  0.02070341  0.64997860  0.94086138  1  -1.249462  0  -0.235481  -0.594126  0  2.243124  0
O  O109  1  0.82506859  0.64967009  0.95647643  1  -1.246152  0  -0.228078  -0.593663  0  2.237741  0
O  O110  1  0.65551945  0.81723210  0.95415151  1  -1.253296  0  -0.229345  -0.596924  0  2.242965  0
O  O111  1  0.64932680  0.01386288  0.93551668  1  -1.247027  0  -0.234011  -0.592377  0  2.240693  0
O  O112  1  0.83902606  0.84088734  0.98925107  1  -1.609126  0  -0.390843  -1.271757  0  2.289908  0
O  O113  1  0.68666532  0.51365956  0.53424423  1  -1.249645  0  -0.229759  -0.593565  0  2.239458  0
O  O114  1  0.69463622  0.31190508  0.45049861  1  -1.255405  0  -0.247044  -0.613758  0  2.228118  0
O  O115  1  0.67835740  0.51448533  0.43550431  1  -1.239983  0  -0.219066  -0.573661  0  2.245255  0
O  O116  1  0.51205050  0.68556776  0.44092433  1  -1.238236  0  -0.217664  -0.570585  0  2.248707  0
O  O117  1  0.31395278  0.69060913  0.45285836  1  -1.249508  0  -0.243286  -0.608596  0  2.240728  0
O  O118  1  0.31905255  0.50912671  0.56555454  1  -1.197473  0  -0.202863  -0.545641  0  2.296079  0
O  O119  1  0.51855979  0.30867951  0.56208205  1  -1.209872  0  -0.207804  -0.557473  0  2.287031  0
O  O120  1  0.68975044  0.31816321  0.54959454  1  -1.245343  0  -0.234665  -0.589875  0  2.239016  0
O  O121  1  0.86414668  0.69402581  0.75636538  1  -1.119583  0  -0.371158  -0.49083  0  2.250004  0
O  O122  1  0.51450480  0.67803936  0.54001258  1  -1.244678  0  -0.229085  -0.59364  0  2.246818  0
O  O123  1  0.31566096  0.68560723  0.55165173  1  -1.25015  0  -0.236963  -0.593811  0  2.238502  0
O  O124  1  0.49788978  0.49604578  0.50033737  1  -1.607719  0  -0.391195  -1.275094  0  2.296019  0
O  O125  1  0.82134962  0.01784549  0.03561224  1  -1.215827  0  -0.209694  -0.56073  0  2.293224  0
O  O126  1  0.02549048  0.82198395  0.03164481  1  -1.228196  0  -0.212018  -0.570615  0  2.30008  0
O  O127  1  0.02415499  0.64801073  0.03962103  1  -1.256076  0  -0.244711  -0.606284  0  2.231578  0
O  O128  1  0.82373732  0.66377031  0.05585139  1  -1.231981  0  -0.221063  -0.572882  0  2.245594  0
O  O129  1  0.33211264  0.33238708  0.51639454  1  -1.33366  0  -0.573353  -0.990722  0  1.788774  0
O  O130  1  0.00047899  0.00911836  0.96805955  1  -1.363151  0  -0.572581  -0.987341  0  1.792287  0
