# generated using pymatgen
data_CdH12C18(N3O2)2
_symmetry_space_group_name_H-M   'P 1'
_cell_length_a   9.20412910
_cell_length_b   11.16496773
_cell_length_c   11.16497829
_cell_angle_alpha   91.49991270
_cell_angle_beta   99.93843786
_cell_angle_gamma   99.93848341
_symmetry_Int_Tables_number   1
_chemical_formula_structural   CdH12C18(N3O2)2
_chemical_formula_sum   'Cd2 H24 C36 N12 O8'
_cell_volume   1111.32550721
_cell_formula_units_Z   2
loop_
 _symmetry_equiv_pos_site_id
 _symmetry_equiv_pos_as_xyz
  1  'x, y, z'
loop_
 _atom_site_type_symbol
 _atom_site_label
 _atom_site_symmetry_multiplicity
 _atom_site_fract_x
 _atom_site_fract_y
 _atom_site_fract_z
 _atom_site_occupancy
 _atom_site_pbe_bader_charge
 _atom_site_pbe_bader_spin_density
 _atom_site_pbe_cm5_charge
 _atom_site_pbe_ddec_charge
 _atom_site_pbe_ddec_spin_density
 _atom_site_pbe_ddec_sum_bond_order
 _atom_site_pbe_magmom
Cd  Cd0  1  0.00000147  0.50000041  0.50000009  1  1.326296  0  0.789033  0.967163  0  2.141585  0
Cd  Cd1  1  0.50000029  0.49999983  0.49999962  1  1.326278  0  0.789019  0.967125  0  2.141656  0
H  H2  1  0.91977307  0.74541314  0.31566428  1  0.137229  0  0.135655  0.10791  0  0.986746  0
H  H3  1  0.18539513  0.48930593  0.25323136  1  0.250698  0  0.143845  0.13046  0  1.029134  0
H  H4  1  0.02414343  0.73878785  0.94245742  1  0.109627  0  0.113728  0.126294  0  0.99711  0
H  H5  1  0.32197075  0.50672731  0.10937109  1  0.085654  0  0.111202  0.123133  0  1.010223  0
H  H6  1  0.11128872  0.70961358  0.74387379  1  0.120726  0  0.105075  0.115101  0  1.011308  0
H  H7  1  0.40745295  0.48074255  0.91261660  1  0.059643  0  0.102652  0.101409  0  1.025896  0
H  H8  1  0.58023221  0.68433508  0.25458923  1  0.137111  0  0.135633  0.107894  0  0.986763  0
H  H9  1  0.31460621  0.74676937  0.51069210  1  0.250703  0  0.14384  0.13044  0  1.029245  0
H  H10  1  0.47585397  0.05754452  0.26120645  1  0.109572  0  0.113712  0.126281  0  0.997105  0
H  H11  1  0.17803452  0.89062930  0.49327245  1  0.085617  0  0.11124  0.123153  0  1.010228  0
H  H12  1  0.38870936  0.25612635  0.29038305  1  0.120692  0  0.105078  0.115131  0  1.011299  0
H  H13  1  0.09255006  0.08738193  0.51925720  1  0.059685  0  0.102627  0.101398  0  1.025942  0
H  H14  1  0.08022677  0.25458835  0.68433492  1  0.137228  0  0.135641  0.10789  0  0.986729  0
H  H15  1  0.81460455  0.51069465  0.74676958  1  0.250678  0  0.143844  0.130434  0  1.029145  0
H  H16  1  0.97585346  0.26120998  0.05754307  1  0.109636  0  0.113715  0.126302  0  0.997122  0
H  H17  1  0.67803282  0.49327603  0.89063134  1  0.085629  0  0.111226  0.123146  0  1.010186  0
H  H18  1  0.88870946  0.29038516  0.25612600  1  0.120717  0  0.105083  0.11511  0  1.011279  0
H  H19  1  0.59255062  0.51926079  0.08738493  1  0.059633  0  0.102659  0.10145  0  1.025883  0
H  H20  1  0.41976707  0.31566367  0.74541072  1  0.137137  0  0.13562  0.107872  0  0.986773  0
H  H21  1  0.68539529  0.25322940  0.48930815  1  0.250718  0  0.143825  0.1304  0  1.029251  0
H  H22  1  0.52414457  0.94245604  0.73879165  1  0.10958  0  0.113706  0.126267  0  0.997103  0
H  H23  1  0.82196828  0.10937039  0.50672889  1  0.085706  0  0.111233  0.12314  0  1.010216  0
H  H24  1  0.61128993  0.74387240  0.70961690  1  0.120681  0  0.105077  0.115133  0  1.011288  0
H  H25  1  0.90745146  0.91261685  0.48074483  1  0.059709  0  0.102631  0.101388  0  1.025913  0
C  C26  1  0.98739234  0.69425358  0.27121979  1  0.974649  0  0.142632  0.136728  0  4.006605  0
C  C27  1  0.12210806  0.56300591  0.24160100  1  0.944524  0  0.162163  0.091959  0  3.886091  0
C  C28  1  0.16597160  0.62365822  0.03592847  1  0.235398  0  0.098718  0.147869  0  4.014313  0
C  C29  1  0.10824140  0.68286039  0.93444052  1  0.025679  0  -0.087908  -0.160417  0  3.969693  0
C  C30  1  0.27491939  0.55127865  0.02978923  1  -0.002426  0  -0.092199  -0.178395  0  3.980186  0
C  C31  1  0.15778405  0.66714846  0.82512744  1  -0.04479  0  -0.081125  -0.074819  0  3.964586  0
C  C32  1  0.32379291  0.53736217  0.91991784  1  0.039136  0  -0.081841  -0.072692  0  3.97971  0
C  C33  1  0.26536177  0.59385083  0.81656295  1  -0.06432  0  -0.024928  -0.048461  0  3.979787  0
C  C34  1  0.31390131  0.57426012  0.69686012  1  1.568847  0  0.201392  0.570588  0  4.231586  0
C  C35  1  0.51260983  0.72877828  0.30574538  1  0.974441  0  0.142623  0.136704  0  4.006621  0
C  C36  1  0.37788916  0.75839882  0.43699375  1  0.943575  0  0.162149  0.09197  0  3.885945  0
C  C37  1  0.33403073  0.96407312  0.37634049  1  0.235291  0  0.098741  0.147856  0  4.014257  0
C  C38  1  0.39175922  0.06555980  0.31713397  1  0.025733  0  -0.087895  -0.16042  0  3.969748  0
C  C39  1  0.22508331  0.97021198  0.44871956  1  -0.002736  0  -0.092285  -0.178421  0  3.980108  0
C  C40  1  0.34221597  0.17487337  0.33284883  1  -0.044827  0  -0.081123  -0.074831  0  3.964544  0
C  C41  1  0.17621016  0.08008265  0.46263744  1  -0.021717  0  -0.08177  -0.072671  0  3.979606  0
C  C42  1  0.23464062  0.18343813  0.40614630  1  -0.003013  0  -0.024964  -0.04849  0  3.979668  0
C  C43  1  0.18609917  0.30314018  0.42574137  1  1.568849  0  0.201435  0.570668  0  4.231603  0
C  C44  1  0.01260471  0.30574515  0.72877806  1  0.974633  0  0.142646  0.136761  0  4.006573  0
C  C45  1  0.87789070  0.43699557  0.75839984  1  0.944439  0  0.162185  0.092032  0  3.885895  0
C  C46  1  0.83403048  0.37634328  0.96407282  1  0.235259  0  0.098723  0.147927  0  4.014083  0
C  C47  1  0.89175679  0.31713835  0.06555928  1  0.025739  0  -0.087898  -0.160462  0  3.96965  0
C  C48  1  0.72508418  0.44872469  0.97021320  1  -0.002719  0  -0.092229  -0.178451  0  3.980055  0
C  C49  1  0.84221544  0.33285121  0.17487345  1  -0.044806  0  -0.081139  -0.074822  0  3.964586  0
C  C50  1  0.67621047  0.46264026  0.08008454  1  0.039575  0  -0.081812  -0.072641  0  3.979668  0
C  C51  1  0.73463992  0.40614886  0.18343824  1  -0.064352  0  -0.024953  -0.04852  0  3.979852  0
C  C52  1  0.68609948  0.42574047  0.30314097  1  1.568832  0  0.201463  0.570678  0  4.231488  0
C  C53  1  0.48739185  0.27122140  0.69425491  1  0.974457  0  0.142637  0.136731  0  4.006653  0
C  C54  1  0.62211252  0.24160086  0.56300565  1  0.94411  0  0.162176  0.092052  0  3.885907  0
C  C55  1  0.66596913  0.03592837  0.62366049  1  0.235373  0  0.098759  0.147898  0  4.014232  0
C  C56  1  0.60824024  0.93443985  0.68286423  1  0.025735  0  -0.087921  -0.160436  0  3.969687  0
C  C57  1  0.77491486  0.02978676  0.55127934  1  -0.002558  0  -0.092251  -0.178391  0  3.980081  0
C  C58  1  0.65778350  0.82512629  0.66715116  1  -0.044807  0  -0.081108  -0.074856  0  3.964507  0
C  C59  1  0.82378913  0.91991610  0.53736251  1  -0.021977  0  -0.081783  -0.072689  0  3.979576  0
C  C60  1  0.76535754  0.81656060  0.59385081  1  -0.003084  0  -0.024991  -0.048464  0  3.979614  0
C  C61  1  0.81390032  0.69685949  0.57425952  1  1.568845  0  0.20144  0.570634  0  4.231582  0
N  N62  1  0.04611000  0.59897850  0.32276785  1  -1.199849  0  -0.338732  -0.317499  0  3.464157  0
N  N63  1  0.02272764  0.71892250  0.16332443  1  -0.665664  0  -0.227125  -0.269608  0  3.076271  0
N  N64  1  0.10947373  0.63415154  0.14547770  1  -0.873479  0  -0.113986  0.136537  0  3.742775  0
N  N65  1  0.45389144  0.67722977  0.40102057  1  -1.198811  0  -0.338675  -0.317432  0  3.463866  0
N  N66  1  0.47727806  0.83667439  0.28107653  1  -0.665897  0  -0.22721  -0.269712  0  3.076248  0
N  N67  1  0.39052821  0.85452410  0.36584534  1  -0.873348  0  -0.113914  0.136661  0  3.7426  0
N  N68  1  0.95388817  0.40102024  0.67723105  1  -1.199815  0  -0.338756  -0.31755  0  3.464016  0
N  N69  1  0.97727182  0.28107716  0.83667467  1  -0.665621  0  -0.227126  -0.269623  0  3.076275  0
N  N70  1  0.89052706  0.36584904  0.85452429  1  -0.873419  0  -0.114  0.136506  0  3.74267  0
N  N71  1  0.54611004  0.32276900  0.59897878  1  -1.199367  0  -0.3387  -0.317492  0  3.463942  0
N  N72  1  0.52272361  0.16332529  0.71892197  1  -0.665867  0  -0.227166  -0.26965  0  3.076318  0
N  N73  1  0.60947236  0.14547557  0.63415391  1  -0.873406  0  -0.113932  0.136602  0  3.742651  0
O  O74  1  0.43461807  0.53325101  0.69721061  1  -1.168205  0  -0.323891  -0.558909  0  2.237653  0
O  O75  1  0.23210438  0.60160369  0.60092075  1  -1.195948  0  -0.339832  -0.590757  0  2.352597  0
O  O76  1  0.06538389  0.30278940  0.46674996  1  -1.168195  0  -0.323917  -0.558968  0  2.237778  0
O  O77  1  0.26789767  0.39907980  0.39839716  1  -1.196179  0  -0.339849  -0.590781  0  2.352558  0
O  O78  1  0.56538142  0.46674865  0.30279028  1  -1.168188  0  -0.323917  -0.558966  0  2.237672  0
O  O79  1  0.76789659  0.39839781  0.39908039  1  -1.196162  0  -0.339869  -0.590787  0  2.352578  0
O  O80  1  0.93461653  0.69720936  0.53325193  1  -1.168173  0  -0.323937  -0.558978  0  2.237771  0
O  O81  1  0.73210292  0.60091988  0.60160388  1  -1.195976  0  -0.339821  -0.590726  0  2.352565  0
