# generated using pymatgen
data_Na2H12C12S2Br2N2Cl4O7
_symmetry_space_group_name_H-M   'P 1'
_cell_length_a   6.39069436
_cell_length_b   6.39120758
_cell_length_c   30.27574395
_cell_angle_alpha   93.50335795
_cell_angle_beta   93.17910867
_cell_angle_gamma   116.74985985
_symmetry_Int_Tables_number   1
_chemical_formula_structural   Na2H12C12S2Br2N2Cl4O7
_chemical_formula_sum   'Na4 H24 C24 S4 Br4 N4 Cl8 O14'
_cell_volume   1097.40195953
_cell_formula_units_Z   2
loop_
 _symmetry_equiv_pos_site_id
 _symmetry_equiv_pos_as_xyz
  1  'x, y, z'
loop_
 _atom_site_type_symbol
 _atom_site_label
 _atom_site_symmetry_multiplicity
 _atom_site_fract_x
 _atom_site_fract_y
 _atom_site_fract_z
 _atom_site_occupancy
 _atom_site_hle17_bader_spin_density
 _atom_site_hle17_ddec_charge
 _atom_site_hle17_ddec_spin_density
 _atom_site_hle17_ddec_sum_bond_order
 _atom_site_hle17_magmom
 _atom_site_hse06_10hf_bader_charge
 _atom_site_hse06_10hf_bader_spin_density
 _atom_site_hse06_10hf_ddec_charge
 _atom_site_hse06_10hf_ddec_spin_density
 _atom_site_hse06_10hf_ddec_sum_bond_order
 _atom_site_hse06_10hf_magmom
 _atom_site_hse06_bader_spin_density
 _atom_site_hse06_ddec_charge
 _atom_site_hse06_ddec_spin_density
 _atom_site_hse06_ddec_sum_bond_order
 _atom_site_hse06_magmom
 _atom_site_pbe_bader_spin_density
 _atom_site_pbe_cm5_charge
 _atom_site_pbe_ddec_charge
 _atom_site_pbe_ddec_spin_density
 _atom_site_pbe_ddec_sum_bond_order
 _atom_site_pbe_magmom
Na  Na0  1  0.60560015  0.65479945  0.23566903  1  0  0.920599  0  0.343639  0  0.897887  0  0.887592  0  0.481011  0  0  0.896737  0  0.460263  0  0  0.638251  0.88074  0  0.496015  0
Na  Na1  1  0.91874242  0.37067822  0.26437868  1  0  0.920475  0  0.343637  0  0.898479  0  0.887138  0  0.481423  0  0  0.896228  0  0.460724  0  0  0.637995  0.880265  0  0.496536  0
Na  Na2  1  0.39440228  0.34520547  0.76433125  1  0  0.920604  0  0.343638  0  0.897902  0  0.887611  0  0.480996  0  0  0.896752  0  0.460245  0  0  0.638248  0.880739  0  0.496032  0
Na  Na3  1  0.08126394  0.62932845  0.73562167  1  0  0.920464  0  0.343653  0  0.898491  0  0.887148  0  0.481415  0  0  0.896232  0  0.460714  0  0  0.637997  0.880271  0  0.496521  0
H  H4  1  0.58434091  0.43744693  0.02779011  1  0  0.125299  0  0.937053  0  0.09489  0  0.136741  0  0.99703  0  0  0.140296  0  0.994748  0  0  0.103253  0.134194  0  0.998786  0
H  H5  1  0.90986389  0.55667588  0.47230815  1  0  0.12561  0  0.937111  0  0.102361  0  0.136744  0  0.997291  0  0  0.140307  0  0.994987  0  0  0.103268  0.134188  0  0.999059  0
H  H6  1  0.41565012  0.56252269  0.97220766  1  0  0.125255  0  0.936953  0  0.094289  0  0.136735  0  0.99691  0  0  0.140289  0  0.994626  0  0  0.103238  0.134183  0  0.99867  0
H  H7  1  0.09013041  0.44331863  0.52769587  1  0  0.125669  0  0.937138  0  0.102635  0  0.136812  0  0.997291  0  0  0.140377  0  0.994987  0  0  0.103268  0.134259  0  0.999057  0
H  H8  1  0.89949997  0.96962790  0.04142562  1  0  0.105635  0  0.971071  0  0.07604  0  0.110139  0  1.043917  0  0  0.114051  0  1.041325  0  0  0.090934  0.107316  0  1.045916  0
H  H9  1  0.42867627  0.85858898  0.45877715  1  0  0.106022  0  0.971055  0  0.112447  0  0.110162  0  1.044037  0  0  0.11416  0  1.041337  0  0  0.090795  0.107275  0  1.04611  0
H  H10  1  0.10046745  0.03033127  0.95857170  1  0  0.105614  0  0.971037  0  0.075963  0  0.110114  0  1.043875  0  0  0.114026  0  1.041284  0  0  0.090933  0.10728  0  1.045892  0
H  H11  1  0.57133078  0.14141597  0.54122485  1  0  0.105894  0  0.970908  0  0.112573  0  0.110073  0  1.043899  0  0  0.114067  0  1.041201  0  0  0.090783  0.107186  0  1.045971  0
H  H12  1  0.77788388  0.91544348  0.11809863  1  0  0.100396  0  0.998184  0  0.142927  0  0.103049  0  1.072355  0  0  0.1066  0  1.069614  0  0  0.093938  0.100495  0  1.074363  0
H  H13  1  0.29760969  0.66049384  0.38206398  1  0  0.100477  0  0.998104  0  0.151658  0  0.103225  0  1.072276  0  0  0.106768  0  1.06953  0  0  0.093982  0.100656  0  1.074333  0
H  H14  1  0.22210496  0.08453854  0.88190023  1  0  0.100432  0  0.998097  0  0.142945  0  0.103207  0  1.072179  0  0  0.106762  0  1.069436  0  0  0.093981  0.100641  0  1.074195  0
H  H15  1  0.70238568  0.33951650  0.61793890  1  0  0.100504  0  0.998165  0  0.151271  0  0.103259  0  1.072314  0  0  0.106788  0  1.069578  0  0  0.093974  0.100686  0  1.074366  0
H  H16  1  0.13787610  0.89740870  0.27565238  1  0  0.396186  0  0.915405  0  0.627697  0  0.365553  0  0.980597  0  0  0.374738  0  0.967164  0  0  0.280934  0.359092  0  0.990039  0
H  H17  1  0.12082458  0.86246478  0.22430350  1  0  0.397027  0  0.91458  0  0.633753  0  0.366175  0  0.979786  0  0  0.375362  0  0.96635  0  0  0.281376  0.359711  0  0.98923  0
H  H18  1  0.86212648  0.10260324  0.72434698  1  0  0.396138  0  0.915437  0  0.627724  0  0.365535  0  0.980617  0  0  0.374716  0  0.96719  0  0  0.280952  0.359069  0  0.990063  0
H  H19  1  0.87917314  0.13753662  0.77569602  1  0  0.396999  0  0.914608  0  0.633767  0  0.366136  0  0.979842  0  0  0.375325  0  0.966402  0  0  0.281364  0.359673  0  0.989285  0
H  H20  1  0.14444488  0.46222826  0.18631384  1  0  0.379307  0  0.92667  0  0.610904  0  0.347599  0  1.002998  0  0  0.356791  0  0.989238  0  0  0.273636  0.341067  0  1.012793  0
H  H21  1  0.77575108  0.95896558  0.31367040  1  0  0.378954  0  0.927878  0  0.605858  0  0.347241  0  1.003646  0  0  0.356429  0  0.989892  0  0  0.273128  0.340713  0  1.013435  0
H  H22  1  0.85556058  0.53776957  0.81368608  1  0  0.379347  0  0.926609  0  0.610898  0  0.347642  0  1.002932  0  0  0.356834  0  0.989171  0  0  0.27366  0.341112  0  1.012723  0
H  H23  1  0.22425303  0.04104281  0.68632862  1  0  0.379003  0  0.927751  0  0.605874  0  0.347302  0  1.003536  0  0  0.356489  0  0.989783  0  0  0.273185  0.340775  0  1.013323  0
H  H24  1  0.19120138  0.24730199  0.19473573  1  0  0.415428  0  0.890007  0  0.659218  0  0.382231  0  0.958999  0  0  0.391825  0  0.944895  0  0  0.284344  0.375454  0  0.968962  0
H  H25  1  0.55247998  0.99758631  0.30528241  1  0  0.414954  0  0.89068  0  0.649386  0  0.382011  0  0.959366  0  0  0.391617  0  0.945244  0  0  0.284039  0.375237  0  0.969319  0
H  H26  1  0.80880568  0.75269581  0.80526355  1  0  0.415442  0  0.889993  0  0.659257  0  0.382264  0  0.958957  0  0  0.391856  0  0.944855  0  0  0.284379  0.375488  0  0.968916  0
H  H27  1  0.44752567  0.00242209  0.69471696  1  0  0.415107  0  0.890465  0  0.649419  0  0.382202  0  0.959087  0  0  0.391797  0  0.944981  0  0  0.284114  0.375426  0  0.969043  0
C  C28  1  0.61124900  0.14079577  0.11627357  1  0  -0.187387  0  3.705677  0  -0.077596  0  -0.174302  0  3.96273  0  0  -0.181239  0  3.982564  0  0  -0.037981  -0.169994  0  3.949777  0
C  C29  1  0.52468599  0.49561812  0.38382170  1  0  -0.188538  0  3.706623  0  -0.145014  0  -0.175317  0  3.963269  0  0  -0.18227  0  3.982961  0  0  -0.037891  -0.170997  0  3.950391  0
C  C30  1  0.38875247  0.85919322  0.88372488  1  0  -0.187517  0  3.705697  0  -0.077804  0  -0.174352  0  3.962743  0  0  -0.181266  0  3.982537  0  0  -0.037973  -0.170036  0  3.949776  0
C  C31  1  0.47531584  0.50439917  0.61617904  1  0  -0.188431  0  3.706529  0  -0.144648  0  -0.175344  0  3.963374  0  0  -0.182307  0  3.983069  0  0  -0.037859  -0.171029  0  3.950513  0
C  C32  1  0.55649302  0.28813942  0.09035627  1  0  0.145408  0  3.80666  0  0.008642  0  0.150717  0  4.077326  0  0  0.157068  0  4.096374  0  0  0.01191  0.146384  0  4.064582  0
C  C33  1  0.69800612  0.46661840  0.40971892  1  0  0.145631  0  3.806156  0  0.065549  0  0.150983  0  4.077004  0  0  0.157407  0  4.095971  0  0  0.011746  0.146602  0  4.064332  0
C  C34  1  0.44350997  0.71184246  0.90964080  1  0  0.14547  0  3.806961  0  0.008329  0  0.150746  0  4.07759  0  0  0.157091  0  4.096633  0  0  0.011908  0.146403  0  4.064845  0
C  C35  1  0.30199776  0.53337947  0.59028164  1  0  0.145899  0  3.80582  0  0.065083  0  0.151215  0  4.076785  0  0  0.15764  0  4.095743  0  0  0.011796  0.146831  0  4.064116  0
C  C36  1  0.62669145  0.32204798  0.04738033  1  0  -0.204995  0  3.746494  0  0.053733  0  -0.23875  0  4.004162  0  0  -0.243893  0  4.022736  0  0  -0.111085  -0.235336  0  3.991732  0
C  C37  1  0.77499320  0.57963011  0.45272167  1  0  -0.204995  0  3.747163  0  0.03974  0  -0.239158  0  4.00481  0  0  -0.244278  0  4.023307  0  0  -0.11126  -0.23566  0  3.992207  0
C  C38  1  0.37329745  0.67793399  0.95261687  1  0  -0.205048  0  3.746473  0  0.054792  0  -0.238844  0  4.004211  0  0  -0.243984  0  4.022786  0  0  -0.111079  -0.235413  0  3.991761  0
C  C39  1  0.22499584  0.42037319  0.54728039  1  0  -0.205212  0  3.747329  0  0.039495  0  -0.239302  0  4.004913  0  0  -0.244451  0  4.023481  0  0  -0.111328  -0.235806  0  3.992313  0
C  C40  1  0.74662185  0.20457832  0.02985793  1  0  0.160048  0  3.811867  0  0.033467  0  0.171  0  4.077935  0  0  0.17711  0  4.097449  0  0  0.00947  0.166802  0  4.064719  0
C  C41  1  0.67516027  0.71711586  0.47028696  1  0  0.159282  0  3.812587  0  0.029903  0  0.171506  0  4.076784  0  0  0.1776  0  4.096371  0  0  0.009798  0.167317  0  4.06356  0
C  C42  1  0.25335995  0.79540552  0.97014150  1  0  0.160275  0  3.811862  0  0.03305  0  0.171152  0  4.078019  0  0  0.177264  0  4.097531  0  0  0.009559  0.166956  0  4.06478  0
C  C43  1  0.32483749  0.28289979  0.52971700  1  0  0.159266  0  3.812404  0  0.029953  0  0.171461  0  4.076689  0  0  0.177546  0  4.096274  0  0  0.009831  0.167268  0  4.06348  0
C  C44  1  0.80372678  0.05895514  0.05505378  1  0  -0.133439  0  3.735062  0  0.077894  0  -0.15994  0  3.995491  0  0  -0.164202  0  4.013876  0  0  -0.106591  -0.157114  0  3.983091  0
C  C45  1  0.50428428  0.74914922  0.44511153  1  0  -0.133611  0  3.735482  0  0.034579  0  -0.160139  0  3.995452  0  0  -0.164503  0  4.013834  0  0  -0.106547  -0.157269  0  3.983102  0
C  C46  1  0.19625640  0.94101456  0.94494486  1  0  -0.133578  0  3.734983  0  0.078751  0  -0.160034  0  3.995464  0  0  -0.164298  0  4.013855  0  0  -0.106705  -0.15723  0  3.983114  0
C  C47  1  0.49572061  0.25087168  0.55489226  1  0  -0.133274  0  3.735222  0  0.034758  0  -0.159854  0  3.995177  0  0  -0.164225  0  4.01359  0  0  -0.106487  -0.15698  0  3.98282  0
C  C48  1  0.73576254  0.02923149  0.09801746  1  0  -0.02821  0  3.749709  0  -0.042982  0  -0.055204  0  4.012763  0  0  -0.052747  0  4.031053  0  0  -0.088687  -0.056708  0  4.000523  0
C  C49  1  0.43147717  0.63835918  0.40213014  1  0  -0.028505  0  3.751209  0  -0.023929  0  -0.055392  0  4.013369  0  0  -0.052996  0  4.031878  0  0  -0.088892  -0.056854  0  4.00097  0
C  C50  1  0.26422782  0.97075055  0.90198240  1  0  -0.028251  0  3.749718  0  -0.043307  0  -0.055336  0  4.012595  0  0  -0.052892  0  4.030885  0  0  -0.088732  -0.056826  0  4.000326  0
C  C51  1  0.56853004  0.36165637  0.59787231  1  0  -0.028812  0  3.75146  0  -0.023817  0  -0.0556  0  4.013561  0  0  -0.053187  0  4.03207  0  0  -0.088962  -0.057051  0  4.001153  0
S  S52  1  0.52994813  0.08567747  0.17189689  1  0  1.204831  0  5.52811  0  2.95823  0  1.122991  0  6.035077  0  0  1.166289  0  6.020177  0  0  0.520443  1.09318  0  6.044393  0
S  S53  1  0.41388363  0.35901779  0.32815899  1  0  1.205668  0  5.527407  0  2.982434  0  1.123691  0  6.034522  0  0  1.167052  0  6.019649  0  0  0.521291  1.093871  0  6.043806  0
S  S54  1  0.47005658  0.91432213  0.82810304  1  0  1.205097  0  5.527566  0  2.957945  0  1.123233  0  6.034512  0  0  1.166519  0  6.0196  0  0  0.520532  1.093431  0  6.043822  0
S  S55  1  0.58612368  0.64100125  0.67184217  1  0  1.205825  0  5.527443  0  2.982512  0  1.123928  0  6.034531  0  0  1.167282  0  6.019649  0  0  0.521397  1.094091  0  6.043837  0
Br  Br56  1  0.07103822  0.71883245  0.13564523  1  0  0.064678  0  1.45873  0  0.08728  0  0.086761  0  1.759702  0  0  0.083952  0  1.748965  0  0  0.155475  0.088514  0  1.767387  0
Br  Br57  1  0.08312593  0.93552420  0.36413684  1  0  0.065062  0  1.458629  0  0.089968  0  0.087235  0  1.759308  0  0  0.084388  0  1.748701  0  0  0.155956  0.088999  0  1.767  0
Br  Br58  1  0.92897361  0.28116882  0.86435316  1  0  0.064675  0  1.458796  0  0.087278  0  0.086745  0  1.759802  0  0  0.083942  0  1.749067  0  0  0.155439  0.088482  0  1.767547  0
Br  Br59  1  0.91686577  0.06448417  0.63585936  1  0  0.065066  0  1.45856  0  0.089951  0  0.087276  0  1.75924  0  0  0.084428  0  1.748615  0  0  0.155938  0.08904  0  1.766932  0
N  N60  1  0.25474353  0.00445578  0.17318106  1  0  -0.630023  0  2.656432  0  -1.136419  0  -0.573197  0  2.93987  0  0  -0.589374  0  2.934669  0  0  -0.387531  -0.561807  0  2.943158  0
N  N61  1  0.33152219  0.08254868  0.32674856  1  0  -0.630134  0  2.65647  0  -1.171474  0  -0.573333  0  2.939843  0  0  -0.589585  0  2.934679  0  0  -0.388662  -0.56197  0  2.943163  0
N  N62  1  0.74527150  0.99555257  0.82681845  1  0  -0.630037  0  2.656149  0  -1.136216  0  -0.573214  0  2.939604  0  0  -0.589391  0  2.934405  0  0  -0.387486  -0.561838  0  2.94291  0
N  N63  1  0.66848584  0.91746505  0.67325223  1  0  -0.630247  0  2.656622  0  -1.171673  0  -0.573547  0  2.940075  0  0  -0.589766  0  2.934881  0  0  -0.388669  -0.56217  0  2.943393  0
Cl  Cl64  1  0.40072631  0.43068060  0.10911656  1  0  -0.068608  0  1.518717  0  -0.187217  0  -0.057873  0  1.783327  0  0  -0.061325  0  1.778489  0  0  0.029389  -0.055351  0  1.786771  0
Cl  Cl65  1  0.82158565  0.29196931  0.39091796  1  0  -0.068152  0  1.518292  0  -0.184628  0  -0.057425  0  1.782737  0  0  -0.060883  0  1.777886  0  0  0.029613  -0.054902  0  1.786181  0
Cl  Cl66  1  0.59927442  0.56931373  0.89088326  1  0  -0.068573  0  1.518933  0  -0.187263  0  -0.057848  0  1.783573  0  0  -0.061295  0  1.778738  0  0  0.029391  -0.055316  0  1.787019  0
Cl  Cl67  1  0.17840345  0.70804108  0.60908516  1  0  -0.068318  0  1.518003  0  -0.184615  0  -0.05756  0  1.782418  0  0  -0.061009  0  1.777565  0  0  0.029563  -0.055039  0  1.785869  0
Cl  Cl68  1  0.81771776  0.23550923  0.97562888  1  0  -0.089612  0  1.509377  0  -0.218775  0  -0.074  0  1.768923  0  0  -0.07923  0  1.766843  0  0  0.013473  -0.070167  0  1.770422  0
Cl  Cl69  1  0.76043223  0.84222253  0.52454195  1  0  -0.089141  0  1.509447  0  -0.217492  0  -0.073902  0  1.768448  0  0  -0.079116  0  1.766431  0  0  0.013627  -0.070111  0  1.769905  0
Cl  Cl70  1  0.18227971  0.76447450  0.02436978  1  0  -0.08959  0  1.509435  0  -0.218849  0  -0.073959  0  1.769011  0  0  -0.079189  0  1.76693  0  0  0.013528  -0.070133  0  1.770516  0
Cl  Cl71  1  0.23956938  0.15778421  0.47545999  1  0  -0.089181  0  1.509312  0  -0.217357  0  -0.073918  0  1.768304  0  0  -0.079137  0  1.766294  0  0  0.013617  -0.070122  0  1.769765  0
O  O72  1  0.64058261  0.31081726  0.19968675  1  0  -0.68853  0  1.996084  0  -1.351878  0  -0.649398  0  2.265521  0  0  -0.670681  0  2.252677  0  0  -0.391021  -0.634036  0  2.273679  0
O  O73  1  0.61129100  0.44219079  0.30040470  1  0  -0.687805  0  1.996311  0  -1.343608  0  -0.64874  0  2.265833  0  0  -0.670021  0  2.25296  0  0  -0.390457  -0.633368  0  2.273982  0
O  O74  1  0.35942929  0.68918754  0.80031168  1  0  -0.68857  0  1.995992  0  -1.351887  0  -0.64943  0  2.265408  0  0  -0.670742  0  2.25265  0  0  -0.391049  -0.63407  0  2.27357  0
O  O75  1  0.38871627  0.55782471  0.69959610  1  0  -0.687847  0  1.996308  0  -1.343548  0  -0.648786  0  2.265761  0  0  -0.670081  0  2.252932  0  0  -0.390518  -0.633402  0  2.27391  0
O  O76  1  0.60844751  0.91264651  0.18346570  1  0  -0.668649  0  2.003422  0  -1.351428  0  -0.624601  0  2.26323  0  0  -0.643831  0  2.249431  0  0  -0.378447  -0.611021  0  2.272329  0
O  O77  1  0.22918718  0.42591205  0.31662789  1  0  -0.669202  0  2.003637  0  -1.355227  0  -0.625033  0  2.263293  0  0  -0.644197  0  2.249378  0  0  -0.378618  -0.611485  0  2.272469  0
O  O78  1  0.39156669  0.08736010  0.81653443  1  0  -0.668799  0  2.003358  0  -1.351363  0  -0.624764  0  2.263178  0  0  -0.643989  0  2.249377  0  0  -0.378536  -0.611178  0  2.272274  0
O  O79  1  0.77081615  0.57410171  0.68337315  1  0  -0.669195  0  2.003601  0  -1.355201  0  -0.625035  0  2.263229  0  0  -0.644192  0  2.249306  0  0  -0.378608  -0.611481  0  2.272408  0
O  O80  1  0.03683710  0.78747487  0.24999746  1  0  -0.875363  0  1.78825  0  -1.310835  0  -0.828857  0  1.954421  0  0  -0.844251  0  1.924981  0  0  -0.663855  -0.817932  0  1.975006  0
O  O81  1  0.96316306  0.21253180  0.75000182  1  0  -0.875278  0  1.788274  0  -1.310914  0  -0.828797  0  1.954403  0  0  -0.844185  0  1.924962  0  0  -0.663865  -0.817858  0  1.97499  0
O  O82  1  0.18694322  0.38719133  0.21007995  1  0  -0.880981  0  1.827287  0  -1.310561  0  -0.842691  0  2.003032  0  0  -0.85682  0  1.97179  0  0  -0.672449  -0.832713  0  2.025033  0
O  O83  1  0.67691072  0.97782564  0.28992346  1  0  -0.881075  0  1.829743  0  -1.295828  0  -0.843239  0  2.004949  0  0  -0.857322  0  1.973628  0  0  -0.67209  -0.833275  0  2.026982  0
O  O84  1  0.81306145  0.61280473  0.78991961  1  0  -0.881051  0  1.827287  0  -1.310599  0  -0.842791  0  2.003018  0  0  -0.856908  0  1.971772  0  0  -0.672511  -0.832805  0  2.025012  0
O  O85  1  0.32309174  0.02217925  0.71007616  1  0  -0.881258  0  1.829537  0  -1.295877  0  -0.843472  0  2.00476  0  0  -0.857541  0  1.97344  0  0  -0.672208  -0.83351  0  2.026805  0
