# generated using pymatgen
data_CuH24C33(N2Cl)2
_symmetry_space_group_name_H-M   'P 1'
_cell_length_a   11.67854906
_cell_length_b   11.67830796
_cell_length_c   11.80421950
_cell_angle_alpha   91.76124169
_cell_angle_beta   91.75300223
_cell_angle_gamma   104.74920930
_symmetry_Int_Tables_number   1
_chemical_formula_structural   CuH24C33(N2Cl)2
_chemical_formula_sum   'Cu2 H48 C66 N8 Cl4'
_cell_volume   1554.91371243
_cell_formula_units_Z   2
loop_
 _symmetry_equiv_pos_site_id
 _symmetry_equiv_pos_as_xyz
  1  'x, y, z'
loop_
 _atom_site_type_symbol
 _atom_site_label
 _atom_site_symmetry_multiplicity
 _atom_site_fract_x
 _atom_site_fract_y
 _atom_site_fract_z
 _atom_site_occupancy
 _atom_site_hle17_ddec_charge
 _atom_site_hle17_ddec_spin_density
 _atom_site_hle17_ddec_sum_bond_order
 _atom_site_hle17_magmom
 _atom_site_hse06_10hf_ddec_charge
 _atom_site_hse06_10hf_ddec_spin_density
 _atom_site_hse06_10hf_ddec_sum_bond_order
 _atom_site_hse06_10hf_magmom
 _atom_site_hse06_ddec_charge
 _atom_site_hse06_ddec_spin_density
 _atom_site_hse06_ddec_sum_bond_order
 _atom_site_hse06_magmom
 _atom_site_pbe_cm5_charge
 _atom_site_pbe_ddec_charge
 _atom_site_pbe_ddec_spin_density
 _atom_site_pbe_ddec_sum_bond_order
 _atom_site_pbe_magmom
Cu  Cu0  1  0.72699020  0.12841778  0.52994360  1  0.690429  -0.68102  1.968393  -0.466  0.65682  -0.777192  2.379781  -0.59  0.747511  -0.863329  2.311063  -0.68  0.634162  0.605953  -0.719523  2.424664  -0.534
Cu  Cu1  1  0.12837064  0.72693149  0.02992534  1  0.690121  0.681002  1.968332  0.466  0.656629  0.777213  2.379577  0.59  0.747321  0.863361  2.310859  0.68  0.633888  0.605876  0.719544  2.424241  0.534
H  H2  1  0.55725034  0.13007214  0.71390395  1  0.081356  -0.000565  0.969338  -0.002  0.08939  -0.000599  1.034284  -0.001  0.092346  -0.000413  1.030763  -0.001  0.103349  0.087191  -0.00077  1.036839  -0.002
H  H3  1  0.13004353  0.55720457  0.21390578  1  0.08126  0.000561  0.96946  0.002  0.089339  0.000598  1.034337  0.001  0.092291  0.000412  1.030823  0.001  0.103362  0.087143  0.000769  1.036895  0.002
H  H4  1  0.51011816  0.03143027  0.89640522  1  0.097522  -0.000489  0.961959  0.0  0.107362  -0.000476  1.025341  0.0  0.110034  -0.000348  1.025289  0.0  0.101603  0.105439  -0.00057  1.025554  -0.001
H  H5  1  0.03141662  0.51009676  0.39642802  1  0.097674  0.000492  0.961889  0.0  0.107542  0.000476  1.025236  0.0  0.110223  0.000348  1.025169  0.0  0.10173  0.105625  0.00057  1.025453  0.001
H  H6  1  0.81288412  0.88533722  0.85304877  1  0.122329  2.8e-05  0.987341  -0.001  0.130525  -6.7e-05  1.049312  -0.001  0.134801  -5.4e-05  1.046465  0.0  0.094449  0.127383  -6.1e-05  1.051368  -0.001
H  H7  1  0.88532998  0.81286991  0.35312505  1  0.122322  -2.2e-05  0.98718  0.001  0.13051  6.9e-05  1.049173  0.001  0.13479  5.6e-05  1.046325  0.0  0.094384  0.127368  6.4e-05  1.05123  0.001
H  H8  1  0.84237525  0.98629542  0.67007920  1  0.093805  -0.000933  0.947545  -0.001  0.101287  -0.000945  1.008126  -0.001  0.103793  -0.00072  1.005394  -0.001  0.11055  0.099178  -0.001103  1.010311  -0.001
H  H9  1  0.98625556  0.84235829  0.17012474  1  0.09377  0.000929  0.947836  0.001  0.101178  0.000943  1.008487  0.001  0.103682  0.000719  1.005749  0.001  0.110603  0.099085  0.001101  1.010665  0.001
H  H10  1  0.64064432  0.60533920  0.08825738  1  0.103527  -2e-06  0.970552  0.0  0.112547  -6e-06  1.033707  0.0  0.115101  -4e-06  1.034446  0.0  0.100752  0.110744  -7e-06  1.033311  0.0
H  H11  1  0.60535452  0.64062920  0.58831504  1  0.103559  2e-06  0.970683  0.0  0.112663  6e-06  1.033725  0.0  0.115192  4e-06  1.034489  0.0  0.100835  0.110857  7e-06  1.03333  0.0
H  H12  1  0.70904903  0.73836930  0.93480892  1  0.099937  0.000119  0.968999  0.0  0.109073  8.6e-05  1.032981  0.0  0.112072  5.2e-05  1.030719  0.0  0.098945  0.106837  0.000118  1.034644  0.0
H  H13  1  0.73841907  0.70906133  0.43489846  1  0.099373  -0.000119  0.969249  0.0  0.10875  -8.5e-05  1.032987  0.0  0.111795  -5.2e-05  1.030697  0.0  0.098901  0.106515  -0.000117  1.034628  0.0
H  H14  1  0.52709961  0.98612099  0.07509617  1  0.081027  -6.9e-05  0.969696  0.0  0.09011  -4.6e-05  1.038193  0.0  0.092176  -3.4e-05  1.037858  0.0  0.096359  0.088731  -5.4e-05  1.038271  0.0
H  H15  1  0.98613269  0.52712835  0.57515033  1  0.081011  6.8e-05  0.969945  0.0  0.090168  4.6e-05  1.038336  0.0  0.092174  3.4e-05  1.038096  0.0  0.096382  0.088798  5.4e-05  1.038409  0.0
H  H16  1  0.46437591  0.85576835  0.23138430  1  0.099289  -1e-06  0.980558  0.0  0.10875  -6e-06  1.044235  0.0  0.111098  -1e-05  1.044766  0.0  0.101396  0.107116  -2e-06  1.043956  0.0
H  H17  1  0.85577008  0.46437784  0.73143030  1  0.099156  3e-06  0.980698  0.0  0.10859  6e-06  1.044417  0.0  0.110942  1e-05  1.044945  0.0  0.101335  0.106963  2e-06  1.044118  0.0
H  H18  1  0.20288532  0.95297644  0.92163338  1  0.083568  0.000392  0.948365  0.001  0.091827  0.000556  1.007695  0.001  0.094615  0.000401  1.005224  0.001  0.114532  0.089665  0.000688  1.009675  0.001
H  H19  1  0.95297135  0.20287107  0.42164365  1  0.083463  -0.000392  0.948485  -0.001  0.091694  -0.000557  1.00783  -0.001  0.094477  -0.000402  1.005364  -0.001  0.11448  0.089528  -0.000689  1.009817  -0.001
H  H20  1  0.30181268  0.16429709  0.96093723  1  0.107059  0.000197  0.945418  0.0  0.122648  0.000275  0.994954  0.0  0.12614  0.000191  0.993797  0.0  0.109839  0.12013  0.00035  0.995989  0.0
H  H21  1  0.16428515  0.30178309  0.46092535  1  0.106988  -0.000199  0.945464  0.0  0.122642  -0.000276  0.9949  0.0  0.126142  -0.000191  0.993733  0.0  0.109823  0.120124  -0.00035  0.995935  0.0
H  H22  1  0.35936198  0.07734834  0.30926580  1  0.115488  -0.000297  0.96095  0.0  0.126761  -0.000293  1.019736  0.0  0.131393  -0.00023  1.017032  0.0  0.103103  0.12352  -0.000329  1.021762  0.0
H  H23  1  0.07733215  0.35938148  0.80926404  1  0.115521  0.000295  0.96103  0.0  0.126784  0.000292  1.019823  0.0  0.131418  0.000229  1.017115  0.0  0.103107  0.123538  0.000328  1.021862  0.0
H  H24  1  0.26414354  0.86840795  0.25227075  1  0.080306  0.000426  0.924359  0.001  0.091988  0.00052  0.980148  0.001  0.094277  0.000359  0.978385  0.001  0.118769  0.090212  0.000658  0.981546  0.001
H  H25  1  0.86840491  0.26417496  0.75228709  1  0.080261  -0.000425  0.924301  -0.001  0.092007  -0.000521  0.98003  -0.001  0.094283  -0.00036  0.978297  -0.001  0.118794  0.09024  -0.000659  0.981423  -0.001
H  H26  1  0.55520542  0.46421138  0.36725724  1  0.105748  -1.5e-05  0.946237  0.0  0.11625  1e-05  1.008436  0.0  0.1189  5e-06  1.00812  0.0  0.10416  0.114335  1.4e-05  1.008787  0.0
H  H27  1  0.46417372  0.55517639  0.86729395  1  0.105762  1.5e-05  0.946284  0.0  0.116263  -1e-05  1.008497  0.0  0.118912  -6e-06  1.008185  0.0  0.104179  0.114358  -1.4e-05  1.00883  0.0
H  H28  1  0.48475603  0.24912189  0.32195166  1  0.099121  0.000116  0.978847  0.0  0.107906  -3.5e-05  1.045018  0.0  0.111481  -3.3e-05  1.042806  0.0  0.092431  0.105454  -3.5e-05  1.046489  0.0
H  H29  1  0.24910339  0.48473937  0.82198015  1  0.099142  -0.000114  0.978866  0.0  0.107865  3.6e-05  1.045134  0.0  0.111443  3.4e-05  1.042919  0.0  0.092394  0.105408  3.5e-05  1.046608  0.0
H  H30  1  0.29318686  0.32541084  0.02508792  1  0.09232  0.000378  0.954548  0.0  0.104329  0.000445  1.012163  0.0  0.107218  0.000328  1.01052  0.0  0.101844  0.10229  0.000538  1.013351  0.0
H  H31  1  0.32542716  0.29319764  0.52505941  1  0.092361  -0.000376  0.954534  0.0  0.104271  -0.000445  1.01227  0.0  0.107156  -0.000327  1.010634  0.0  0.101852  0.102233  -0.000537  1.013459  0.0
H  H32  1  0.36601210  0.53708097  0.07029273  1  0.108367  -0.000202  0.95624  0.0  0.116803  -0.000109  1.021395  0.0  0.119981  -8.6e-05  1.019876  0.0  0.099738  0.114509  -0.000122  1.022615  0.0
H  H33  1  0.53707844  0.36601147  0.57028730  1  0.1083  0.000202  0.956245  0.0  0.116736  0.000109  1.021388  0.0  0.119912  8.6e-05  1.019871  0.0  0.099711  0.11444  0.000122  1.022618  0.0
H  H34  1  0.37488909  0.78866450  0.95325151  1  0.07395  0.001079  0.971748  0.002  0.076639  0.000948  1.048085  0.002  0.077436  0.000654  1.048008  0.001  0.109703  0.075711  0.001176  1.048578  0.002
H  H35  1  0.78866229  0.37494069  0.45328447  1  0.074054  -0.00108  0.971772  -0.002  0.076894  -0.000949  1.047957  -0.002  0.077695  -0.000655  1.04787  -0.001  0.109853  0.075972  -0.001176  1.048449  -0.002
H  H36  1  0.47458255  0.78451414  0.77015366  1  0.10769  0.000686  0.957698  0.001  0.117737  0.00062  1.017765  0.001  0.119909  0.000439  1.018617  0.0  0.106851  0.116135  0.00076  1.017338  0.001
H  H37  1  0.78453118  0.47459184  0.27018992  1  0.107636  -0.000685  0.957858  -0.001  0.117638  -0.00062  1.018016  -0.001  0.119796  -0.000439  1.018905  0.0  0.106813  0.116063  -0.00076  1.017532  -0.001
H  H38  1  0.12826091  0.70213078  0.60203779  1  0.104577  0.000648  0.965807  0.001  0.114502  0.000566  1.026477  0.001  0.116732  0.000399  1.027007  0.0  0.105284  0.112851  0.000697  1.026288  0.001
H  H39  1  0.70213388  0.12823551  0.10210204  1  0.104401  -0.000647  0.966036  -0.001  0.114459  -0.000565  1.026561  -0.001  0.116687  -0.000398  1.027092  0.0  0.105239  0.112805  -0.000697  1.026371  -0.001
H  H40  1  0.04226673  0.70889233  0.79320206  1  0.090028  0.000941  0.971134  0.002  0.094966  0.000984  1.038355  0.001  0.09695  0.000725  1.036279  0.001  0.105567  0.093153  0.001173  1.040169  0.002
H  H41  1  0.70886346  0.04228210  0.29326082  1  0.090159  -0.000946  0.970959  -0.002  0.095069  -0.000986  1.03825  -0.001  0.097071  -0.000726  1.03613  -0.001  0.10561  0.093252  -0.001176  1.040064  -0.002
H  H42  1  0.29844169  0.52074591  0.33643227  1  0.101391  -5.6e-05  0.9576  0.0  0.11516  -5e-06  1.011515  0.0  0.117707  -1e-06  1.011417  0.0  0.103506  0.113392  -8e-06  1.011639  0.0
H  H43  1  0.52067704  0.29842572  0.83649777  1  0.101365  5.3e-05  0.957593  0.0  0.115174  5e-06  1.01145  0.0  0.11773  1e-06  1.011351  0.0  0.103482  0.113401  8e-06  1.011573  0.0
H  H44  1  0.21672051  0.56656664  0.51739418  1  0.079081  9.4e-05  0.975584  0.0  0.087125  5.6e-05  1.047051  0.0  0.089121  4.5e-05  1.046642  0.0  0.094312  0.085706  6.5e-05  1.047408  0.0
H  H45  1  0.56651272  0.21670732  0.01743490  1  0.079468  -9.1e-05  0.975769  0.0  0.087432  -5.6e-05  1.047191  0.0  0.089427  -4.5e-05  1.046785  0.0  0.094509  0.086016  -6.5e-05  1.047542  0.0
H  H46  1  0.51582629  0.86966833  0.57679330  1  0.102385  0.000216  0.956558  0.0  0.109661  0.000149  1.022537  0.0  0.111997  0.000132  1.021927  0.0  0.099123  0.107897  0.000153  1.023135  0.0
H  H47  1  0.86963988  0.51580471  0.07678088  1  0.102456  -0.000213  0.956582  0.0  0.109736  -0.000148  1.022579  0.0  0.112075  -0.000132  1.021964  0.0  0.099138  0.107977  -0.000153  1.023184  0.0
H  H48  1  0.59874705  0.82410618  0.39879696  1  0.112398  -1.3e-05  0.98499  0.0  0.119581  1e-06  1.052028  0.0  0.122935  9e-06  1.050218  0.0  0.093126  0.116997  -8e-06  1.053559  0.0
H  H49  1  0.82408622  0.59870258  0.89880188  1  0.112275  1e-05  0.985005  0.0  0.119506  -0.0  1.052001  0.0  0.122878  -9e-06  1.050176  0.0  0.093079  0.116922  8e-06  1.053531  0.0
C  C50  1  0.61197633  0.07623941  0.74959095  1  0.118712  0.005664  3.724674  0.006  0.092688  0.000344  3.973248  0.001  0.103611  0.00149  3.990538  0.002  0.035626  0.08592  -0.000536  3.96176  0.0
C  C51  1  0.07621996  0.61194248  0.24958845  1  0.118614  -0.005608  3.724166  -0.006  0.092684  -0.000346  3.972728  -0.001  0.103611  -0.001494  3.990015  -0.002  0.035569  0.08591  0.000535  3.961254  0.0
C  C52  1  0.58694863  0.02048307  0.85138611  1  -0.178734  -0.008846  3.740462  -0.009  -0.195759  -0.003813  3.989602  -0.004  -0.204336  -0.003521  4.009002  -0.004  -0.093289  -0.190135  -0.004047  3.976313  -0.005
C  C53  1  0.02048506  0.58693479  0.35142096  1  -0.179019  0.008785  3.740198  0.009  -0.196078  0.003817  3.989322  0.004  -0.204653  0.003523  4.00871  0.004  -0.093463  -0.19046  0.004049  3.976051  0.005
C  C54  1  0.65495180  0.94520181  0.89106254  1  0.106416  0.006737  3.772903  0.007  0.116778  0.002375  4.004408  0.002  0.125205  0.002667  4.024044  0.003  0.009923  0.111159  0.002147  3.991058  0.002
C  C55  1  0.94520340  0.65494551  0.39111365  1  0.106434  -0.00669  3.772651  -0.006  0.116807  -0.002377  4.004216  -0.002  0.125237  -0.00267  4.02385  -0.003  0.009955  0.111186  -0.002148  3.990875  -0.002
C  C56  1  0.75173176  0.93684098  0.82560279  1  -0.161969  -0.008325  3.673932  -0.008  -0.175701  -0.003486  3.910512  -0.004  -0.18434  -0.003356  3.92876  -0.004  -0.086181  -0.170182  -0.003563  3.898524  -0.004
C  C57  1  0.93684642  0.75172028  0.32563847  1  -0.161907  0.008266  3.673589  0.008  -0.175613  0.003489  3.910109  0.004  -0.18426  0.003358  3.928363  0.004  -0.086108  -0.170097  0.003564  3.898133  0.004
C  C58  1  0.77126993  0.99501217  0.72470921  1  0.130576  0.005569  3.691908  0.006  0.101022  0.00043  3.944505  0.001  0.111132  0.001587  3.963389  0.002  0.040842  0.094591  -0.000432  3.932436  0.0
C  C59  1  0.99499478  0.77125273  0.22472178  1  0.130382  -0.005516  3.691805  -0.006  0.10094  -0.000431  3.944493  -0.001  0.111059  -0.00159  3.963368  -0.002  0.04076  0.094481  0.00043  3.93245  0.0
C  C60  1  0.54518790  0.71930132  0.17018518  1  0.21701  0.001127  3.783105  0.001  0.208495  0.000408  4.031009  0.0  0.218958  0.000501  4.050941  0.001  0.102557  0.201398  0.000329  4.017369  0.0
C  C61  1  0.71930695  0.54517608  0.67023534  1  0.216554  -0.001096  3.782944  -0.001  0.208281  -0.000406  4.030565  0.0  0.21874  -0.0005  4.050498  -0.001  0.102374  0.201185  -0.00033  4.016925  0.0
C  C62  1  0.61623155  0.68926500  0.08575283  1  -0.160643  -0.000396  3.74015  0.0  -0.178413  -0.00022  3.99137  0.0  -0.184513  -0.000304  4.011802  0.0  -0.096935  -0.174373  -0.000138  3.97761  0.0
C  C63  1  0.68928075  0.61623270  0.58581853  1  -0.160715  0.000368  3.740682  0.0  -0.178657  0.000214  3.991881  0.0  -0.184736  0.000304  4.012349  0.0  -0.097029  -0.174615  0.000139  3.978119  0.0
C  C64  1  0.65421374  0.76463322  0.99849990  1  -0.069482  0.001451  3.732576  0.001  -0.090432  0.000533  3.978655  0.001  -0.088861  0.000582  3.997902  0.001  -0.083929  -0.091287  0.000475  3.965559  0.0
C  C65  1  0.76465830  0.65424103  0.49859014  1  -0.068623  -0.001422  3.732495  -0.001  -0.0897  -0.000527  3.978572  -0.001  -0.088169  -0.000584  3.997738  -0.001  -0.083783  -0.090543  -0.000474  3.965502  0.0
C  C66  1  0.62254819  0.87283384  0.99043486  1  0.007205  -0.001667  3.792435  -0.002  0.022902  -0.000382  4.023376  0.0  0.017947  -0.000432  4.047755  -0.001  -0.022221  0.026209  -0.000339  4.006673  0.0
C  C67  1  0.87284931  0.62256821  0.49050445  1  0.007096  0.001637  3.791867  0.002  0.022635  0.000379  4.023077  0.0  0.017684  0.000437  4.047451  0.001  -0.022426  0.025943  0.00034  4.006382  0.0
C  C68  1  0.55403039  0.90334747  0.07700986  1  -0.092692  0.001426  3.77315  0.001  -0.110485  0.000512  4.022069  0.0  -0.10981  0.000582  4.043441  0.001  -0.090529  -0.110519  0.000432  4.007159  0.0
C  C69  1  0.90337152  0.55406280  0.57707826  1  -0.092536  -0.001389  3.772916  -0.001  -0.11033  -0.000507  4.021828  0.0  -0.109622  -0.000583  4.04319  -0.001  -0.090268  -0.110372  -0.000433  4.006927  0.0
C  C70  1  0.51723527  0.82943478  0.16603220  1  -0.167225  -0.000476  3.74826  0.0  -0.187024  -0.000195  4.002105  0.0  -0.194235  -0.000283  4.024174  0.0  -0.100625  -0.182301  -9.8e-05  3.98724  0.0
C  C71  1  0.82945768  0.51725360  0.66609177  1  -0.167035  0.000432  3.748095  0.0  -0.186878  0.000186  4.001818  0.0  -0.194085  0.000279  4.023869  0.0  -0.10067  -0.18215  9.7e-05  3.986956  0.0
C  C72  1  0.24128149  0.98390458  0.00572279  1  0.127744  -0.003866  3.73946  -0.004  0.100327  -0.000864  3.993976  -0.001  0.109598  -0.00149  4.012186  -0.002  0.039742  0.094425  -0.000358  3.982105  -0.001
C  C73  1  0.98390713  0.24126423  0.50573388  1  0.127836  0.003843  3.739757  0.004  0.100474  0.000867  3.994254  0.001  0.109754  0.001497  4.012459  0.002  0.039876  0.09458  0.00036  3.982391  0.001
C  C74  1  0.29478015  0.10268377  0.02940138  1  -0.175161  0.004605  3.724728  0.005  -0.189155  0.002077  3.963341  0.002  -0.197429  0.001981  3.982029  0.002  -0.08763  -0.183831  0.00217  3.950804  0.002
C  C75  1  0.10267917  0.29476036  0.52939999  1  -0.175143  -0.004577  3.72473  -0.004  -0.18913  -0.002078  3.963272  -0.002  -0.197408  -0.001989  3.981954  -0.002  -0.087629  -0.183802  -0.002172  3.95074  -0.002
C  C76  1  0.33721869  0.14261790  0.14038184  1  0.107253  -0.003892  3.771811  -0.004  0.11924  -0.001681  4.001809  -0.002  0.12702  -0.001792  4.022408  -0.002  0.012264  0.114132  -0.001618  3.987755  -0.002
C  C77  1  0.14260888  0.33722822  0.64036699  1  0.107321  0.003864  3.771398  0.004  0.119169  0.001684  4.001591  0.002  0.126952  0.001799  4.022184  0.002  0.012153  0.114063  0.00162  3.987551  0.002
C  C78  1  0.32732503  0.05487872  0.22148044  1  -0.164317  0.004625  3.680534  0.004  -0.177697  0.002286  3.914526  0.002  -0.186171  0.002214  3.932765  0.002  -0.083528  -0.172273  0.002334  3.902235  0.003
C  C79  1  0.05487619  0.32733052  0.72148731  1  -0.164204  -0.004591  3.680693  -0.004  -0.177524  -0.002289  3.914684  -0.002  -0.185993  -0.002223  3.932914  -0.002  -0.083425  -0.172095  -0.002338  3.902397  -0.003
C  C80  1  0.27418128  0.93706507  0.18999255  1  0.128858  -0.002957  3.719406  -0.003  0.103251  -3.8e-05  3.976171  0.0  0.112909  -0.000706  3.993881  -0.001  0.046482  0.097222  0.000454  3.964474  0.0
C  C81  1  0.93707242  0.27420225  0.69001064  1  0.128776  0.00292  3.719376  0.003  0.103144  3.6e-05  3.97617  0.0  0.1128  0.000706  3.993876  0.001  0.04644  0.097112  -0.000459  3.964485  0.0
C  C82  1  0.46825238  0.51418290  0.22014604  1  0.187276  -0.001088  3.797643  -0.001  0.182458  -0.000425  4.045519  0.0  0.190019  -0.000457  4.066195  0.0  0.093745  0.177226  -0.000396  4.031468  0.0
C  C83  1  0.51417152  0.46823647  0.72016912  1  0.187071  0.001077  3.797829  0.001  0.182452  0.000425  4.045434  0.0  0.190008  0.00046  4.066119  0.0  0.093694  0.177217  0.000396  4.031378  0.0
C  C84  1  0.49940635  0.43213801  0.29126444  1  -0.14214  0.001034  3.736018  0.001  -0.163556  0.000131  3.990996  0.0  -0.167736  0.000184  4.011493  0.0  -0.091095  -0.160746  8.9e-05  3.977175  0.0
C  C85  1  0.43211132  0.49939093  0.79129005  1  -0.142119  -0.001025  3.735987  -0.001  -0.163633  -0.000133  3.990988  0.0  -0.167814  -0.000187  4.011489  0.0  -0.091075  -0.160832  -8.9e-05  3.977152  0.0
C  C86  1  0.45818135  0.31123546  0.26577482  1  -0.088838  -0.001381  3.722757  -0.001  -0.106979  -0.00048  3.968479  0.0  -0.108197  -0.000499  3.989722  0.0  -0.087295  -0.105877  -0.000462  3.953839  0.0
C  C87  1  0.31121103  0.45816723  0.76578080  1  -0.08883  0.001365  3.722462  0.001  -0.106918  0.000482  3.968231  0.0  -0.108139  0.000496  3.98948  0.0  -0.087383  -0.10581  0.000463  3.953581  0.0
C  C88  1  0.38486197  0.26980927  0.16837740  1  0.020786  0.001802  3.792996  0.002  0.033819  0.000388  4.027778  0.0  0.029837  0.000384  4.053135  0.0  -0.016169  0.036417  0.000408  4.010505  0.0
C  C89  1  0.26979699  0.38486191  0.66836496  1  0.020889  -0.001783  3.792676  -0.002  0.033967  -0.000391  4.027501  0.0  0.029986  -0.000376  4.05286  0.0  -0.016042  0.036558  -0.000408  4.010224  0.0
C  C90  1  0.35465294  0.35377962  0.09785771  1  -0.084169  -0.000675  3.744529  -0.001  -0.103765  0.000143  3.991443  0.0  -0.104317  -4.7e-05  4.012316  0.0  -0.085627  -0.103133  0.000294  3.977034  0.0
C  C91  1  0.35378331  0.35465677  0.59783775  1  -0.084315  0.000655  3.744389  0.001  -0.103854  -0.000141  3.991339  0.0  -0.104403  4.3e-05  4.012211  0.0  -0.08569  -0.103222  -0.000293  3.976928  0.0
C  C92  1  0.39583527  0.47424963  0.12276688  1  -0.145105  0.00085  3.752192  0.001  -0.164699  0.000162  4.003327  0.0  -0.168949  0.000205  4.023325  0.0  -0.091429  -0.161832  0.000131  3.989813  0.0
C  C93  1  0.47424910  0.39583627  0.62277154  1  -0.145005  -0.000837  3.752333  -0.001  -0.164632  -0.000163  4.003369  0.0  -0.168884  -0.000207  4.023373  0.0  -0.091387  -0.161773  -0.000131  3.989853  0.0
C  C94  1  0.32360714  0.77029609  0.87306758  1  0.114405  -0.00583  3.709891  -0.006  0.084029  0.000157  3.968589  -0.001  0.093826  -0.00128  3.987626  -0.002  0.039029  0.077837  0.001257  3.956299  0.001
C  C95  1  0.77029058  0.32365659  0.37309548  1  0.113901  0.005851  3.710198  0.006  0.083416  -0.000158  3.968772  0.001  0.093215  0.00128  3.987809  0.002  0.03887  0.077195  -0.001259  3.956554  -0.001
C  C96  1  0.37865247  0.76873046  0.77068611  1  -0.160106  0.010389  3.712778  0.011  -0.176757  0.004247  3.958791  0.005  -0.184818  0.003837  3.979328  0.004  -0.08405  -0.171495  0.004553  3.944901  0.005
C  C97  1  0.76873672  0.37867154  0.27070646  1  -0.159809  -0.010403  3.71344  -0.011  -0.1765  -0.004247  3.959464  -0.005  -0.184566  -0.003836  3.979999  -0.004  -0.08409  -0.171227  -0.004552  3.945585  -0.005
C  C98  1  0.30929337  0.73963002  0.66973377  1  0.120111  -0.007567  3.774605  -0.007  0.129752  -0.002328  4.002971  -0.002  0.136875  -0.002758  4.022942  -0.003  0.015597  0.124978  -0.001973  3.989367  -0.002
C  C99  1  0.73964616  0.30929086  0.16977207  1  0.120116  0.007566  3.774784  0.007  0.129748  0.002323  4.00305  0.002  0.136868  0.002754  4.023016  0.003  0.015714  0.124982  0.001968  3.989446  0.002
C  C100  1  0.18620704  0.71991974  0.67799570  1  -0.164793  0.009689  3.707865  0.01  -0.178871  0.003944  3.947478  0.004  -0.187174  0.003668  3.96734  0.004  -0.084437  -0.173474  0.004129  3.934168  0.005
C  C101  1  0.71991207  0.18620052  0.17804527  1  -0.164598  -0.009705  3.708404  -0.01  -0.178779  -0.003945  3.947988  -0.004  -0.187082  -0.003667  3.967861  -0.004  -0.084373  -0.173379  -0.004129  3.934671  -0.005
C  C102  1  0.13721439  0.72342712  0.78297679  1  0.132701  -0.007166  3.692297  -0.007  0.104174  -0.000484  3.938888  -0.001  0.114311  -0.001771  3.957311  -0.003  0.042768  0.097682  0.000482  3.927111  0.0
C  C103  1  0.72341742  0.13723663  0.28302852  1  0.132266  0.007183  3.692917  0.007  0.103653  0.000482  3.939602  0.001  0.113783  0.001769  3.95804  0.003  0.042325  0.097178  -0.000485  3.927808  0.0
C  C104  1  0.45392842  0.66867291  0.35460379  1  0.198482  -0.000712  3.781042  -0.001  0.190231  -0.000311  4.032038  0.0  0.198479  -0.000428  4.053475  0.0  0.094961  0.184635  -0.000201  4.017317  0.0
C  C105  1  0.66863700  0.45389004  0.85462949  1  0.198256  0.000648  3.781652  0.001  0.190125  0.000319  4.032471  0.0  0.198371  0.00042  4.05392  0.0  0.094956  0.184527  0.0002  4.017745  0.0
C  C106  1  0.34552326  0.59749928  0.38902534  1  -0.16476  0.001755  3.77714  0.002  -0.184316  0.000301  4.029684  0.0  -0.190327  0.00031  4.052591  0.0  -0.10044  -0.180189  0.000337  4.013983  0.0
C  C107  1  0.59745610  0.34549806  0.88907144  1  -0.164837  -0.001687  3.776567  -0.002  -0.184473  -0.000313  4.029088  0.0  -0.190484  -0.000304  4.051986  0.0  -0.100538  -0.180347  -0.000337  4.013399  0.0
C  C108  1  0.29944933  0.62389738  0.49029695  1  -0.090629  -0.001598  3.787815  -0.002  -0.111749  -0.000362  4.039376  0.0  -0.112613  -0.000452  4.062784  0.0  -0.09224  -0.110874  -0.000277  4.02317  0.0
C  C109  1  0.62384500  0.29943404  0.99035571  1  -0.090991  0.001526  3.787369  0.002  -0.112137  0.000364  4.038957  0.0  -0.113003  0.000446  4.062367  0.0  -0.092366  -0.111265  0.000277  4.02275  0.0
C  C110  1  0.36000468  0.72079009  0.56076805  1  0.019271  0.002215  3.800432  0.002  0.035541  0.000337  4.029707  0.0  0.032296  0.000363  4.053298  0.001  -0.017184  0.037758  0.000332  4.013518  0.0
C  C111  1  0.72077421  0.35997245  0.06079841  1  0.019347  -0.002153  3.800701  -0.002  0.035849  -0.000331  4.029614  0.0  0.032612  -0.000358  4.053196  -0.001  -0.017061  0.038061  -0.000332  4.013431  0.0
C  C112  1  0.46781881  0.79220059  0.52538095  1  -0.076847  -0.001145  3.723609  -0.001  -0.095317  -0.000231  3.968886  0.0  -0.09474  -0.000354  3.988149  0.0  -0.082735  -0.095463  -0.000122  3.955697  0.0
C  C113  1  0.79216556  0.46778110  0.02539705  1  -0.077201  0.001068  3.724331  0.001  -0.095811  0.000229  3.969646  0.0  -0.095236  0.000346  3.988911  0.0  -0.082943  -0.095962  0.00012  3.95647  0.0
C  C114  1  0.51409302  0.76739173  0.42298999  1  -0.15262  0.000801  3.72815  0.001  -0.171459  0.000195  3.979644  0.0  -0.176951  0.000275  4.000072  0.0  -0.093766  -0.167798  0.000128  3.966028  0.0
C  C115  1  0.76736374  0.51405902  0.92300824  1  -0.152448  -0.000727  3.728195  -0.001  -0.171281  -0.000204  3.979586  0.0  -0.176792  -0.000269  4.000033  0.0  -0.093779  -0.167619  -0.000128  3.965968  0.0
N  N116  1  0.70099871  0.06200549  0.68511868  1  -0.302309  -0.081976  3.363232  -0.098  -0.249469  -0.057769  3.656145  -0.074  -0.283317  -0.048143  3.680972  -0.064  -0.354972  -0.229914  -0.062919  3.641814  -0.078
N  N117  1  0.06196205  0.70094994  0.18510201  1  -0.301791  0.081934  3.362139  0.098  -0.24918  0.057756  3.655166  0.074  -0.283026  0.04814  3.679983  0.064  -0.354892  -0.229642  0.062906  3.640824  0.078
N  N118  1  0.23075761  0.90085796  0.08416471  1  -0.318843  0.039282  3.304868  0.047  -0.269515  0.037211  3.599435  0.048  -0.297468  0.031458  3.620991  0.043  -0.339101  -0.253216  0.040495  3.586882  0.05
N  N119  1  0.90085926  0.23076424  0.58418081  1  -0.318698  -0.039357  3.304838  -0.047  -0.26947  -0.037282  3.599542  -0.048  -0.297432  -0.031517  3.621094  -0.043  -0.339203  -0.253154  -0.04056  3.587011  -0.05
N  N120  1  0.20502518  0.74706723  0.87943550  1  -0.284911  0.095216  3.396452  0.114  -0.226484  0.065207  3.674735  0.084  -0.261  0.053809  3.702342  0.072  -0.353747  -0.206513  0.071276  3.658447  0.088
N  N121  1  0.74709969  0.20507995  0.37946217  1  -0.28426  -0.095251  3.396544  -0.114  -0.22577  -0.065215  3.674869  -0.084  -0.260293  -0.053813  3.702492  -0.072  -0.353349  -0.205776  -0.071283  3.658587  -0.088
N  N122  1  0.50088264  0.63711229  0.25250284  1  -0.242836  0.001687  3.4513  0.002  -0.166402  0.000167  3.672611  0.0  -0.187823  0.000103  3.69549  0.0  -0.250688  -0.151301  0.000229  3.656209  0.0
N  N123  1  0.63710282  0.50084767  0.75253590  1  -0.242336  -0.001695  3.45108  -0.002  -0.166101  -0.000161  3.67229  0.0  -0.187511  -0.000102  3.695149  0.0  -0.250378  -0.150994  -0.00023  3.655873  0.0
Cl  Cl124  1  0.52653749  0.12344082  0.50130359  1  -0.54544  -0.13688  0.823859  -0.151  -0.555453  -0.082036  1.072029  -0.097  -0.587135  -0.06247  1.051402  -0.077  -0.342334  -0.536559  -0.0929  1.08682  -0.106
Cl  Cl125  1  0.12350471  0.52647000  0.00129061  1  -0.545397  0.136807  0.823625  0.151  -0.555382  0.082  1.071703  0.097  -0.58706  0.06244  1.051086  0.077  -0.342268  -0.53652  0.09285  1.086461  0.106
Cl  Cl126  1  0.80036020  0.96141736  0.45455293  1  -0.635095  -0.03888  0.828176  -0.045  -0.615148  -0.01813  1.064183  -0.023  -0.635626  -0.012114  1.040584  -0.016  -0.364723  -0.599045  -0.02289  1.079716  -0.028
Cl  Cl127  1  0.96144371  0.80034505  0.95460794  1  -0.634735  0.03914  0.828323  0.045  -0.614902  0.018253  1.06434  0.023  -0.635404  0.0122  1.040737  0.017  -0.364641  -0.598814  0.023032  1.079849  0.028
