# generated using pymatgen
data_CuH10C12S2N4O5
_symmetry_space_group_name_H-M   'P 1'
_cell_length_a   5.43833920
_cell_length_b   10.28821216
_cell_length_c   29.36804311
_cell_angle_alpha   90.00021113
_cell_angle_beta   90.00000944
_cell_angle_gamma   90.00069486
_symmetry_Int_Tables_number   1
_chemical_formula_structural   CuH10C12S2N4O5
_chemical_formula_sum   'Cu4 H40 C48 S8 N16 O20'
_cell_volume   1643.16513914
_cell_formula_units_Z   4
loop_
 _symmetry_equiv_pos_site_id
 _symmetry_equiv_pos_as_xyz
  1  'x, y, z'
loop_
 _atom_site_type_symbol
 _atom_site_label
 _atom_site_symmetry_multiplicity
 _atom_site_fract_x
 _atom_site_fract_y
 _atom_site_fract_z
 _atom_site_occupancy
 _atom_site_pbe_bader_charge
 _atom_site_pbe_bader_spin_density
 _atom_site_pbe_cm5_charge
 _atom_site_pbe_ddec_charge
 _atom_site_pbe_ddec_spin_density
 _atom_site_pbe_ddec_sum_bond_order
 _atom_site_pbe_magmom
Cu  Cu0  1  0.76472560  0.49085722  0.76531389  1  1.111028  0.596054  0.75453  0.856367  0.750414  2.153113  0.595
Cu  Cu1  1  0.73526861  0.50914267  0.26531362  1  1.111033  0.596053  0.754499  0.8563  0.750412  2.15319  0.595
Cu  Cu2  1  0.23526996  0.99085670  0.73468637  1  1.111019  0.596053  0.75453  0.856338  0.750413  2.153154  0.595
Cu  Cu3  1  0.26473335  0.00914157  0.23468539  1  1.110944  0.596053  0.754533  0.856291  0.750413  2.153226  0.595
H  H4  1  0.05401028  0.30932375  0.74594778  1  0.667387  0.000212  0.293143  0.39722  0.000627  0.940309  0.0
H  H5  1  0.44599852  0.69067365  0.24594744  1  0.667339  0.000212  0.293136  0.397196  0.000627  0.940329  0.0
H  H6  1  0.94599224  0.80932320  0.75405427  1  0.667359  0.000212  0.293157  0.397176  0.000628  0.940342  0.0
H  H7  1  0.55400751  0.19067464  0.25405216  1  0.667419  0.000212  0.293084  0.397122  0.000627  0.940457  0.0
H  H8  1  0.09588746  0.65049873  0.32165485  1  0.160166  0.002443  0.123906  0.109126  0.00131  1.009594  0.002
H  H9  1  0.40411573  0.34949161  0.82165290  1  0.16014  0.002444  0.123921  0.109131  0.001311  1.009546  0.002
H  H10  1  0.90411583  0.15049352  0.17834605  1  0.160214  0.002442  0.123917  0.109171  0.00131  1.009576  0.002
H  H11  1  0.59588770  0.84950458  0.67834511  1  0.160224  0.002443  0.123932  0.10918  0.00131  1.009514  0.002
H  H12  1  0.18351558  0.67851206  0.40484054  1  0.099229  0.001023  0.105498  0.111402  0.000501  1.035232  0.001
H  H13  1  0.31648935  0.32148783  0.90483888  1  0.098996  0.001024  0.10553  0.111456  0.000501  1.03524  0.001
H  H14  1  0.81649937  0.17852005  0.09515973  1  0.099025  0.001024  0.105495  0.111384  0.000501  1.035269  0.001
H  H15  1  0.68350977  0.82149085  0.59515910  1  0.099088  0.001024  0.105495  0.111355  0.000501  1.03529  0.001
H  H16  1  0.51709475  0.46229010  0.43192767  1  0.078167  0.001147  0.107851  0.119251  0.000582  0.998293  0.001
H  H17  1  0.98289557  0.53772985  0.93192497  1  0.07865  0.001147  0.107859  0.119198  0.000582  0.998262  0.001
H  H18  1  0.48289714  0.96229058  0.06807129  1  0.078267  0.001147  0.107852  0.119238  0.000581  0.998407  0.001
H  H19  1  0.01709719  0.03771291  0.56807159  1  0.078256  0.001147  0.10786  0.119237  0.000582  0.99831  0.001
H  H20  1  0.46211269  0.43918346  0.34849274  1  0.154888  0.002416  0.122422  0.10318  0.001098  1.028493  0.002
H  H21  1  0.03787576  0.56081978  0.84848969  1  0.154899  0.002416  0.122415  0.10315  0.001097  1.028488  0.002
H  H22  1  0.53788052  0.93917732  0.15150653  1  0.154881  0.002417  0.122429  0.10316  0.001098  1.028512  0.002
H  H23  1  0.96211752  0.06081565  0.65150656  1  0.154886  0.002415  0.122426  0.103165  0.001097  1.028524  0.002
H  H24  1  0.20690297  0.66770177  0.62343971  1  0.083036  0.00098  0.104666  0.108221  0.000471  1.050352  0.001
H  H25  1  0.29310048  0.33229543  0.12343987  1  0.082885  0.00098  0.10464  0.108177  0.000471  1.05033  0.001
H  H26  1  0.79310557  0.16770258  0.87656044  1  0.082899  0.000981  0.104594  0.108043  0.000471  1.050274  0.001
H  H27  1  0.70689034  0.83229449  0.37656164  1  0.08269  0.000981  0.104626  0.108149  0.000471  1.050287  0.001
H  H28  1  0.14013214  0.63271045  0.70652489  1  0.147693  0.001916  0.122316  0.098946  0.000933  1.043866  0.001
H  H29  1  0.35985833  0.36730213  0.20652442  1  0.147658  0.001915  0.122297  0.098938  0.000933  1.043845  0.001
H  H30  1  0.85988298  0.13269632  0.79347453  1  0.147788  0.001914  0.122293  0.098919  0.000932  1.043997  0.001
H  H31  1  0.64013511  0.86729412  0.29347611  1  0.147821  0.001914  0.122304  0.098915  0.000932  1.043929  0.001
H  H32  1  0.48099143  0.44203498  0.68373810  1  0.162022  0.001924  0.126453  0.10626  0.000882  1.007282  0.002
H  H33  1  0.01901010  0.55796669  0.18373855  1  0.162003  0.001925  0.126477  0.106289  0.000883  1.007169  0.002
H  H34  1  0.51901775  0.94202640  0.81626516  1  0.158582  0.001928  0.126484  0.106294  0.000883  1.007047  0.002
H  H35  1  0.98099479  0.05797009  0.31625950  1  0.16159  0.001926  0.126448  0.10632  0.000883  1.007098  0.002
H  H36  1  0.52116025  0.46477628  0.60009890  1  0.097978  0.000845  0.110234  0.12425  0.000433  0.991742  0.0
H  H37  1  0.97884889  0.53521621  0.10009937  1  0.097689  0.000845  0.110235  0.124258  0.000433  0.991694  0.0
H  H38  1  0.47883289  0.96477309  0.89990370  1  0.097829  0.000845  0.11029  0.124347  0.000433  0.991907  0.0
H  H39  1  0.02115365  0.03522286  0.39989933  1  0.097671  0.000845  0.110251  0.12426  0.000433  0.991698  0.0
H  H40  1  0.22069126  0.43681979  0.76093151  1  0.653575  1.1e-05  0.296175  0.397159  0.000406  0.942635  0.0
H  H41  1  0.27931017  0.56317970  0.26092893  1  0.653624  1.1e-05  0.29616  0.397197  0.000406  0.942608  0.0
H  H42  1  0.77931044  0.93681704  0.73907140  1  0.653636  1.1e-05  0.2961  0.397128  0.000405  0.942684  0.0
H  H43  1  0.72068933  0.06318066  0.23906947  1  0.653582  1.1e-05  0.296143  0.397125  0.000406  0.942669  0.0
C  C44  1  0.97363290  0.61031983  0.34746354  1  0.528052  -0.0011  0.05503  0.102251  -0.001524  3.898884  -0.001
C  C45  1  0.52636304  0.38967988  0.84746331  1  0.527908  -0.001099  0.055061  0.102378  -0.001524  3.899073  -0.001
C  C46  1  0.02636764  0.11031930  0.15253561  1  0.528013  -0.0011  0.05503  0.102175  -0.001524  3.898891  -0.001
C  C47  1  0.47363025  0.88968305  0.65253545  1  0.528001  -0.001099  0.054955  0.102084  -0.001523  3.899093  -0.001
C  C48  1  0.02135703  0.62571416  0.39359425  1  -0.079078  0.00605  -0.076114  -0.150816  0.003918  3.91  0.005
C  C49  1  0.47863871  0.37429048  0.89359098  1  -0.078837  0.006049  -0.076215  -0.151022  0.003918  3.910175  0.005
C  C50  1  0.97865858  0.12571555  0.10640696  1  -0.078989  0.006048  -0.07615  -0.150852  0.003917  3.910183  0.005
C  C51  1  0.52135056  0.87428964  0.60640639  1  -0.078916  0.006049  -0.076074  -0.150703  0.003918  3.910168  0.005
C  C52  1  0.85886392  0.57137428  0.42548947  1  0.080417  -0.003558  0.011123  0.093059  -0.00403  4.024946  -0.002
C  C53  1  0.64112457  0.42863880  0.92548795  1  0.080508  -0.003559  0.011111  0.093066  -0.004031  4.024965  -0.002
C  C54  1  0.14113391  0.07138154  0.07451064  1  0.080452  -0.003559  0.011168  0.093177  -0.00403  4.024813  -0.002
C  C55  1  0.35886224  0.92862492  0.57451018  1  0.080405  -0.003558  0.01116  0.093189  -0.00403  4.02495  -0.002
C  C56  1  0.65161978  0.50556131  0.40894763  1  -0.071697  0.006393  -0.078515  -0.16149  0.004138  3.913966  0.005
C  C57  1  0.84836506  0.49445356  0.90894349  1  -0.072007  0.006392  -0.078571  -0.161553  0.004137  3.914233  0.005
C  C58  1  0.34838210  0.00555939  0.09105205  1  -0.071779  0.006395  -0.078541  -0.161577  0.004139  3.914035  0.005
C  C59  1  0.15161955  0.99443945  0.59105201  1  -0.071766  0.006393  -0.078536  -0.161568  0.004138  3.91395  0.005
C  C60  1  0.61727095  0.49338101  0.36229248  1  0.538539  -0.001083  0.06009  0.120885  -0.001367  3.888615  0.0
C  C61  1  0.88271946  0.50662661  0.86229041  1  0.53841  -0.001082  0.060141  0.121108  -0.001366  3.888594  0.0
C  C62  1  0.38272532  0.99337761  0.13770789  1  0.538848  -0.001085  0.0601  0.12096  -0.001367  3.888726  0.0
C  C63  1  0.11726892  0.00662070  0.63770781  1  0.538496  -0.001083  0.060105  0.120954  -0.001367  3.888531  0.0
C  C64  1  0.90709749  0.58225800  0.47421455  1  0.399572  0.00019  0.128218  0.098956  2.8e-05  4.010084  0.0
C  C65  1  0.59289646  0.41775166  0.97421403  1  0.399528  0.00019  0.128267  0.099118  2.8e-05  4.009988  0.0
C  C66  1  0.09291346  0.08226351  0.02578489  1  0.39931  0.00019  0.128259  0.098968  2.8e-05  4.010082  0.0
C  C67  1  0.40708643  0.91773763  0.52578477  1  0.399202  0.00019  0.128174  0.098862  2.8e-05  4.009947  0.0
C  C68  1  0.91177348  0.58035525  0.55553083  1  0.401765  0.000114  0.124743  0.08978  -3.1e-05  4.022895  0.0
C  C69  1  0.58822837  0.41964264  0.05553041  1  0.401501  0.000113  0.124786  0.089904  -3.1e-05  4.022904  0.0
C  C70  1  0.08823495  0.08035597  0.94447021  1  0.401521  0.000114  0.124799  0.089855  -3.1e-05  4.022885  0.0
C  C71  1  0.41176073  0.91964041  0.44446849  1  0.401576  0.000114  0.124838  0.089881  -3.1e-05  4.022888  0.0
C  C72  1  0.87104763  0.56764469  0.60444079  1  0.059012  -0.003056  0.007875  0.087303  -0.003457  4.032295  -0.002
C  C73  1  0.62895047  0.43234687  0.10444039  1  0.05921  -0.003057  0.007877  0.087332  -0.003458  4.032172  -0.002
C  C74  1  0.12894212  0.06764812  0.89556058  1  0.058876  -0.003057  0.007853  0.087327  -0.003459  4.032024  -0.002
C  C75  1  0.37104443  0.93234876  0.39555921  1  0.059003  -0.003057  0.007822  0.087234  -0.003458  4.032041  -0.002
C  C76  1  0.04420566  0.61664578  0.63544829  1  0.014799  0.005487  -0.078431  -0.151922  0.003634  3.905195  0.004
C  C77  1  0.45580329  0.38335543  0.13544718  1  0.015163  0.005485  -0.078447  -0.151963  0.003633  3.905108  0.004
C  C78  1  0.95582013  0.11663684  0.86455110  1  0.01585  0.005482  -0.07838  -0.151726  0.003631  3.905415  0.004
C  C79  1  0.54418867  0.88335330  0.36455269  1  0.015379  0.005483  -0.078407  -0.151871  0.003632  3.905048  0.004
C  C80  1  0.00722538  0.59814121  0.68171489  1  0.463525  -0.000235  0.052848  0.113864  -0.000562  3.892302  0.0
C  C81  1  0.49276880  0.40186239  0.18171415  1  0.463414  -0.000235  0.052795  0.113856  -0.000563  3.891827  0.0
C  C82  1  0.99278160  0.09813304  0.81828753  1  0.463046  -0.000235  0.052835  0.113868  -0.000563  3.892251  0.0
C  C83  1  0.50723461  0.90185861  0.31828609  1  0.463171  -0.000234  0.052794  0.113824  -0.000562  3.891795  0.0
C  C84  1  0.63730259  0.49246013  0.66897584  1  0.522369  -0.001428  0.056877  0.118154  -0.001889  3.909028  -0.001
C  C85  1  0.86269543  0.50753788  0.16897591  1  0.522409  -0.001428  0.056839  0.11814  -0.001889  3.908905  -0.001
C  C86  1  0.36269852  0.99245357  0.83102647  1  0.525686  -0.001429  0.056875  0.118342  -0.001888  3.909096  -0.001
C  C87  1  0.13731753  0.00753686  0.33102445  1  0.522807  -0.001427  0.056792  0.117978  -0.001888  3.909067  -0.001
C  C88  1  0.66263955  0.50552445  0.62216272  1  -0.0877  0.005272  -0.078046  -0.159956  0.00342  3.917534  0.004
C  C89  1  0.83737140  0.49447213  0.12216277  1  -0.087476  0.005274  -0.07808  -0.160016  0.003421  3.917274  0.004
C  C90  1  0.33738190  0.00551450  0.87783958  1  -0.087765  0.005275  -0.078122  -0.160255  0.003422  3.91736  0.004
C  C91  1  0.16262673  0.99447541  0.37783453  1  -0.087276  0.005273  -0.07798  -0.159826  0.00342  3.917163  0.004
S  S92  1  0.33735468  0.68830908  0.78618908  1  3.776568  0.000122  0.546957  1.396391  0.000434  6.379166  -0.001
S  S93  1  0.16263936  0.31169259  0.28618716  1  3.776836  0.000122  0.547025  1.396397  0.000434  6.37878  -0.001
S  S94  1  0.66265064  0.18830748  0.71381245  1  3.776795  0.000122  0.547129  1.396638  0.000434  6.379119  -0.001
S  S95  1  0.83736019  0.81169289  0.21381432  1  3.776847  0.000121  0.54705  1.396524  0.000433  6.378944  -0.001
S  S96  1  0.69869873  0.53290005  0.51518557  1  0.271903  -0.000532  0.133775  0.111562  -0.000651  2.798839  -0.001
S  S97  1  0.80129949  0.46710329  0.01518388  1  0.272224  -0.000532  0.133734  0.111471  -0.000651  2.79887  -0.001
S  S98  1  0.30130311  0.03290352  0.98481574  1  0.272317  -0.000532  0.133719  0.111528  -0.000651  2.798925  -0.001
S  S99  1  0.19868332  0.96709130  0.48481441  1  0.272305  -0.000532  0.133747  0.111521  -0.000651  2.798706  -0.001
N  N100  1  0.77644881  0.54421821  0.33220370  1  -1.190734  0.090257  -0.335187  -0.202337  0.059092  3.574847  0.078
N  N101  1  0.72354348  0.45577940  0.83220154  1  -1.190778  0.090265  -0.335148  -0.20244  0.059097  3.574915  0.078
N  N102  1  0.22355209  0.04421329  0.16779570  1  -1.191042  0.090261  -0.33519  -0.202302  0.059094  3.57486  0.078
N  N103  1  0.27644946  0.95578142  0.66779629  1  -1.190714  0.090257  -0.335186  -0.202341  0.059092  3.574831  0.078
N  N104  1  0.11304125  0.62999069  0.49163893  1  -0.644566  -0.000715  -0.202509  -0.183062  -0.000815  3.319845  -0.001
N  N105  1  0.38694884  0.37001294  0.99163700  1  -0.644678  -0.000715  -0.202525  -0.183105  -0.000816  3.319593  -0.001
N  N106  1  0.88696525  0.12999832  0.00836263  1  -0.644555  -0.000715  -0.202499  -0.182958  -0.000815  3.319734  -0.001
N  N107  1  0.61303298  0.87000593  0.50836104  1  -0.644481  -0.000715  -0.20244  -0.182931  -0.000815  3.319701  -0.001
N  N108  1  0.11561185  0.62900532  0.53753507  1  -0.651689  -0.000616  -0.202927  -0.183613  -0.000709  3.322863  0.0
N  N109  1  0.38439355  0.37099593  0.03753326  1  -0.651573  -0.000617  -0.202898  -0.183682  -0.00071  3.322871  0.0
N  N110  1  0.88439215  0.12901046  0.96246570  1  -0.651583  -0.000617  -0.202937  -0.18373  -0.00071  3.322705  0.0
N  N111  1  0.61559446  0.87099326  0.46246456  1  -0.651588  -0.000617  -0.202995  -0.183715  -0.00071  3.32298  0.0
N  N112  1  0.80815118  0.53614091  0.69840583  1  -1.20932  0.078643  -0.33518  -0.222577  0.051669  3.542078  0.068
N  N113  1  0.69185416  0.46386515  0.19840582  1  -1.20946  0.07865  -0.335094  -0.222532  0.051673  3.541791  0.068
N  N114  1  0.19187280  0.03612637  0.80159549  1  -1.209374  0.078652  -0.335195  -0.22267  0.051673  3.541922  0.068
N  N115  1  0.30814329  0.96386379  0.30159314  1  -1.209466  0.078648  -0.335108  -0.222491  0.051672  3.541733  0.068
O  O116  1  0.07155506  0.38394135  0.76778143  1  -1.240237  0.089181  -0.583788  -0.762377  0.056505  2.244709  0.079
O  O117  1  0.42844636  0.61605724  0.26778030  1  -1.240236  0.089182  -0.583763  -0.762384  0.056506  2.244794  0.079
O  O118  1  0.92844730  0.88394048  0.73222038  1  -1.240264  0.089178  -0.583713  -0.762282  0.056504  2.244684  0.079
O  O119  1  0.57155432  0.11605813  0.23221817  1  -1.240227  0.08918  -0.583688  -0.762208  0.056504  2.244786  0.079
O  O120  1  0.42447176  0.55953276  0.76396960  1  -1.259662  0.09487  -0.374365  -0.68661  0.059114  2.416952  0.085
O  O121  1  0.07552231  0.44046773  0.26396547  1  -1.259739  0.09487  -0.374324  -0.686592  0.059114  2.416967  0.085
O  O122  1  0.57552884  0.05953274  0.73603277  1  -1.259668  0.094872  -0.374405  -0.686701  0.059115  2.416876  0.085
O  O123  1  0.92447461  0.94047368  0.23603380  1  -1.25965  0.094876  -0.374334  -0.686604  0.059118  2.417069  0.085
O  O124  1  0.43884644  0.79466498  0.75804939  1  -1.355036  0.001018  -0.368077  -0.67544  7.9e-05  2.2781  0.002
O  O125  1  0.06115132  0.20533156  0.25804662  1  -1.355117  0.001019  -0.3681  -0.675429  8e-05  2.277884  0.002
O  O126  1  0.56116495  0.29466590  0.74195229  1  -1.355015  0.001018  -0.36817  -0.675548  7.9e-05  2.278058  0.002
O  O127  1  0.93885136  0.70533961  0.24195708  1  -1.355256  0.001018  -0.368091  -0.675466  7.9e-05  2.277841  0.002
O  O128  1  0.06237914  0.68344920  0.78201854  1  -1.338313  0.024715  -0.35995  -0.684458  0.015004  2.240653  0.022
O  O129  1  0.43762042  0.31655146  0.28201699  1  -1.338239  0.024714  -0.359958  -0.684438  0.015004  2.240527  0.022
O  O130  1  0.93762424  0.18344847  0.71798299  1  -1.338381  0.024715  -0.359976  -0.684515  0.015005  2.240689  0.022
O  O131  1  0.56238107  0.81654903  0.21798347  1  -1.338194  0.024713  -0.359993  -0.68446  0.015003  2.240599  0.022
O  O132  1  0.41418883  0.69366229  0.83377483  1  -1.343694  0.001035  -0.371644  -0.638908  0.000342  2.105957  0.001
O  O133  1  0.08579412  0.30634470  0.33377186  1  -1.343844  0.001035  -0.371688  -0.638925  0.000341  2.105934  0.001
O  O134  1  0.58581294  0.19365876  0.66622740  1  -1.343832  0.001035  -0.371652  -0.638917  0.000342  2.106091  0.001
O  O135  1  0.91420899  0.80633825  0.16623028  1  -1.343799  0.001034  -0.371677  -0.638989  0.000341  2.106045  0.001
