# generated using pymatgen
data_CuH13C15N5O
_symmetry_space_group_name_H-M   'P 1'
_cell_length_a   7.86888384
_cell_length_b   12.63555947
_cell_length_c   14.54262999
_cell_angle_alpha   109.20105019
_cell_angle_beta   105.27925856
_cell_angle_gamma   90.14922198
_symmetry_Int_Tables_number   1
_chemical_formula_structural   CuH13C15N5O
_chemical_formula_sum   'Cu4 H52 C60 N20 O4'
_cell_volume   1310.89705285
_cell_formula_units_Z   4
loop_
 _symmetry_equiv_pos_site_id
 _symmetry_equiv_pos_as_xyz
  1  'x, y, z'
loop_
 _atom_site_type_symbol
 _atom_site_label
 _atom_site_symmetry_multiplicity
 _atom_site_fract_x
 _atom_site_fract_y
 _atom_site_fract_z
 _atom_site_occupancy
 _atom_site_hle17_ddec_charge
 _atom_site_hle17_ddec_spin_density
 _atom_site_hle17_ddec_sum_bond_order
 _atom_site_hle17_magmom
 _atom_site_hse06_10hf_ddec_charge
 _atom_site_hse06_10hf_ddec_spin_density
 _atom_site_hse06_10hf_ddec_sum_bond_order
 _atom_site_hse06_10hf_magmom
 _atom_site_hse06_ddec_charge
 _atom_site_hse06_ddec_spin_density
 _atom_site_hse06_ddec_sum_bond_order
 _atom_site_hse06_magmom
 _atom_site_pbe_cm5_charge
 _atom_site_pbe_ddec_charge
 _atom_site_pbe_ddec_spin_density
 _atom_site_pbe_ddec_sum_bond_order
 _atom_site_pbe_magmom
Cu  Cu0  1  0.55197263  0.17047075  0.80183407  1  0.851726  -0.685971  1.883705  -0.482  0.828933  -0.770026  2.291951  -0.591  0.911914  -0.841039  2.223811  -0.673  0.762683  0.780793  -0.72106  2.338221  -0.54
Cu  Cu1  1  0.74976646  0.32975138  0.19746965  1  0.850471  -0.685347  1.883729  -0.481  0.827623  -0.769653  2.292308  -0.591  0.911065  -0.840724  2.223702  -0.673  0.762402  0.779569  -0.720684  2.338331  -0.539
Cu  Cu2  1  0.44804052  0.82954335  0.19816953  1  0.851502  0.753366  1.88394  0.482  0.828659  0.828518  2.292241  0.591  0.91162  0.919116  2.224026  0.673  0.762595  0.780502  0.765116  2.338419  0.539
Cu  Cu3  1  0.25021592  0.67025093  0.80253106  1  0.850527  -0.68557  1.883699  -0.482  0.82768  -0.769705  2.292281  -0.591  0.911032  -0.840719  2.223729  -0.673  0.762423  0.779672  -0.720867  2.338235  -0.539
H  H4  1  0.27806853  0.08765712  0.88465346  1  0.064428  -0.000301  0.949584  -0.001  0.080631  -0.00016  1.013921  0.0  0.079143  -9.8e-05  1.016264  0.0  0.103839  0.081535  -0.000214  1.012361  0.0
H  H5  1  0.39434045  0.41194954  0.11649179  1  0.065143  -0.000291  0.947929  -0.001  0.080377  -0.000148  1.013336  0.0  0.078899  -8.9e-05  1.015692  0.0  0.103939  0.081286  -0.000201  1.011754  0.0
H  H6  1  0.72193618  0.91233593  0.11535531  1  0.06443  0.000341  0.949519  0.001  0.080671  0.000184  1.01383  0.0  0.079183  0.000118  1.016185  0.0  0.103813  0.081563  0.000238  1.012296  0.0
H  H7  1  0.60568070  0.58805698  0.88350115  1  0.065071  -0.000295  0.947763  -0.001  0.080312  -0.000156  1.013191  0.0  0.078829  -9.4e-05  1.015552  0.0  0.10394  0.081235  -0.000212  1.011603  0.0
H  H8  1  0.37003242  0.96720045  0.90897816  1  0.071023  -0.003468  0.941358  -0.005  0.087361  -0.00209  1.002914  -0.003  0.086272  -0.001417  1.003966  -0.002  0.101832  0.087994  -0.002594  1.002328  -0.004
H  H9  1  0.46173246  0.53274595  0.09199612  1  0.071312  -0.003893  0.939877  -0.005  0.087603  -0.002728  1.001284  -0.003  0.086551  -0.001915  1.002302  -0.002  0.101777  0.088231  -0.00335  1.000692  -0.004
H  H10  1  0.62999870  0.03279344  0.09102220  1  0.071009  0.003776  0.941342  0.005  0.087378  0.002223  1.002861  0.003  0.086262  0.001534  1.003958  0.002  0.10184  0.088039  0.002711  1.002223  0.004
H  H11  1  0.53828149  0.46725636  0.90800079  1  0.071249  -0.003921  0.939779  -0.005  0.087584  -0.002776  1.001209  -0.003  0.086533  -0.001952  1.002222  -0.002  0.101807  0.088222  -0.003411  1.000626  -0.004
H  H12  1  0.42771359  0.89783603  0.74458032  1  0.066935  -0.000461  0.93748  -0.001  0.083009  -0.000274  1.003929  0.0  0.081849  -0.000281  1.005152  0.0  0.102193  0.083565  -0.000268  1.003266  0.0
H  H13  1  0.68200076  0.60224061  0.25572593  1  0.066799  -0.000586  0.937261  -0.001  0.082384  -0.000387  1.003453  0.0  0.081236  -0.000374  1.004665  0.0  0.102069  0.082958  -0.000395  1.002748  0.0
H  H14  1  0.57229507  0.10217470  0.25541687  1  0.066959  0.000662  0.937519  0.001  0.083046  0.000424  1.003969  0.0  0.081885  0.000421  1.005196  0.0  0.10218  0.083609  0.000421  1.003288  0.0
H  H15  1  0.31800633  0.39776843  0.74427193  1  0.066901  -0.000426  0.937293  -0.001  0.08243  -0.000261  1.003484  0.0  0.081283  -0.000263  1.00469  0.0  0.102049  0.082996  -0.00026  1.002789  0.0
H  H16  1  0.20366394  0.92682100  0.72367703  1  0.086297  -0.003024  0.943011  -0.004  0.104493  -0.001729  1.000616  -0.002  0.104696  -0.001246  1.001459  -0.001  0.108579  0.104266  -0.002063  0.999973  -0.002
H  H17  1  0.47925079  0.57255252  0.27759655  1  0.085728  -0.002717  0.942328  -0.004  0.103037  -0.001417  1.000551  -0.002  0.103262  -0.001067  1.001368  -0.001  0.108017  0.102781  -0.001622  0.999961  -0.002
H  H18  1  0.79634939  0.07318552  0.27632925  1  0.08632  0.002979  0.943083  0.004  0.10453  0.001542  1.000686  0.002  0.104743  0.001179  1.001508  0.001  0.108627  0.104265  0.001739  1.000097  0.002
H  H19  1  0.52074783  0.42746158  0.72239743  1  0.085873  -0.003035  0.942237  -0.004  0.103172  -0.00172  1.000429  -0.002  0.103388  -0.001236  1.001255  -0.001  0.108046  0.102941  -0.002056  0.999796  -0.002
H  H20  1  0.22382844  0.94335038  0.57371733  1  0.067518  -0.010454  0.952605  -0.013  0.077965  -0.006414  1.019398  -0.008  0.07719  -0.004609  1.017565  -0.006  0.115046  0.07826  -0.007731  1.020831  -0.009
H  H21  1  0.64938017  0.55649248  0.42718407  1  0.067531  -0.010445  0.952166  -0.013  0.078424  -0.006431  1.018595  -0.008  0.077463  -0.004611  1.017044  -0.006  0.115542  0.078836  -0.007757  1.019879  -0.009
H  H22  1  0.77620469  0.05663930  0.42628486  1  0.067432  0.011398  0.952726  0.013  0.077955  0.006894  1.01944  0.008  0.077171  0.005022  1.017617  0.006  0.115094  0.07827  0.008207  1.020852  0.009
H  H23  1  0.35058567  0.44349635  0.57281388  1  0.067603  -0.010474  0.95205  -0.013  0.078374  -0.006426  1.018606  -0.008  0.077424  -0.004617  1.017045  -0.006  0.115553  0.078768  -0.007751  1.019904  -0.009
H  H24  1  0.61503112  0.30650310  0.56745269  1  0.10594  0.000283  0.992301  0.001  0.115107  -4.4e-05  1.054312  0.0  0.11781  -1.6e-05  1.054674  0.0  0.099224  0.113233  -8.6e-05  1.0541  0.0
H  H25  1  0.04522289  0.19335523  0.43008723  1  0.106824  0.000456  0.991413  0.001  0.116048  0.000143  1.053179  0.0  0.118757  0.000119  1.053467  0.0  0.099612  0.114127  0.000145  1.053049  0.0
H  H26  1  0.38495772  0.69350679  0.43255522  1  0.105983  -0.00035  0.992449  -0.001  0.115099  -8.6e-05  1.0545  0.0  0.117805  -7.3e-05  1.054856  0.0  0.099193  0.113224  -8.2e-05  1.054297  0.0
H  H27  1  0.95474086  0.80663698  0.56991759  1  0.10691  0.000234  0.991154  0.001  0.116159  -8.3e-05  1.052912  0.0  0.118874  -4.7e-05  1.053196  0.0  0.099652  0.114233  -0.00013  1.052802  0.0
H  H28  1  0.47213672  0.23876129  0.38213610  1  0.092818  -0.000921  0.944291  -0.001  0.105735  -0.000446  1.004095  -0.001  0.107525  -0.000263  1.003314  0.0  0.103332  0.10451  -0.000625  1.004624  -0.001
H  H29  1  0.08912261  0.26143821  0.61594967  1  0.09225  -0.000978  0.944296  -0.001  0.105146  -0.000489  1.004232  -0.001  0.106918  -0.000302  1.003528  0.0  0.103407  0.103837  -0.000668  1.004863  -0.001
H  H30  1  0.52787425  0.76123849  0.61786723  1  0.092773  0.001061  0.944356  0.001  0.105673  0.000533  1.004161  0.001  0.107441  0.000328  1.003427  0.0  0.103285  0.104444  0.000723  1.004679  0.001
H  H31  1  0.91085950  0.73857083  0.38405498  1  0.092267  -0.00096  0.944077  -0.001  0.105161  -0.000504  1.004033  -0.001  0.106974  -0.00031  1.003276  0.0  0.103446  0.103844  -0.000691  1.004672  -0.001
H  H32  1  0.25697153  0.11358135  0.23425854  1  0.07969  -4.6e-05  0.982902  0.0  0.089527  -2.7e-05  1.049754  0.0  0.091059  -1.7e-05  1.049575  0.0  0.094759  0.088383  -3.7e-05  1.050012  0.0
H  H33  1  0.02367186  0.38695352  0.76512396  1  0.079646  -6e-05  0.982585  0.0  0.089511  -2.3e-05  1.049354  0.0  0.091065  -1.7e-05  1.049142  0.0  0.094905  0.088331  -3.2e-05  1.049653  0.0
H  H34  1  0.74303985  0.88641253  0.76574247  1  0.079732  5.8e-05  0.982894  0.0  0.089542  2.1e-05  1.04977  0.0  0.091079  1.2e-05  1.049583  0.0  0.094771  0.088399  2.8e-05  1.050026  0.0
H  H35  1  0.97631813  0.61305552  0.23487630  1  0.079642  -4.9e-05  0.982638  0.0  0.089482  -1.6e-05  1.049409  0.0  0.091062  -1.1e-05  1.049175  0.0  0.094939  0.088294  -2.2e-05  1.049711  0.0
H  H36  1  0.03174768  0.94703264  0.15009051  1  0.089545  -2.6e-05  0.971539  0.0  0.094521  -2e-05  1.042296  0.0  0.096401  -1.5e-05  1.043565  0.0  0.093848  0.093181  -2.4e-05  1.041599  0.0
H  H37  1  0.88429021  0.55379641  0.85110895  1  0.089991  1.5e-05  0.972228  0.0  0.094393  2.5e-05  1.043857  0.0  0.096333  2e-05  1.045098  0.0  0.09381  0.093008  2.8e-05  1.043217  0.0
H  H38  1  0.96827361  0.05295704  0.84991345  1  0.089432  2.6e-05  0.971493  0.0  0.094456  2e-05  1.042206  0.0  0.096338  1.8e-05  1.04347  0.0  0.093825  0.093117  2.1e-05  1.041512  0.0
H  H39  1  0.11568370  0.44621095  0.14888718  1  0.089961  3e-06  0.972166  0.0  0.094345  1.4e-05  1.043814  0.0  0.096286  1.3e-05  1.045053  0.0  0.093802  0.092967  1.1e-05  1.043169  0.0
H  H40  1  0.95031107  0.84481942  0.25629346  1  0.080455  -6.7e-05  0.968544  0.0  0.090724  -2e-06  1.03172  0.0  0.09195  1e-05  1.032324  0.0  0.094891  0.08981  -1.6e-05  1.031388  0.0
H  H41  1  0.69699543  0.65614050  0.74617928  1  0.080124  -4.2e-05  0.968463  0.0  0.090504  -1.5e-05  1.031646  0.0  0.091776  -1.3e-05  1.032173  0.0  0.094874  0.089561  -1.8e-05  1.031358  0.0
H  H42  1  0.04970981  0.15516774  0.74370696  1  0.080482  5.2e-05  0.96861  0.0  0.090762  -2.5e-05  1.031763  0.0  0.09199  -2.7e-05  1.032361  0.0  0.094879  0.089846  -2.2e-05  1.03143  0.0
H  H43  1  0.30295362  0.34385085  0.25380808  1  0.080062  -5.7e-05  0.968446  0.0  0.090512  -4.6e-05  1.03157  0.0  0.091785  -3.2e-05  1.032094  0.0  0.0949  0.089568  -6.2e-05  1.031289  0.0
H  H44  1  0.09060299  0.90393161  0.43742527  1  0.080415  -0.000321  0.998063  0.0  0.091633  -0.000341  1.062866  0.0  0.094148  -0.000228  1.06226  0.0  0.09363  0.089885  -0.000443  1.063378  0.0
H  H45  1  0.65478501  0.59675484  0.56458003  1  0.079854  -0.000428  0.997883  0.0  0.091457  -0.000381  1.062485  0.0  0.093929  -0.000276  1.061875  0.0  0.093414  0.089757  -0.000472  1.062943  0.0
H  H46  1  0.90940062  0.09607154  0.56258142  1  0.080495  0.000466  0.998015  0.0  0.091682  0.000415  1.062853  0.0  0.094196  0.000298  1.06225  0.0  0.093649  0.089932  0.000511  1.063368  0.0
H  H47  1  0.34517853  0.40323652  0.43541007  1  0.079857  -0.000328  0.997792  0.0  0.091468  -0.00034  1.062383  0.0  0.093938  -0.000233  1.061775  0.0  0.093401  0.089768  -0.000434  1.062845  0.0
H  H48  1  0.65083323  0.04276391  0.90836830  1  0.288103  0.000592  0.89238  0.001  0.285716  -0.000552  0.942209  0.0  0.290157  -0.000239  0.941818  0.0  0.298981  0.28264  -0.000812  0.94272  0.0
H  H49  1  0.74226639  0.45764894  0.09068406  1  0.287795  0.000566  0.891606  0.001  0.286005  -0.000571  0.940859  0.0  0.29046  -0.000254  0.940411  0.0  0.299421  0.282919  -0.000835  0.941422  0.0
H  H50  1  0.34917487  0.95725187  0.09162751  1  0.287958  -0.000387  0.892499  -0.001  0.285627  0.000667  0.942314  0.0  0.290072  0.000358  0.941915  0.0  0.298907  0.282543  0.00091  0.942843  0.0
H  H51  1  0.25774962  0.54236684  0.90931286  1  0.287759  0.000588  0.891802  0.001  0.285982  -0.000549  0.940991  0.0  0.290424  -0.000239  0.940559  0.0  0.299412  0.282912  -0.000806  0.941531  0.0
H  H52  1  0.56966128  0.14904478  0.97925608  1  0.302035  0.000645  0.911729  0.001  0.290667  -0.00048  0.975711  0.0  0.295699  -0.00024  0.973889  0.0  0.293132  0.287113  -0.000671  0.977262  0.0
H  H53  1  0.59138600  0.35109156  0.02063090  1  0.302304  0.000615  0.91075  0.002  0.2918  -0.000502  0.973642  0.0  0.296795  -0.000254  0.971864  0.0  0.293653  0.288263  -0.000699  0.975198  0.0
H  H54  1  0.43034294  0.85096258  0.02074571  1  0.302061  -0.000373  0.911633  -0.002  0.290674  0.000584  0.975687  0.0  0.295713  0.000373  0.973854  0.0  0.293124  0.287095  0.000726  0.977286  0.0
H  H55  1  0.40863445  0.64892759  0.97936417  1  0.302236  0.000542  0.910893  0.001  0.291792  -0.000491  0.973596  0.0  0.296771  -0.000266  0.971828  0.0  0.293656  0.288271  -0.000658  0.975123  0.0
C  C56  1  0.37612358  0.02763789  0.87002548  1  0.050068  0.002719  3.648209  0.004  -0.007507  -0.000489  3.915061  0.001  -0.001796  0.000113  3.928383  0.002  -0.080103  -0.010996  -0.001061  3.905762  0.001
C  C57  1  0.50650014  0.47224947  0.13067416  1  0.049876  0.002498  3.646532  0.004  -0.006893  -0.000873  3.912799  0.001  -0.001255  -0.00019  3.926191  0.001  -0.079761  -0.010379  -0.001509  3.903515  0.0
C  C58  1  0.62388409  0.97235768  0.12997412  1  0.050051  -0.002206  3.647805  -0.004  -0.007504  0.000724  3.914626  -0.001  -0.001795  0.000144  3.927992  -0.002  -0.080059  -0.011009  0.001241  3.905313  -0.001
C  C59  1  0.49350560  0.52775957  0.86931801  1  0.05006  0.002493  3.646302  0.004  -0.006848  -0.000911  3.912738  0.001  -0.001207  -0.000207  3.926123  0.001  -0.079872  -0.010358  -0.001571  3.903472  0.0
C  C60  1  0.34047982  0.96609580  0.75730022  1  -0.01116  -0.004709  3.673799  -0.004  -0.062966  -0.003879  3.931244  -0.003  -0.058741  -0.002261  3.946593  -0.001  -0.073916  -0.065218  -0.00509  3.920882  -0.004
C  C61  1  0.58254652  0.53368764  0.24333580  1  -0.01017  -0.004547  3.6746  -0.003  -0.05986  -0.003759  3.930296  -0.003  -0.055518  -0.002239  3.94533  -0.001  -0.073165  -0.06218  -0.004869  3.920147  -0.004
C  C62  1  0.65952835  0.03391156  0.24270213  1  -0.011132  0.005185  3.673849  0.003  -0.063038  0.004106  3.931439  0.003  -0.058809  0.002564  3.946789  0.001  -0.073843  -0.06526  0.00518  3.92106  0.004
C  C63  1  0.41745452  0.46631635  0.75665908  1  -0.010486  -0.004698  3.674732  -0.004  -0.060058  -0.003893  3.930332  -0.003  -0.055706  -0.002259  3.945357  -0.001  -0.073179  -0.062389  -0.005125  3.920184  -0.004
C  C64  1  0.31260976  0.02139147  0.61295621  1  0.168034  0.0186  3.729157  0.018  0.127363  0.003683  3.992805  0.005  0.150665  0.00534  4.005449  0.007  0.068741  0.112161  0.002149  3.984451  0.003
C  C65  1  0.69899549  0.47856607  0.38742768  1  0.168445  0.018861  3.730424  0.019  0.127346  0.003797  3.99411  0.005  0.150746  0.005413  4.006816  0.007  0.068344  0.112063  0.002305  3.98577  0.004
C  C66  1  0.68739200  0.97860831  0.38704857  1  0.167883  -0.016662  3.729318  -0.018  0.127084  -0.003089  3.993014  -0.005  0.150384  -0.004602  4.00567  -0.007  0.068535  0.111881  -0.00171  3.984663  -0.004
C  C67  1  0.30099042  0.52143371  0.61256523  1  0.168579  0.018758  3.730614  0.018  0.127597  0.003741  3.994319  0.005  0.150996  0.005377  4.007012  0.007  0.068333  0.112311  0.002223  3.98599  0.003
C  C68  1  0.34730338  0.08330155  0.55267584  1  -0.183585  -0.008021  3.774461  -0.011  -0.173842  -0.003336  4.021174  -0.005  -0.193998  -0.002051  4.049057  -0.004  -0.0424  -0.160653  -0.00455  4.002265  -0.007
C  C69  1  0.79411564  0.41686177  0.44727828  1  -0.183936  -0.008097  3.774458  -0.011  -0.17334  -0.003328  4.020445  -0.005  -0.193531  -0.00203  4.048261  -0.004  -0.042413  -0.160097  -0.004565  4.001562  -0.007
C  C70  1  0.65266544  0.91670666  0.44732945  1  -0.183386  0.008856  3.774308  0.011  -0.173548  0.003673  4.020836  0.005  -0.193713  0.002352  4.048737  0.004  -0.042273  -0.160382  0.004891  4.001961  0.007
C  C71  1  0.20587870  0.58314138  0.55272022  1  -0.184075  -0.008031  3.774638  -0.011  -0.173509  -0.003277  4.020616  -0.005  -0.193695  -0.001975  4.048421  -0.004  -0.042533  -0.160278  -0.004526  4.001733  -0.007
C  C72  1  0.47311596  0.18044896  0.59702422  1  0.361736  0.006492  3.832488  0.01  0.351118  -0.00046  4.095734  0.002  0.376537  0.000776  4.107841  0.003  0.10059  0.334328  -0.001707  4.086822  0.002
C  C73  1  0.87489450  0.31962687  0.40202650  1  0.360534  0.006713  3.832458  0.01  0.350045  -0.000169  4.095011  0.002  0.375491  0.000945  4.107228  0.003  0.100184  0.333217  -0.001304  4.086071  0.002
C  C74  1  0.52687605  0.81954746  0.40297478  1  0.361799  -0.005455  3.832192  -0.01  0.351064  0.000622  4.095494  -0.002  0.376482  -0.000505  4.107615  -0.003  0.100625  0.33428  0.001716  4.08659  -0.002
C  C75  1  0.12507580  0.68036533  0.59797236  1  0.360652  0.006353  3.832413  0.01  0.350184  -0.00051  4.094946  0.002  0.375633  0.000713  4.107149  0.002  0.100365  0.333369  -0.001747  4.085988  0.001
C  C76  1  0.51500753  0.23466237  0.53185635  1  -0.189236  -0.016778  3.717753  -0.018  -0.204533  -0.008466  3.972264  -0.01  -0.212457  -0.006171  3.988779  -0.007  -0.10491  -0.199207  -0.010298  3.960894  -0.012
C  C77  1  0.98163397  0.26534800  0.46649599  1  -0.190232  -0.016466  3.715545  -0.018  -0.2058  -0.008055  3.970408  -0.01  -0.213719  -0.005903  3.986876  -0.007  -0.10481  -0.200409  -0.009772  3.959044  -0.012
C  C78  1  0.48498540  0.76533994  0.46814791  1  -0.189389  0.017832  3.717653  0.018  -0.204617  0.00859  3.972156  0.01  -0.212542  0.006436  3.988675  0.007  -0.104887  -0.199289  0.010223  3.960776  0.012
C  C79  1  0.01834634  0.73464925  0.53350711  1  -0.190493  -0.016826  3.715373  -0.018  -0.206069  -0.008558  3.970225  -0.01  -0.213994  -0.006218  3.986703  -0.007  -0.104946  -0.200686  -0.010438  3.958852  -0.012
C  C80  1  0.43609974  0.19636331  0.42977343  1  -0.066101  0.006266  3.758796  0.005  -0.092755  0.001147  4.014308  0.001  -0.089086  0.001648  4.031697  0.001  -0.081271  -0.095064  0.000696  4.002423  0.0
C  C81  1  0.00559840  0.30383716  0.56885572  1  -0.062929  0.006689  3.755664  0.005  -0.090016  0.00134  4.010365  0.001  -0.086315  0.00183  4.027795  0.001  -0.081575  -0.092301  0.0009  3.998392  0.0
C  C82  1  0.56389832  0.80364658  0.57023371  1  -0.065938  -0.006105  3.758297  -0.005  -0.092549  -0.001293  4.01382  -0.001  -0.088883  -0.0017  4.031206  -0.001  -0.081148  -0.094855  -0.000946  4.001911  0.0
C  C83  1  0.99439649  0.69616936  0.43114795  1  -0.062823  0.006071  3.755415  0.005  -0.0899  0.000982  4.010121  0.0  -0.086229  0.001558  4.027543  0.001  -0.081588  -0.092177  0.000454  3.998152  0.0
C  C84  1  0.30661442  0.10153951  0.38302196  1  0.025129  -0.001072  3.814858  -0.001  0.043606  -7.7e-05  4.041258  0.0  0.039738  -0.00012  4.064817  0.0  -0.02059  0.046008  -8.7e-05  4.025398  0.0
C  C85  1  0.92379038  0.39882620  0.61659930  1  0.021889  -0.000968  3.817653  -0.001  0.042532  3.9e-05  4.041732  0.0  0.038515  -2.5e-05  4.065444  0.0  -0.020001  0.045053  3.5e-05  4.025714  0.0
C  C86  1  0.69337348  0.89847290  0.61698448  1  0.025184  0.001229  3.814529  0.001  0.043527  0.000101  4.040967  0.0  0.039661  0.000185  4.064525  0.0  -0.020719  0.045936  6e-05  4.02509  0.0
C  C87  1  0.07621907  0.60118958  0.38340358  1  0.021768  -0.000686  3.817825  -0.001  0.04244  0.000156  4.041877  0.0  0.038422  5.8e-05  4.065606  0.0  -0.019992  0.044958  0.000192  4.02585  0.0
C  C88  1  0.22195815  0.06564979  0.27786111  1  -0.104639  0.000887  3.758822  0.001  -0.12979  -0.000221  4.021512  0.0  -0.128915  -0.000123  4.041589  0.0  -0.093444  -0.130311  -0.000308  4.008418  0.0
C  C89  1  0.94509058  0.43489941  0.72208668  1  -0.102129  0.002036  3.760759  0.002  -0.127786  0.000686  4.022355  0.0  -0.126903  0.000759  4.042661  0.0  -0.093383  -0.128279  0.000601  4.009125  0.0
C  C90  1  0.77804467  0.93434831  0.72214265  1  -0.104682  -0.001323  3.758794  -0.001  -0.129798  -3.2e-05  4.021521  0.0  -0.128924  -7e-06  4.041594  0.0  -0.093378  -0.130318  -8.4e-05  4.008419  0.0
C  C91  1  0.05490654  0.56511300  0.27792037  1  -0.10222  0.001929  3.760742  0.001  -0.127867  0.000722  4.022345  0.0  -0.127011  0.000737  4.042649  0.0  -0.093527  -0.12835  0.000684  4.009124  0.0
C  C92  1  0.09630126  0.97373934  0.23139661  1  -0.101105  -0.000715  3.803639  0.0  -0.124224  -0.000173  4.07998  0.0  -0.130122  -0.000284  4.103635  0.0  -0.107417  -0.120883  -7.3e-05  4.064889  0.0
C  C93  1  0.86702936  0.52704533  0.76957118  1  -0.102836  -0.000248  3.804694  -0.001  -0.125922  0.000587  4.081293  0.0  -0.132031  0.000515  4.105088  0.0  -0.107746  -0.122483  0.000601  4.066177  0.0
C  C94  1  0.90370817  0.02625034  0.76860567  1  -0.100924  0.000923  3.803471  0.001  -0.124082  0.000193  4.079853  0.0  -0.129982  0.000339  4.103511  0.0  -0.10742  -0.12075  5.4e-05  4.064767  0.0
C  C95  1  0.13295484  0.47296034  0.23042730  1  -0.102631  -2.2e-05  3.804461  -0.001  -0.125682  0.000708  4.081081  0.0  -0.131792  0.000605  4.104886  0.0  -0.10758  -0.122245  0.000764  4.06597  0.0
C  C96  1  0.05155057  0.91622261  0.29118151  1  -0.047281  0.001864  3.773805  0.002  -0.064837  0.00025  4.032083  0.0  -0.064531  0.000277  4.054428  0.0  -0.094263  -0.064868  0.000225  4.017089  0.0
C  C97  1  0.76261020  0.58457360  0.71046679  1  -0.04749  0.002415  3.771307  0.002  -0.065111  0.000693  4.029656  0.0  -0.06474  0.00075  4.051908  0.001  -0.094731  -0.06518  0.000628  4.014722  0.0
C  C98  1  0.94846070  0.08377043  0.70882337  1  -0.047298  -0.001958  3.773687  -0.002  -0.064909  -0.00036  4.032057  0.0  -0.064599  -0.000344  4.054396  0.0  -0.094215  -0.064943  -0.000394  4.01706  0.0
C  C99  1  0.23736291  0.41542870  0.28952367  1  -0.047484  0.001987  3.771147  0.002  -0.065195  0.000496  4.02956  0.0  -0.064828  0.000608  4.051818  0.0  -0.09482  -0.065263  0.000364  4.014639  0.0
C  C100  1  0.13088818  0.95065009  0.39457199  1  -0.130929  -0.001926  3.742308  -0.002  -0.148244  -0.000599  3.990275  -0.001  -0.151977  -0.000491  4.009786  -0.001  -0.100359  -0.145706  -0.00072  3.976871  -0.001
C  C101  1  0.73778436  0.54995638  0.60678565  1  -0.128033  -0.001844  3.740115  -0.002  -0.145587  -0.000547  3.988203  -0.001  -0.149274  -0.000435  4.007689  -0.001  -0.099114  -0.14307  -0.000681  3.974789  -0.001
C  C102  1  0.86910106  0.04935390  0.60543223  1  -0.130857  0.002233  3.742197  0.002  -0.148221  0.000709  3.990123  0.001  -0.151953  0.000621  4.009632  0.001  -0.100358  -0.145683  0.000798  3.976714  0.001
C  C103  1  0.26220153  0.45005182  0.39320967  1  -0.128132  -0.00161  3.740041  -0.002  -0.145676  -0.000463  3.988163  -0.001  -0.149363  -0.000348  4.00765  0.0  -0.099165  -0.143166  -0.000593  3.974764  -0.001
C  C104  1  0.26152000  0.04382510  0.44447111  1  0.050913  0.003257  3.757097  0.003  0.063378  0.00083  3.979819  0.001  0.068398  0.000917  4.004243  0.001  -0.00231  0.060261  0.000707  3.963169  0.001
C  C105  1  0.81743197  0.45656722  0.55582975  1  0.050475  0.003512  3.757928  0.003  0.061518  0.001041  3.981141  0.001  0.066655  0.001096  4.00553  0.001  -0.002951  0.058317  0.000943  3.964517  0.001
C  C106  1  0.73846356  0.95618479  0.55553398  1  0.050565  -0.002987  3.757152  -0.003  0.063257  -0.000779  3.979527  -0.001  0.068278  -0.000857  4.003947  -0.001  -0.002293  0.060146  -0.000672  3.962878  -0.001
C  C107  1  0.18257028  0.54343593  0.44417125  1  0.050644  0.003253  3.758035  0.003  0.061698  0.000922  3.981227  0.001  0.066834  0.000991  4.005612  0.001  -0.002851  0.058506  0.000809  3.964602  0.001
C  C108  1  0.90537359  0.31538714  0.91351500  1  0.520135  -0.001487  3.965731  -0.004  0.494954  -0.004241  4.238562  -0.007  0.525689  -0.002809  4.245691  -0.006  0.317324  0.474697  -0.005518  4.233223  -0.008
C  C109  1  0.99163846  0.18418359  0.08518303  1  0.52135  -0.001721  3.964867  -0.004  0.495982  -0.004353  4.237567  -0.007  0.526784  -0.002931  4.244706  -0.006  0.31855  0.475672  -0.005629  4.232269  -0.008
C  C110  1  0.09467455  0.68459749  0.08648511  1  0.519958  0.002246  3.965968  0.004  0.494691  0.004641  4.23888  0.007  0.525419  0.003299  4.24603  0.006  0.31704  0.474416  0.005801  4.233528  0.008
C  C111  1  0.00836789  0.81579430  0.91482507  1  0.521401  -0.001723  3.96521  -0.004  0.4961  -0.004291  4.237841  -0.007  0.5269  -0.002906  4.244981  -0.006  0.318652  0.475797  -0.005528  4.232559  -0.008
C  C112  1  0.19945470  0.32418082  0.91437505  1  0.45617  -0.000607  4.014113  -0.001  0.43177  -0.000424  4.299627  -0.001  0.456963  -0.000354  4.307914  0.0  0.28684  0.415036  -0.000536  4.293559  -0.001
C  C113  1  0.28518296  0.17510625  0.08515718  1  0.457168  -0.000625  4.016235  -0.001  0.432389  -0.000319  4.301591  -0.001  0.457549  -0.000286  4.309863  -0.001  0.287786  0.415676  -0.000401  4.295571  -0.001
C  C114  1  0.80056585  0.67581307  0.08561763  1  0.456626  0.000414  4.014878  0.001  0.432256  1.7e-05  4.300237  0.0  0.457438  8.8e-05  4.308516  0.0  0.287281  0.415517  -0.0  4.294204  0.0
C  C115  1  0.71480702  0.82486827  0.91484008  1  0.457223  -0.000393  4.016674  -0.001  0.432498  -0.000121  4.301998  0.0  0.457662  -0.000153  4.310275  0.0  0.287735  0.415788  -0.000141  4.295955  0.0
N  N116  1  0.55033069  0.09398830  0.90674473  1  -0.597906  -0.08837  3.150164  -0.107  -0.575665  -0.064701  3.423331  -0.082  -0.60614  -0.05339  3.427959  -0.072  -0.63213  -0.556706  -0.070959  3.421184  -0.086
N  N117  1  0.64391089  0.40623950  0.09301294  1  -0.597645  -0.088012  3.148303  -0.106  -0.576965  -0.064567  3.421193  -0.082  -0.607416  -0.053292  3.42584  -0.072  -0.632675  -0.558174  -0.070825  3.419131  -0.086
N  N118  1  0.44966367  0.90601485  0.09325721  1  -0.597795  0.096829  3.149996  0.107  -0.575613  0.069615  3.423192  0.082  -0.606058  0.05858  3.427777  0.072  -0.632166  -0.556693  0.075167  3.421104  0.086
N  N119  1  0.35610486  0.59377459  0.90698415  1  -0.597396  -0.088157  3.148579  -0.107  -0.576698  -0.064597  3.42159  -0.082  -0.60714  -0.053324  3.426256  -0.072  -0.632491  -0.557847  -0.070872  3.419457  -0.086
N  N120  1  0.37946197  0.04609113  0.71034221  1  -0.347923  -0.123754  3.287888  -0.153  -0.30102  -0.077798  3.606276  -0.102  -0.340533  -0.064937  3.628243  -0.09  -0.389328  -0.278112  -0.084256  3.594034  -0.107
N  N121  1  0.66828657  0.45376180  0.28988331  1  -0.347649  -0.12393  3.28799  -0.153  -0.301468  -0.077943  3.606345  -0.102  -0.341098  -0.065037  3.628285  -0.09  -0.388742  -0.278562  -0.084414  3.594138  -0.107
N  N122  1  0.62053367  0.95392886  0.28966542  1  -0.347842  0.135411  3.288187  0.153  -0.300895  0.083664  3.606674  0.102  -0.340412  0.071127  3.628629  0.09  -0.389324  -0.277969  0.089248  3.594391  0.106
N  N123  1  0.33171839  0.54625061  0.71011384  1  -0.347891  -0.124001  3.28803  -0.153  -0.301712  -0.077955  3.606261  -0.102  -0.341313  -0.065027  3.628181  -0.09  -0.3888  -0.278838  -0.084496  3.594054  -0.107
N  N124  1  0.06572638  0.36244726  0.94742837  1  -0.470142  -0.000256  3.29819  0.0  -0.417736  -0.000656  3.553733  -0.001  -0.441158  -0.000235  3.555589  0.0  -0.314325  -0.401543  -0.001057  3.551514  -0.001
N  N125  1  0.11899313  0.13663529  0.05205136  1  -0.472559  -0.00027  3.295827  0.0  -0.419892  -0.000603  3.551631  -0.001  -0.443337  -0.000216  3.553555  0.0  -0.316131  -0.403688  -0.000969  3.549366  -0.001
N  N126  1  0.93433589  0.63751716  0.05258996  1  -0.470402  0.00015  3.297347  0.0  -0.417917  0.000516  3.552808  0.001  -0.441344  0.000203  3.554674  0.0  -0.314164  -0.401717  0.000798  3.550597  0.001
N  N127  1  0.88099041  0.86332239  0.94796012  1  -0.472662  -0.000156  3.296256  0.0  -0.420085  -0.000613  3.552065  -0.001  -0.443541  -0.000239  3.554001  0.0  -0.316249  -0.403883  -0.000955  3.549795  -0.001
N  N128  1  0.75504947  0.28126986  0.89070959  1  -0.599557  -0.030305  2.953238  -0.035  -0.567887  -0.027629  3.256161  -0.032  -0.594275  -0.025075  3.252336  -0.031  -0.415914  -0.552032  -0.028921  3.259815  -0.032
N  N129  1  0.86365760  0.21888789  0.10741682  1  -0.598524  -0.029985  2.953415  -0.034  -0.566382  -0.027433  3.255389  -0.032  -0.592992  -0.024905  3.251697  -0.031  -0.415315  -0.55048  -0.028689  3.258908  -0.032
N  N130  1  0.24499304  0.71872151  0.10927721  1  -0.599423  0.033129  2.953461  0.034  -0.567757  0.029602  3.256452  0.032  -0.594105  0.027499  3.252529  0.031  -0.415914  -0.55191  0.030385  3.260094  0.032
N  N131  1  0.13634047  0.78111358  0.89258860  1  -0.598454  -0.030118  2.953927  -0.034  -0.566322  -0.027521  3.255879  -0.032  -0.592901  -0.024989  3.252158  -0.031  -0.415299  -0.550428  -0.028783  3.259413  -0.032
N  N132  1  0.33029521  0.29913054  0.89034498  1  -0.584781  0.002359  2.662957  0.001  -0.562869  0.001573  2.926925  0.001  -0.578437  0.001819  2.927895  0.001  -0.367602  -0.552988  0.001283  2.92692  0.001
N  N133  1  0.43958325  0.20040760  0.10947486  1  -0.584445  0.002466  2.664856  0.001  -0.562616  0.001773  2.929012  0.001  -0.5781  0.001973  2.929797  0.001  -0.367267  -0.552818  0.001538  2.929088  0.001
N  N134  1  0.66974450  0.70087766  0.10962286  1  -0.584884  -0.002636  2.664504  -0.002  -0.56307  -0.001935  2.928516  -0.001  -0.578613  -0.001982  2.929442  -0.001  -0.368013  -0.553188  -0.001868  2.928531  -0.001
N  N135  1  0.56038887  0.79957955  0.89051525  1  -0.584597  0.002682  2.664799  0.002  -0.562744  0.001835  2.928914  0.001  -0.578231  0.001957  2.929706  0.001  -0.367231  -0.552966  0.00169  2.929017  0.001
O  O136  1  0.55676320  0.22494578  0.69281703  1  -0.526064  -0.119683  2.100979  -0.156  -0.505609  -0.074014  2.392393  -0.106  -0.552901  -0.055795  2.393068  -0.085  -0.320663  -0.474609  -0.086137  2.391896  -0.118
O  O137  1  0.86229625  0.27504961  0.30590907  1  -0.525655  -0.119239  2.102887  -0.156  -0.505227  -0.073609  2.394473  -0.106  -0.552778  -0.055527  2.395307  -0.085  -0.320406  -0.47412  -0.08556  2.393882  -0.117
O  O138  1  0.44326265  0.77503969  0.30717606  1  -0.525958  0.130852  2.100767  0.156  -0.505503  0.079405  2.392281  0.106  -0.552794  0.061047  2.392916  0.085  -0.320666  -0.474476  0.090934  2.391797  0.117
O  O139  1  0.13764264  0.72492659  0.69408628  1  -0.525604  -0.119719  2.102801  -0.156  -0.505206  -0.073925  2.394444  -0.106  -0.552712  -0.055724  2.395245  -0.085  -0.32045  -0.474137  -0.086068  2.393816  -0.118
