# generated using pymatgen
data_ZnH10C13NO5
_symmetry_space_group_name_H-M   'P 1'
_cell_length_a   9.69147229
_cell_length_b   11.65611361
_cell_length_c   11.84438964
_cell_angle_alpha   112.20079110
_cell_angle_beta   90.00071510
_cell_angle_gamma   89.99870097
_symmetry_Int_Tables_number   1
_chemical_formula_structural   ZnH10C13NO5
_chemical_formula_sum   'Zn4 H40 C52 N4 O20'
_cell_volume   1238.80815424
_cell_formula_units_Z   4
loop_
 _symmetry_equiv_pos_site_id
 _symmetry_equiv_pos_as_xyz
  1  'x, y, z'
loop_
 _atom_site_type_symbol
 _atom_site_label
 _atom_site_symmetry_multiplicity
 _atom_site_fract_x
 _atom_site_fract_y
 _atom_site_fract_z
 _atom_site_occupancy
 _atom_site_hle17_bader_spin_density
 _atom_site_hle17_ddec_charge
 _atom_site_hle17_ddec_spin_density
 _atom_site_hle17_ddec_sum_bond_order
 _atom_site_hle17_magmom
 _atom_site_hse06_10hf_bader_spin_density
 _atom_site_hse06_10hf_ddec_charge
 _atom_site_hse06_10hf_ddec_spin_density
 _atom_site_hse06_10hf_ddec_sum_bond_order
 _atom_site_hse06_10hf_magmom
 _atom_site_hse06_bader_spin_density
 _atom_site_hse06_ddec_charge
 _atom_site_hse06_ddec_spin_density
 _atom_site_hse06_ddec_sum_bond_order
 _atom_site_hse06_magmom
 _atom_site_pbe_bader_spin_density
 _atom_site_pbe_cm5_charge
 _atom_site_pbe_ddec_charge
 _atom_site_pbe_ddec_spin_density
 _atom_site_pbe_ddec_sum_bond_order
 _atom_site_pbe_magmom
Zn  Zn0  1  0.89429676  0.87449823  0.89889660  1  0  1.087971  0  1.757584  0  0  0.90684  0  2.222963  0  0  0.955972  0  2.164435  0  0  0.692216  0.871479  0  2.26336  0
Zn  Zn1  1  0.39429125  0.62550807  0.60110374  1  0  1.087957  0  1.757562  0  0  0.906769  0  2.222956  0  0  0.955901  0  2.164427  0  0  0.692211  0.871404  0  2.263362  0
Zn  Zn2  1  0.10570954  0.12550689  0.10110462  1  0  1.087959  0  1.757709  0  0  0.906799  0  2.223107  0  0  0.95593  0  2.164579  0  0  0.692201  0.87143  0  2.263496  0
Zn  Zn3  1  0.60570989  0.37448964  0.39889495  1  0  1.087887  0  1.757593  0  0  0.906715  0  2.222983  0  0  0.955849  0  2.164455  0  0  0.692162  0.871344  0  2.263369  0
H  H4  1  0.21559328  0.76321962  0.21442746  1  0  0.088891  0  0.966266  0  0  0.099307  0  1.030882  0  0  0.101641  0  1.029886  0  0  0.10175  0.097673  0  1.03156  0
H  H5  1  0.71556671  0.73678367  0.28558003  1  0  0.088985  0  0.96613  0  0  0.09927  0  1.030863  0  0  0.101603  0  1.02987  0  0  0.101744  0.097638  0  1.031541  0
H  H6  1  0.78441096  0.23678640  0.78557322  1  0  0.088839  0  0.966266  0  0  0.099261  0  1.030896  0  0  0.101593  0  1.029902  0  0  0.101737  0.097628  0  1.031582  0
H  H7  1  0.28443133  0.26321790  0.71442420  1  0  0.088942  0  0.966184  0  0  0.099266  0  1.03089  0  0  0.101599  0  1.029897  0  0  0.101749  0.097638  0  1.03157  0
H  H8  1  0.45846689  0.78470600  0.29130567  1  0  0.104017  0  0.959251  0  0  0.112038  0  1.020912  0  0  0.115667  0  1.019173  0  0  0.099097  0.109321  0  1.022326  0
H  H9  1  0.95843973  0.71530096  0.20869530  1  0  0.103934  0  0.959326  0  0  0.112015  0  1.020926  0  0  0.115644  0  1.019186  0  0  0.099111  0.109276  0  1.022363  0
H  H10  1  0.54153632  0.21529622  0.70869118  1  0  0.104015  0  0.959285  0  0  0.112036  0  1.020949  0  0  0.115665  0  1.019209  0  0  0.099107  0.109325  0  1.022364  0
H  H11  1  0.04156141  0.28470063  0.79130978  1  0  0.103944  0  0.959348  0  0  0.11202  0  1.020947  0  0  0.115649  0  1.019206  0  0  0.099097  0.109273  0  1.022399  0
H  H12  1  0.64583312  0.83337060  0.16971218  1  0  0.097369  0  0.954407  0  0  0.108636  0  1.014438  0  0  0.112096  0  1.011529  0  0  0.103194  0.105978  0  1.016865  0
H  H13  1  0.14581659  0.66662798  0.33028204  1  0  0.09734  0  0.954481  0  0  0.108626  0  1.014511  0  0  0.112074  0  1.011606  0  0  0.103225  0.105975  0  1.01693  0
H  H14  1  0.35416802  0.16662795  0.83028425  1  0  0.097329  0  0.954373  0  0  0.108581  0  1.014427  0  0  0.112042  0  1.011516  0  0  0.103167  0.105924  0  1.016874  0
H  H15  1  0.85417527  0.33337099  0.66972637  1  0  0.097338  0  0.954297  0  0  0.108621  0  1.014327  0  0  0.112079  0  1.01142  0  0  0.103215  0.105971  0  1.016755  0
H  H16  1  0.34416186  0.86219227  0.91611701  1  0  0.109395  0  0.946599  0  0  0.120295  0  1.008786  0  0  0.123352  0  1.006794  0  0  0.109824  0.118033  0  1.010253  0
H  H17  1  0.84416068  0.63780384  0.58388019  1  0  0.109372  0  0.946561  0  0  0.120284  0  1.008749  0  0  0.123345  0  1.006751  0  0  0.109813  0.118018  0  1.010218  0
H  H18  1  0.65583825  0.13780995  0.08387984  1  0  0.109383  0  0.946577  0  0  0.120319  0  1.008731  0  0  0.123379  0  1.006732  0  0  0.109798  0.118053  0  1.01019  0
H  H19  1  0.15583014  0.36219488  0.41612137  1  0  0.109393  0  0.946492  0  0  0.120284  0  1.008718  0  0  0.123339  0  1.006724  0  0  0.109806  0.11802  0  1.01017  0
H  H20  1  0.14278808  0.93053636  0.78714140  1  0  0.103104  0  0.931405  0  0  0.109585  0  0.99668  0  0  0.112687  0  0.993615  0  0  0.124308  0.107166  0  0.999192  0
H  H21  1  0.64279896  0.56946807  0.71286007  1  0  0.103009  0  0.931455  0  0  0.109596  0  0.996589  0  0  0.11267  0  0.993561  0  0  0.124298  0.107209  0  0.999062  0
H  H22  1  0.85721409  0.06947247  0.21286109  1  0  0.103159  0  0.931393  0  0  0.109612  0  0.996683  0  0  0.112685  0  0.993651  0  0  0.124321  0.107187  0  0.99919  0
H  H23  1  0.35720012  0.43052424  0.28714098  1  0  0.102971  0  0.931465  0  0  0.109625  0  0.996497  0  0  0.112708  0  0.993457  0  0  0.124334  0.107202  0  0.999001  0
H  H24  1  0.20030672  0.98030433  0.60898887  1  0  0.114831  0  0.941806  0  0  0.129275  0  0.992639  0  0  0.132387  0  0.99168  0  0  0.116461  0.126923  0  0.993737  0
H  H25  1  0.70031340  0.51969662  0.89102127  1  0  0.11481  0  0.94173  0  0  0.129264  0  0.992569  0  0  0.132377  0  0.991612  0  0  0.116484  0.126909  0  0.993667  0
H  H26  1  0.79970164  0.01970091  0.39101577  1  0  0.114851  0  0.941866  0  0  0.129304  0  0.992676  0  0  0.132413  0  0.991723  0  0  0.116478  0.126946  0  0.99378  0
H  H27  1  0.29967742  0.48029938  0.10898106  1  0  0.11482  0  0.941679  0  0  0.129267  0  0.99251  0  0  0.132382  0  0.991549  0  0  0.116486  0.126908  0  0.993613  0
H  H28  1  0.76045739  0.98051247  0.53734234  1  0  0.116593  0  0.942048  0  0  0.127799  0  0.997464  0  0  0.131351  0  0.995756  0  0  0.115465  0.125155  0  0.998975  0
H  H29  1  0.26046025  0.51947739  0.96264262  1  0  0.116586  0  0.942162  0  0  0.127811  0  0.997542  0  0  0.131356  0  0.995839  0  0  0.115484  0.125167  0  0.999053  0
H  H30  1  0.23955303  0.01948509  0.46265207  1  0  0.116547  0  0.942036  0  0  0.127766  0  0.997455  0  0  0.131315  0  0.995744  0  0  0.115438  0.125122  0  0.998972  0
H  H31  1  0.73953161  0.48052113  0.03735296  1  0  0.116571  0  0.942125  0  0  0.127805  0  0.997511  0  0  0.131353  0  0.995806  0  0  0.115479  0.125159  0  0.999024  0
H  H32  1  0.72283877  0.92774029  0.71791725  1  0  0.093886  0  0.950013  0  0  0.101855  0  1.012318  0  0  0.104632  0  1.010254  0  0  0.120983  0.09962  0  1.014136  0
H  H33  1  0.22284262  0.57224736  0.78206405  1  0  0.093775  0  0.950129  0  0  0.101726  0  1.012445  0  0  0.104502  0  1.010382  0  0  0.120936  0.099494  0  1.014261  0
H  H34  1  0.27716856  0.07226181  0.28207618  1  0  0.093807  0  0.949951  0  0  0.10186  0  1.012186  0  0  0.104638  0  1.010117  0  0  0.120979  0.099618  0  1.014  0
H  H35  1  0.77715336  0.42775014  0.21792864  1  0  0.093795  0  0.95015  0  0  0.101728  0  1.012497  0  0  0.1045  0  1.01044  0  0  0.120947  0.099496  0  1.014314  0
H  H36  1  0.94736668  0.66713436  0.88070952  1  0  0.413192  0  0.887255  0  0  0.385967  0  0.947112  0  0  0.397044  0  0.93109  0  0  0.287881  0.378067  0  0.958517  0
H  H37  1  0.44735381  0.83287020  0.61929411  1  0  0.413282  0  0.887057  0  0  0.386046  0  0.946999  0  0  0.397127  0  0.930969  0  0  0.287907  0.378146  0  0.958403  0
H  H38  1  0.05263446  0.33287091  0.11929598  1  0  0.413223  0  0.887283  0  0  0.385996  0  0.947095  0  0  0.397074  0  0.931071  0  0  0.287899  0.378096  0  0.9585  0
H  H39  1  0.55264423  0.16712476  0.38070447  1  0  0.413212  0  0.887218  0  0  0.386014  0  0.947051  0  0  0.397094  0  0.931022  0  0  0.287909  0.378115  0  0.958455  0
H  H40  1  0.97042211  0.65820612  0.74397981  1  0  0.424163  0  0.882218  0  0  0.391719  0  0.949042  0  0  0.40315  0  0.932607  0  0  0.28529  0.383557  0  0.96076  0
H  H41  1  0.47041831  0.84179520  0.75602124  1  0  0.424178  0  0.8822  0  0  0.391723  0  0.949044  0  0  0.403155  0  0.932607  0  0  0.285285  0.383559  0  0.960763  0
H  H42  1  0.02957593  0.34179727  0.25602419  1  0  0.424171  0  0.882196  0  0  0.391738  0  0.949002  0  0  0.403168  0  0.932569  0  0  0.285277  0.383575  0  0.960721  0
H  H43  1  0.52958283  0.15819887  0.24397789  1  0  0.424164  0  0.882222  0  0  0.39171  0  0.949062  0  0  0.40314  0  0.932627  0  0  0.285271  0.383548  0  0.960779  0
C  C44  1  0.12016097  0.80124789  0.01612791  1  0  0.661775  0  3.884642  0  0  0.607292  0  4.181455  0  0  0.641609  0  4.174129  0  0  0.212402  0.584386  0  4.184672  0
C  C45  1  0.62015599  0.69875442  0.48388171  1  0  0.661851  0  3.884693  0  0  0.607346  0  4.181525  0  0  0.641663  0  4.174198  0  0  0.21249  0.584444  0  4.184739  0
C  C46  1  0.87983914  0.19875561  0.98387952  1  0  0.661857  0  3.884559  0  0  0.607399  0  4.181319  0  0  0.641717  0  4.17399  0  0  0.212475  0.584489  0  4.184531  0
C  C47  1  0.37983896  0.30124332  0.51611783  1  0  0.661916  0  3.884594  0  0  0.60747  0  4.181336  0  0  0.641788  0  4.174008  0  0  0.212502  0.58456  0  4.184552  0
C  C48  1  0.26538057  0.81385383  0.06241493  1  0  -0.077712  0  3.779329  0  0  -0.051331  0  4.016345  0  0  -0.06034  0  4.039437  0  0  -0.020583  -0.045011  0  3.999611  0
C  C49  1  0.76536903  0.68614460  0.43758378  1  0  -0.077826  0  3.779505  0  0  -0.051448  0  4.016522  0  0  -0.060459  0  4.039617  0  0  -0.020645  -0.04513  0  3.999787  0
C  C50  1  0.73462470  0.18615123  0.93758457  1  0  -0.077765  0  3.779402  0  0  -0.051386  0  4.016432  0  0  -0.060397  0  4.039526  0  0  -0.020595  -0.045062  0  3.999691  0
C  C51  1  0.23462901  0.31385690  0.56241874  1  0  -0.077767  0  3.779561  0  0  -0.051397  0  4.016534  0  0  -0.060408  0  4.039628  0  0  -0.020581  -0.045072  0  3.999798  0
C  C52  1  0.29807952  0.78874233  0.16597287  1  0  -0.069713  0  3.744967  0  0  -0.096514  0  3.995807  0  0  -0.094948  0  4.015858  0  0  -0.083434  -0.097335  0  3.981703  0
C  C53  1  0.79806160  0.71126209  0.33403075  1  0  -0.069636  0  3.744979  0  0  -0.096297  0  3.995791  0  0  -0.094729  0  4.015843  0  0  -0.083377  -0.097121  0  3.981683  0
C  C54  1  0.70192162  0.21125998  0.83402654  1  0  -0.069612  0  3.744929  0  0  -0.096415  0  3.995764  0  0  -0.094847  0  4.015814  0  0  -0.083455  -0.097245  0  3.981675  0
C  C55  1  0.20193851  0.28873565  0.66596879  1  0  -0.0696  0  3.74508  0  0  -0.09631  0  3.995899  0  0  -0.094742  0  4.015951  0  0  -0.083389  -0.097141  0  3.981804  0
C  C56  1  0.43392902  0.79931596  0.20777048  1  0  -0.082662  0  3.762588  0  0  -0.091595  0  4.01539  0  0  -0.096022  0  4.036281  0  0  -0.093852  -0.088745  0  4.001276  0
C  C57  1  0.93390766  0.70068678  0.29222796  1  0  -0.082622  0  3.762751  0  0  -0.091599  0  4.015532  0  0  -0.096027  0  4.036419  0  0  -0.093827  -0.088734  0  4.001429  0
C  C58  1  0.56607522  0.20068537  0.79222690  1  0  -0.082762  0  3.762775  0  0  -0.09171  0  4.015587  0  0  -0.096138  0  4.036479  0  0  -0.093861  -0.088863  0  4.001486  0
C  C59  1  0.06609348  0.29931481  0.70777712  1  0  -0.082693  0  3.762647  0  0  -0.091661  0  4.015435  0  0  -0.09609  0  4.036326  0  0  -0.093822  -0.088785  0  4.00135  0
C  C60  1  0.53830856  0.82721236  0.14120674  1  0  -0.054606  0  3.710338  0  0  -0.08309  0  3.95936  0  0  -0.080536  0  3.977364  0  0  -0.081288  -0.084569  0  3.947457  0
C  C61  1  0.03829126  0.67279095  0.35878975  1  0  -0.05448  0  3.710288  0  0  -0.083022  0  3.959414  0  0  -0.080451  0  3.977405  0  0  -0.081384  -0.084502  0  3.947506  0
C  C62  1  0.46169464  0.17278424  0.85878650  1  0  -0.054424  0  3.710224  0  0  -0.082914  0  3.959194  0  0  -0.080358  0  3.977198  0  0  -0.081257  -0.084404  0  3.94731  0
C  C63  1  0.96170575  0.32720891  0.64121811  1  0  -0.054346  0  3.710067  0  0  -0.08287  0  3.959167  0  0  -0.080313  0  3.97717  0  0  -0.081314  -0.084359  0  3.947274  0
C  C64  1  0.50753714  0.84611678  0.03377286  1  0  -0.069406  0  3.759579  0  0  -0.042862  0  3.993752  0  0  -0.052146  0  4.017601  0  0  -0.019806  -0.037062  0  3.977946  0
C  C65  1  0.00753024  0.65388346  0.46622482  1  0  -0.069757  0  3.759559  0  0  -0.043226  0  3.993815  0  0  -0.052511  0  4.017658  0  0  -0.019874  -0.037428  0  3.978014  0
C  C66  1  0.49246400  0.15388735  0.96622634  1  0  -0.069511  0  3.759347  0  0  -0.042867  0  3.993428  0  0  -0.052151  0  4.017277  0  0  -0.019789  -0.037063  0  3.977619  0
C  C67  1  0.99246471  0.34611353  0.53377953  1  0  -0.069795  0  3.759688  0  0  -0.043275  0  3.993928  0  0  -0.052559  0  4.017774  0  0  -0.019911  -0.037472  0  3.978122  0
C  C68  1  0.37016187  0.84349695  0.99697054  1  0  -0.068164  0  3.692888  0  0  -0.104362  0  3.938971  0  0  -0.101917  0  3.958604  0  0  -0.077753  -0.105612  0  3.925639  0
C  C69  1  0.87015380  0.65650043  0.50302397  1  0  -0.068017  0  3.692889  0  0  -0.104212  0  3.938982  0  0  -0.101768  0  3.958619  0  0  -0.077688  -0.105461  0  3.925646  0
C  C70  1  0.62984236  0.15650335  0.00302396  1  0  -0.068102  0  3.69284  0  0  -0.10437  0  3.938898  0  0  -0.101925  0  3.958531  0  0  -0.077706  -0.105613  0  3.925545  0
C  C71  1  0.12984218  0.34349743  0.49697899  1  0  -0.068084  0  3.692847  0  0  -0.104262  0  3.93892  0  0  -0.101816  0  3.958555  0  0  -0.077728  -0.105504  0  3.92557  0
C  C72  1  0.62223135  0.86485289  0.95797465  1  0  0.649481  0  3.906048  0  0  0.595934  0  4.20229  0  0  0.630084  0  4.196484  0  0  0.209907  0.573045  0  4.205077  0
C  C73  1  0.12222778  0.63513684  0.54201483  1  0  0.649709  0  3.905619  0  0  0.596143  0  4.20189  0  0  0.630294  0  4.19608  0  0  0.209959  0.573252  0  4.204684  0
C  C74  1  0.37777082  0.13514281  0.04201912  1  0  0.649532  0  3.906045  0  0  0.595944  0  4.202293  0  0  0.630095  0  4.196486  0  0  0.209876  0.57305  0  4.205081  0
C  C75  1  0.87776407  0.36485819  0.45798547  1  0  0.649719  0  3.905759  0  0  0.596196  0  4.201985  0  0  0.630349  0  4.196176  0  0  0.210073  0.573304  0  4.204773  0
C  C76  1  0.06150571  0.94217745  0.72889012  1  0  0.150121  0  3.656211  0  0  0.114961  0  3.910371  0  0  0.123037  0  3.927482  0  0  0.054853  0.109636  0  3.899006  0
C  C77  1  0.56150438  0.55782575  0.77111352  1  0  0.150111  0  3.656028  0  0  0.11493  0  3.910151  0  0  0.123024  0  3.927276  0  0  0.054872  0.109576  0  3.898779  0
C  C78  1  0.93850059  0.05783227  0.27111183  1  0  0.150057  0  3.656337  0  0  0.114941  0  3.910422  0  0  0.123038  0  3.927542  0  0  0.054824  0.109614  0  3.89904  0
C  C79  1  0.43849367  0.44216831  0.22888560  1  0  0.150167  0  3.655981  0  0  0.114928  0  3.910104  0  0  0.123019  0  3.927224  0  0  0.054788  0.109598  0  3.898727  0
C  C80  1  0.09217895  0.97091402  0.62847239  1  0  -0.138264  0  3.67224  0  0  -0.158289  0  3.921545  0  0  -0.166339  0  3.943032  0  0  -0.071091  -0.153282  0  3.907574  0
C  C81  1  0.59217682  0.52908243  0.87153684  1  0  -0.138174  0  3.672039  0  0  -0.158257  0  3.921391  0  0  -0.166307  0  3.942871  0  0  -0.071162  -0.153257  0  3.907438  0
C  C82  1  0.90782838  0.02909023  0.37153022  1  0  -0.138312  0  3.672401  0  0  -0.158321  0  3.921714  0  0  -0.166365  0  3.943188  0  0  -0.071077  -0.153319  0  3.90775  0
C  C83  1  0.40781916  0.47091346  0.12846206  1  0  -0.138239  0  3.672115  0  0  -0.15829  0  3.921424  0  0  -0.166338  0  3.942903  0  0  -0.071155  -0.153288  0  3.90746  0
C  C84  1  0.98540470  0.98565675  0.55455868  1  0  0.094756  0  3.744227  0  0  0.104896  0  3.978723  0  0  0.108885  0  4.001444  0  0  0.019734  0.10238  0  3.96329  0
C  C85  1  0.48539402  0.51435458  0.94544848  1  0  0.094652  0  3.744389  0  0  0.104776  0  3.978867  0  0  0.108764  0  4.00159  0  0  0.019706  0.102262  0  3.963428  0
C  C86  1  0.01460469  0.01434655  0.44544276  1  0  0.094777  0  3.744201  0  0  0.104792  0  3.978836  0  0  0.108778  0  4.001559  0  0  0.019682  0.102263  0  3.963409  0
C  C87  1  0.51459887  0.48564862  0.05455040  1  0  0.094855  0  3.744422  0  0  0.104993  0  3.97885  0  0  0.108982  0  4.001577  0  0  0.019782  0.10246  0  3.96342  0
C  C88  1  0.84996546  0.97156297  0.58878160  1  0  -0.142602  0  3.691906  0  0  -0.162843  0  3.942726  0  0  -0.171013  0  3.964824  0  0  -0.072075  -0.157684  0  3.92812  0
C  C89  1  0.34996110  0.52843079  0.91120387  1  0  -0.142596  0  3.69222  0  0  -0.162865  0  3.94303  0  0  -0.171026  0  3.965122  0  0  -0.07214  -0.157705  0  3.928425  0
C  C90  1  0.15004290  0.02843548  0.41121227  1  0  -0.142606  0  3.69198  0  0  -0.162837  0  3.942858  0  0  -0.171  0  3.964955  0  0  -0.072081  -0.157683  0  3.92826  0
C  C91  1  0.65003179  0.47156781  0.08879428  1  0  -0.142714  0  3.692146  0  0  -0.163022  0  3.943022  0  0  -0.171189  0  3.965114  0  0  -0.07218  -0.157865  0  3.928423  0
C  C92  1  0.82652747  0.94152850  0.68986672  1  0  0.13556  0  3.705248  0  0  0.102122  0  3.959752  0  0  0.109302  0  3.978549  0  0  0.052843  0.097451  0  3.947181  0
C  C93  1  0.32652695  0.55846768  0.81012358  1  0  0.135683  0  3.705585  0  0  0.102289  0  3.960008  0  0  0.109471  0  3.978803  0  0  0.052966  0.097614  0  3.947441  0
C  C94  1  0.17347676  0.05847551  0.31012905  1  0  0.135687  0  3.705272  0  0  0.102188  0  3.959744  0  0  0.109369  0  3.978539  0  0  0.052921  0.097517  0  3.94716  0
C  C95  1  0.67347006  0.44153003  0.18987511  1  0  0.135703  0  3.70545  0  0  0.102303  0  3.959907  0  0  0.109488  0  3.9787  0  0  0.052902  0.097617  0  3.947334  0
N  N96  1  0.93015745  0.92656596  0.75860450  1  0  -0.345411  0  3.33147  0  0  -0.257152  0  3.611013  0  0  -0.278202  0  3.626091  0  0  -0.334944  -0.243038  0  3.600647  0
N  N97  1  0.43015238  0.57342648  0.74138383  1  0  -0.345254  0  3.331413  0  0  -0.257046  0  3.610984  0  0  -0.278095  0  3.626056  0  0  -0.334867  -0.242936  0  3.60064  0
N  N98  1  0.06984782  0.07343993  0.24139276  1  0  -0.345375  0  3.331664  0  0  -0.25711  0  3.611179  0  0  -0.278163  0  3.626251  0  0  -0.334934  -0.242997  0  3.600806  0
N  N99  1  0.56984669  0.42656484  0.25861520  1  0  -0.345323  0  3.331414  0  0  -0.257088  0  3.610992  0  0  -0.278138  0  3.626059  0  0  -0.334842  -0.242975  0  3.60062  0
O  O100  1  0.07855117  0.88761899  0.97999651  1  0  -0.681093  0  2.094826  0  0  -0.599791  0  2.377118  0  0  -0.630094  0  2.361103  0  0  -0.322167  -0.578493  0  2.387065  0
O  O101  1  0.57854765  0.61238404  0.52001061  1  0  -0.681131  0  2.094838  0  0  -0.599809  0  2.377155  0  0  -0.630118  0  2.361151  0  0  -0.3222  -0.578512  0  2.3871  0
O  O102  1  0.92145409  0.11238267  0.02001028  1  0  -0.681183  0  2.09471  0  0  -0.59987  0  2.376967  0  0  -0.630171  0  2.360946  0  0  -0.322245  -0.578588  0  2.386938  0
O  O103  1  0.42145349  0.38761741  0.47999019  1  0  -0.681181  0  2.094652  0  0  -0.599879  0  2.376939  0  0  -0.630181  0  2.36092  0  0  -0.322253  -0.578585  0  2.386885  0
O  O104  1  0.05001391  0.70876487  0.01164387  1  0  -0.613548  0  1.900961  0  0  -0.561699  0  2.107723  0  0  -0.584362  0  2.09702  0  0  -0.316584  -0.54511  0  2.11413  0
O  O105  1  0.55000238  0.79123107  0.48835696  1  0  -0.613578  0  1.901115  0  0  -0.561715  0  2.107916  0  0  -0.584381  0  2.097209  0  0  -0.316603  -0.54513  0  2.114326  0
O  O106  1  0.94998517  0.29123667  0.98835950  1  0  -0.613531  0  1.900994  0  0  -0.56169  0  2.107738  0  0  -0.584355  0  2.097033  0  0  -0.316565  -0.545104  0  2.114143  0
O  O107  1  0.44999360  0.20876571  0.51164141  1  0  -0.613583  0  1.901113  0  0  -0.561756  0  2.107871  0  0  -0.584422  0  2.097165  0  0  -0.316581  -0.545174  0  2.114284  0
O  O108  1  0.60165478  0.86012355  0.85113668  1  0  -0.636876  0  1.991789  0  0  -0.580731  0  2.222855  0  0  -0.606407  0  2.214491  0  0  -0.309925  -0.562495  0  2.22801  0
O  O109  1  0.10165477  0.63986846  0.64885507  1  0  -0.636848  0  1.991576  0  0  -0.580729  0  2.222674  0  0  -0.606404  0  2.21431  0  0  -0.3099  -0.562492  0  2.227832  0
O  O110  1  0.39834636  0.13987401  0.14885773  1  0  -0.636814  0  1.991841  0  0  -0.580689  0  2.222936  0  0  -0.606365  0  2.214575  0  0  -0.309857  -0.562452  0  2.228084  0
O  O111  1  0.89834018  0.36012755  0.35114725  1  0  -0.636897  0  1.991603  0  0  -0.580784  0  2.222691  0  0  -0.606457  0  2.214326  0  0  -0.309978  -0.562554  0  2.227843  0
O  O112  1  0.74254099  0.88302783  0.00869771  1  0  -0.63719  0  2.05661  0  0  -0.563051  0  2.330904  0  0  -0.592476  0  2.315582  0  0  -0.324255  -0.542641  0  2.340742  0
O  O113  1  0.24254063  0.61697336  0.49128989  1  0  -0.637362  0  2.056445  0  0  -0.563143  0  2.330646  0  0  -0.592564  0  2.315321  0  0  -0.324349  -0.542741  0  2.340506  0
O  O114  1  0.25745602  0.11697989  0.99129933  1  0  -0.637315  0  2.056538  0  0  -0.563152  0  2.330832  0  0  -0.592578  0  2.315512  0  0  -0.324336  -0.542751  0  2.340683  0
O  O115  1  0.75745329  0.38301730  0.50871651  1  0  -0.637287  0  2.056373  0  0  -0.563154  0  2.330638  0  0  -0.59258  0  2.315323  0  0  -0.32438  -0.542736  0  2.340444  0
O  O116  1  0.89967252  0.67846529  0.81083947  1  0  -0.827863  0  1.868277  0  0  -0.765186  0  2.063821  0  0  -0.788069  0  2.02912  0  0  -0.578418  -0.748713  0  2.08822  0
O  O117  1  0.39966308  0.82153919  0.68916367  1  0  -0.827973  0  1.868093  0  0  -0.765267  0  2.06365  0  0  -0.788153  0  2.02895  0  0  -0.578465  -0.748789  0  2.088054  0
O  O118  1  0.10032655  0.32153998  0.18916602  1  0  -0.827881  0  1.868317  0  0  -0.765215  0  2.06382  0  0  -0.7881  0  2.029122  0  0  -0.578424  -0.748753  0  2.088216  0
O  O119  1  0.60033599  0.17845392  0.31083429  1  0  -0.827863  0  1.868272  0  0  -0.765185  0  2.063776  0  0  -0.788071  0  2.029073  0  0  -0.578428  -0.748732  0  2.088176  0
