# generated using pymatgen
data_ZnH8C18(NO4)3
_symmetry_space_group_name_H-M   'P 1'
_cell_length_a   9.78112268
_cell_length_b   10.84374940
_cell_length_c   19.51874852
_cell_angle_alpha   93.43699586
_cell_angle_beta   83.58373118
_cell_angle_gamma   93.74941797
_symmetry_Int_Tables_number   1
_chemical_formula_structural   ZnH8C18(NO4)3
_chemical_formula_sum   'Zn2 H16 C36 N6 O24'
_cell_volume   2049.97153926
_cell_formula_units_Z   2
loop_
 _symmetry_equiv_pos_site_id
 _symmetry_equiv_pos_as_xyz
  1  'x, y, z'
loop_
 _atom_site_type_symbol
 _atom_site_label
 _atom_site_symmetry_multiplicity
 _atom_site_fract_x
 _atom_site_fract_y
 _atom_site_fract_z
 _atom_site_occupancy
 _atom_site_pbe_bader_charge
 _atom_site_pbe_bader_spin_density
 _atom_site_pbe_cm5_charge
 _atom_site_pbe_ddec_charge
 _atom_site_pbe_ddec_spin_density
 _atom_site_pbe_ddec_sum_bond_order
 _atom_site_pbe_magmom
Zn  Zn0  1  0.35396338  0.49163646  0.52267006  1  1.318546  0  0.689729  0.880045  0  2.271525  0
Zn  Zn1  1  0.65062457  0.50310887  0.47588317  1  1.31162  0  0.689382  0.878142  0  2.267937  0
H  H2  1  0.70358012  0.10783228  0.42702162  1  0.098593  0  0.101575  0.114823  0  1.030988  0
H  H3  1  0.31715604  0.88694475  0.56734396  1  0.142376  0  0.101624  0.114561  0  1.029705  0
H  H4  1  0.69515851  0.87741388  0.43184202  1  0.114134  0  0.107014  0.114065  0  1.01927  0
H  H5  1  0.32366312  0.11691503  0.56127664  1  0.110598  0  0.105698  0.113287  0  1.027878  0
H  H6  1  0.74507653  0.52461646  0.83930116  1  0.105081  0  0.118975  0.130035  0  0.990192  0
H  H7  1  0.24248720  0.42623371  0.16133608  1  0.110711  0  0.118886  0.128874  0  0.994491  0
H  H8  1  0.64851088  0.61092247  0.15711109  1  0.121922  0  0.118988  0.130268  0  0.988656  0
H  H9  1  0.33616319  0.34690607  0.84020862  1  0.12148  0  0.118953  0.130192  0  0.986345  0
H  H10  1  0.30032133  0.48958242  0.92878213  1  0.078993  0  0.107123  0.108128  0  0.99471  0
H  H11  1  0.68570646  0.45692027  0.07058499  1  0.051179  0  0.107148  0.10769  0  0.993261  0
H  H12  1  0.26040129  0.52243818  0.05516376  1  0.099192  0  0.107078  0.10752  0  0.991707  0
H  H13  1  0.72559617  0.42340142  0.94408993  1  0.075264  0  0.107243  0.107404  0  0.992223  0
H  H14  1  0.84302086  0.87973144  0.51636327  1  0.627577  0  0.349991  0.391923  0  0.842834  0
H  H15  1  0.17144647  0.12174141  0.48165320  1  0.622256  0  0.350888  0.393107  0  0.841663  0
H  H16  1  0.76683104  0.34492497  0.33016793  1  0.650069  0  0.364119  0.408697  0  0.809273  0
H  H17  1  0.23245941  0.66441075  0.67322393  1  0.623275  0  0.365803  0.406762  0  0.807965  0
C  C18  1  0.50790629  0.86916243  0.50134835  1  -0.030294  0  -0.013445  -0.024941  0  3.955592  0
C  C19  1  0.51208796  0.12553203  0.49265116  1  -0.030174  0  -0.011937  -0.021557  0  3.960472  0
C  C20  1  0.51525476  0.26279946  0.48964336  1  1.575223  0  0.22547  0.609287  0  4.125436  0
C  C21  1  0.50562171  0.73220849  0.50573619  1  1.57849  0  0.224872  0.608586  0  4.129867  0
C  C22  1  0.43318756  0.51744055  0.37270948  1  1.65459  0  0.217324  0.606351  0  4.18422  0
C  C23  1  0.54851408  0.46780896  0.62839904  1  1.653448  0  0.217809  0.603787  0  4.179911  0
C  C24  1  0.61902865  0.05900676  0.45740514  1  0.01652  0  -0.083065  -0.090708  0  3.950738  0
C  C25  1  0.40111132  0.93576037  0.53657885  1  -0.058433  0  -0.081312  -0.085096  0  3.947359  0
C  C26  1  0.61618387  0.93119649  0.46127904  1  -0.051202  0  -0.08603  -0.103675  0  3.971784  0
C  C27  1  0.40315382  0.06338327  0.53209852  1  -0.099531  0  -0.087143  -0.107718  0  3.974573  0
C  C28  1  0.67050792  0.48026295  0.74128980  1  0.258712  0  0.094834  0.088276  0  3.884728  0
C  C29  1  0.31284647  0.48573672  0.25839592  1  0.237593  0  0.09395  0.083641  0  3.87973  0
C  C30  1  0.53693316  0.58104459  0.25565120  1  0.176421  0  0.088775  0.074435  0  3.929576  0
C  C31  1  0.44455305  0.38864465  0.74248555  1  0.143066  0  0.091282  0.08332  0  3.926792  0
C  C32  1  0.65914868  0.48304369  0.81325356  1  -0.010108  0  -0.073859  -0.179049  0  3.921569  0
C  C33  1  0.32725139  0.47255686  0.18641575  1  0.023279  0  -0.071241  -0.170602  0  3.918737  0
C  C34  1  0.55380775  0.57160103  0.18421412  1  -0.041609  0  -0.073536  -0.174787  0  3.93825  0
C  C35  1  0.43074753  0.38782415  0.81379261  1  0.071162  0  -0.076498  -0.182561  0  3.94133  0
C  C36  1  0.53699727  0.43998408  0.85097755  1  0.022167  0  0.00602  0.107045  0  4.003045  0
C  C37  1  0.44946690  0.51288439  0.14796396  1  -2.7e-05  0  0.005092  0.101518  0  4.008102  0
C  C38  1  0.93614565  0.60325637  0.52283139  1  0.589526  0  0.164963  0.11507  0  3.810404  0
C  C39  1  0.06872328  0.39590815  0.47962911  1  0.603214  0  0.163747  0.114101  0  3.814367  0
C  C40  1  0.94448179  0.42162619  0.45527891  1  0.544542  0  0.153409  0.087629  0  3.861488  0
C  C41  1  0.06039772  0.57758053  0.54731641  1  0.555253  0  0.153244  0.087533  0  3.850294  0
C  C42  1  0.56128872  0.43990231  0.70288166  1  0.05424  0  0.008594  -0.098396  0  3.840729  0
C  C43  1  0.41957308  0.53411282  0.29652690  1  0.126936  0  0.013903  -0.08591  0  3.821208  0
C  C44  1  0.38464432  0.48001645  0.95987744  1  -0.079801  0  -0.084269  -0.120582  0  3.980667  0
C  C45  1  0.60143521  0.46611518  0.03940300  1  -0.036673  0  -0.085479  -0.121331  0  3.982783  0
C  C46  1  0.36220188  0.49896229  0.03119250  1  0.012922  0  -0.085613  -0.120695  0  3.987955  0
C  C47  1  0.62385166  0.44697841  0.96806408  1  0.000412  0  -0.08415  -0.118993  0  3.985979  0
C  C48  1  0.47051666  0.49302309  0.07223490  1  -0.045005  0  -0.004893  0.065366  0  4.001978  0
C  C49  1  0.51587107  0.45418366  0.92695251  1  -0.07036  0  -0.004867  0.064471  0  3.997728  0
C  C50  1  0.86508609  0.72114559  0.54727561  1  1.641607  0  0.241292  0.560394  0  4.148644  0
C  C51  1  0.14143463  0.28003282  0.45292860  1  1.638594  0  0.241678  0.561226  0  4.14724  0
C  C52  1  0.88606057  0.33697411  0.40045578  1  1.609592  0  0.239684  0.546359  0  4.175814  0
C  C53  1  0.11971891  0.66567814  0.60037688  1  1.585539  0  0.242188  0.545025  0  4.168032  0
N  N54  1  0.12686459  0.47526529  0.52511919  1  -1.150268  0  -0.261044  -0.179035  0  3.355217  0
N  N55  1  0.87762316  0.52325961  0.47791356  1  -1.166794  0  -0.260708  -0.175819  0  3.357221  0
N  N56  1  0.80790196  0.52484629  0.70863860  1  0.438029  0  0.064908  0.523784  0  4.193683  0
N  N57  1  0.17408675  0.44583652  0.29092167  1  0.405348  0  0.062669  0.521177  0  4.195507  0
N  N58  1  0.64922904  0.65237726  0.28831750  1  0.40377  0  0.058612  0.51896  0  4.218867  0
N  N59  1  0.32801324  0.32481017  0.70934247  1  0.428348  0  0.058776  0.521188  0  4.229514  0
O  O60  1  0.40156302  0.31445744  0.50395114  1  -1.170352  0  -0.309583  -0.552639  0  2.417179  0
O  O61  1  0.61548382  0.67988840  0.48142326  1  -1.163577  0  -0.31027  -0.547302  0  2.429859  0
O  O62  1  0.39564368  0.67727633  0.53288150  1  -1.165336  0  -0.312407  -0.547603  0  2.37422  0
O  O63  1  0.63241589  0.31850703  0.47353072  1  -1.156935  0  -0.311254  -0.539926  0  2.394036  0
O  O64  1  0.33262070  0.53037937  0.41823441  1  -1.149248  0  -0.302348  -0.531414  0  2.349499  0
O  O65  1  0.65398086  0.48287618  0.58597890  1  -1.153083  0  -0.303118  -0.534937  0  2.34995  0
O  O66  1  0.42364068  0.47786755  0.61788337  1  -1.157073  0  -0.310203  -0.544158  0  2.389014  0
O  O67  1  0.55305850  0.48720711  0.38164984  1  -1.157368  0  -0.313142  -0.558393  0  2.332383  0
O  O68  1  0.79183637  0.73244390  0.60140360  1  -1.095601  0  -0.263289  -0.43165  0  2.122321  0
O  O69  1  0.89516261  0.80706221  0.50020992  1  -1.116261  0  -0.318064  -0.451968  0  2.24041  0
O  O70  1  0.21188671  0.27193419  0.39777152  1  -1.098629  0  -0.263264  -0.43448  0  2.137358  0
O  O71  1  0.11680949  0.19223867  0.49908965  1  -1.104642  0  -0.316065  -0.449375  0  2.237812  0
O  O72  1  0.90588395  0.22711894  0.39285925  1  -1.109572  0  -0.256736  -0.436498  0  2.13966  0
O  O73  1  0.81415447  0.40158749  0.36192955  1  -1.115271  0  -0.308367  -0.455898  0  2.381579  0
O  O74  1  0.10458105  0.77657702  0.60349635  1  -1.079194  0  -0.256936  -0.438056  0  2.126697  0
O  O75  1  0.18640276  0.60437688  0.64262215  1  -1.094936  0  -0.304473  -0.443982  0  2.357788  0
O  O76  1  0.86773754  0.45398468  0.66510515  1  -0.431569  0  -0.11305  -0.299804  0  1.92408  0
O  O77  1  0.85551412  0.62617427  0.73072189  1  -0.446165  0  -0.126085  -0.319794  0  1.886334  0
O  O78  1  0.11942294  0.51727072  0.33598030  1  -0.42625  0  -0.109115  -0.297701  0  1.955346  0
O  O79  1  0.11968238  0.34831124  0.26758434  1  -0.429234  0  -0.126323  -0.320314  0  1.894621  0
O  O80  1  0.61403537  0.73729773  0.33037695  1  -0.435898  0  -0.112486  -0.304111  0  1.933535  0
O  O81  1  0.76899058  0.62727907  0.26782535  1  -0.432869  0  -0.136055  -0.327044  0  1.877192  0
O  O82  1  0.35656313  0.23526242  0.66928001  1  -0.438659  0  -0.117731  -0.312215  0  1.927209  0
O  O83  1  0.21129389  0.35920218  0.72853960  1  -0.433409  0  -0.133861  -0.323334  0  1.882206  0
