# generated using pymatgen
data_Cd2H18C10O13
_symmetry_space_group_name_H-M   'P 1'
_cell_length_a   8.56747012
_cell_length_b   9.51996588
_cell_length_c   11.02552894
_cell_angle_alpha   89.34504975
_cell_angle_beta   83.64176089
_cell_angle_gamma   65.88616822
_symmetry_Int_Tables_number   1
_chemical_formula_structural   Cd2H18C10O13
_chemical_formula_sum   'Cd4 H36 C20 O26'
_cell_volume   815.17494932
_cell_formula_units_Z   2
loop_
 _symmetry_equiv_pos_site_id
 _symmetry_equiv_pos_as_xyz
  1  'x, y, z'
loop_
 _atom_site_type_symbol
 _atom_site_label
 _atom_site_symmetry_multiplicity
 _atom_site_fract_x
 _atom_site_fract_y
 _atom_site_fract_z
 _atom_site_occupancy
 _atom_site_hle17_bader_spin_density
 _atom_site_hle17_ddec_charge
 _atom_site_hle17_ddec_spin_density
 _atom_site_hle17_ddec_sum_bond_order
 _atom_site_hle17_magmom
 _atom_site_hse06_10hf_bader_spin_density
 _atom_site_hse06_10hf_ddec_charge
 _atom_site_hse06_10hf_ddec_spin_density
 _atom_site_hse06_10hf_ddec_sum_bond_order
 _atom_site_hse06_10hf_magmom
 _atom_site_hse06_bader_spin_density
 _atom_site_hse06_ddec_charge
 _atom_site_hse06_ddec_spin_density
 _atom_site_hse06_ddec_sum_bond_order
 _atom_site_hse06_magmom
 _atom_site_pbe_bader_spin_density
 _atom_site_pbe_cm5_charge
 _atom_site_pbe_ddec_charge
 _atom_site_pbe_ddec_spin_density
 _atom_site_pbe_ddec_sum_bond_order
 _atom_site_pbe_magmom
Cd  Cd0  1  0.32054833  0.94091794  0.99503202  1  0  1.266466  0  1.531163  0  0  1.093911  0  1.962444  0  0  1.153959  0  1.902148  0  0  0.779101  1.050529  0  2.004035  0
Cd  Cd1  1  0.67945512  0.05908160  0.00496420  1  0  1.266472  0  1.531069  0  0  1.093937  0  1.962326  0  0  1.153985  0  1.902032  0  0  0.779109  1.050531  0  2.003967  0
Cd  Cd2  1  0.30974615  0.78918348  0.47458637  1  0  1.218463  0  1.50913  0  0  1.04213  0  1.927949  0  0  1.104534  0  1.868333  0  0  0.767662  0.997857  0  1.968666  0
Cd  Cd3  1  0.69024631  0.21081948  0.52541163  1  0  1.218489  0  1.509117  0  0  1.042161  0  1.92792  0  0  1.104567  0  1.868304  0  0  0.767658  0.997884  0  1.96864  0
H  H4  1  0.09804836  0.40766706  0.12708995  1  0  0.086691  0  0.908974  0  0  0.10395  0  0.963884  0  0  0.104669  0  0.964793  0  0  0.112032  0.103243  0  0.963585  0
H  H5  1  0.90195163  0.59233496  0.87291194  1  0  0.0867  0  0.908997  0  0  0.103947  0  0.963921  0  0  0.104673  0  0.964822  0  0  0.112028  0.103237  0  0.963624  0
H  H6  1  0.10998780  0.34579138  0.34039971  1  0  0.102378  0  0.909715  0  0  0.113174  0  0.970271  0  0  0.116134  0  0.968167  0  0  0.112851  0.110905  0  0.972093  0
H  H7  1  0.89000642  0.65421295  0.65960353  1  0  0.102354  0  0.90972  0  0  0.113167  0  0.97029  0  0  0.116129  0  0.968183  0  0  0.112833  0.110893  0  0.972116  0
H  H8  1  0.89664900  0.64902032  0.07016262  1  0  0.077961  0  0.957443  0  0  0.089825  0  1.02289  0  0  0.091247  0  1.023188  0  0  0.1039  0.08886  0  1.022833  0
H  H9  1  0.10335256  0.35097835  0.92984197  1  0  0.077947  0  0.957465  0  0  0.089845  0  1.022874  0  0  0.09127  0  1.023174  0  0  0.103894  0.088877  0  1.022821  0
H  H10  1  0.92906254  0.61939532  0.41596681  1  0  0.090519  0  0.947411  0  0  0.102578  0  1.015979  0  0  0.104453  0  1.015546  0  0  0.095205  0.10125  0  1.016175  0
H  H11  1  0.07093447  0.38060553  0.58403539  1  0  0.090515  0  0.947391  0  0  0.102584  0  1.015959  0  0  0.104458  0  1.015524  0  0  0.095218  0.10125  0  1.016165  0
H  H12  1  0.06344358  0.59609575  0.27897663  1  0  0.081047  0  0.922997  0  0  0.100074  0  0.98152  0  0  0.101595  0  0.980927  0  0  0.094262  0.098865  0  0.982227  0
H  H13  1  0.93655234  0.40390744  0.72102650  1  0  0.081084  0  0.922872  0  0  0.100146  0  0.981368  0  0  0.101672  0  0.980771  0  0  0.094278  0.098936  0  0.982078  0
H  H14  1  0.80999842  0.80272543  0.24306689  1  0  0.087664  0  0.921226  0  0  0.098936  0  0.981144  0  0  0.101132  0  0.980009  0  0  0.106412  0.097166  0  0.982484  0
H  H15  1  0.18999794  0.19727426  0.75693540  1  0  0.087636  0  0.921226  0  0  0.098925  0  0.981126  0  0  0.101122  0  0.979991  0  0  0.106412  0.097151  0  0.982466  0
H  H16  1  0.84129431  0.42863806  0.02327346  1  0  0.059809  0  0.98841  0  0  0.074605  0  1.061562  0  0  0.076242  0  1.05979  0  0  0.08952  0.073211  0  1.063277  0
H  H17  1  0.15870504  0.57136280  0.97672853  1  0  0.059877  0  0.988483  0  0  0.074681  0  1.061629  0  0  0.076321  0  1.059851  0  0  0.08954  0.073284  0  1.063352  0
H  H18  1  0.72600717  0.43807800  0.16797604  1  0  0.09464  0  0.926098  0  0  0.112827  0  0.984679  0  0  0.114721  0  0.983545  0  0  0.097201  0.111216  0  0.985944  0
H  H19  1  0.27399324  0.56192059  0.83202684  1  0  0.094591  0  0.926143  0  0  0.112792  0  0.984735  0  0  0.114668  0  0.983622  0  0  0.097194  0.111183  0  0.985992  0
H  H20  1  0.26952784  0.08645446  0.55314918  1  0  0.427135  0  0.880048  0  0  0.391977  0  0.950214  0  0  0.404239  0  0.932569  0  0  0.284916  0.38331  0  0.962645  0
H  H21  1  0.73046748  0.91354746  0.44685132  1  0  0.427194  0  0.88001  0  0  0.392045  0  0.950157  0  0  0.404307  0  0.932513  0  0  0.284948  0.383376  0  0.962591  0
H  H22  1  0.08891434  0.06957498  0.59066530  1  0  0.425829  0  0.872045  0  0  0.396421  0  0.932936  0  0  0.407048  0  0.917654  0  0  0.288371  0.388875  0  0.943777  0
H  H23  1  0.91107814  0.93042792  0.40933088  1  0  0.425821  0  0.872058  0  0  0.396413  0  0.932953  0  0  0.407039  0  0.917671  0  0  0.288382  0.388864  0  0.943799  0
H  H24  1  0.59683911  0.75557876  0.56861829  1  0  0.418139  0  0.883764  0  0  0.390242  0  0.942289  0  0  0.399802  0  0.928302  0  0  0.296235  0.383562  0  0.952027  0
H  H25  1  0.40315673  0.24442205  0.43138311  1  0  0.418143  0  0.883749  0  0  0.390254  0  0.942259  0  0  0.399813  0  0.928274  0  0  0.296245  0.383576  0  0.951994  0
H  H26  1  0.64010131  0.58411112  0.59441457  1  0  0.441697  0  0.844064  0  0  0.414218  0  0.900947  0  0  0.423806  0  0.886928  0  0  0.301094  0.407488  0  0.910763  0
H  H27  1  0.35990317  0.41588625  0.40558526  1  0  0.441643  0  0.844134  0  0  0.414183  0  0.900986  0  0  0.423766  0  0.886975  0  0  0.30109  0.407451  0  0.910804  0
H  H28  1  0.14931309  0.83213993  0.24425606  1  0  0.437375  0  0.856702  0  0  0.407431  0  0.916938  0  0  0.417788  0  0.902019  0  0  0.295339  0.400069  0  0.927525  0
H  H29  1  0.85068576  0.16786192  0.75574140  1  0  0.437327  0  0.856747  0  0  0.407383  0  0.916985  0  0  0.417739  0  0.902068  0  0  0.295343  0.400021  0  0.927572  0
H  H30  1  0.12671545  0.98857575  0.30183717  1  0  0.440372  0  0.842593  0  0  0.407464  0  0.915698  0  0  0.417516  0  0.901229  0  0  0.301282  0.400277  0  0.926044  0
H  H31  1  0.87328043  0.01142489  0.69815969  1  0  0.440347  0  0.842638  0  0  0.407431  0  0.915746  0  0  0.417484  0  0.901276  0  0  0.301287  0.400246  0  0.926088  0
H  H32  1  0.42716242  0.79701528  0.75506747  1  0  0.454018  0  0.829216  0  0  0.427829  0  0.88243  0  0  0.438094  0  0.867545  0  0  0.301906  0.420465  0  0.893126  0
H  H33  1  0.57283901  0.20297851  0.24493004  1  0  0.454062  0  0.829156  0  0  0.42788  0  0.882357  0  0  0.438144  0  0.867473  0  0  0.301947  0.420519  0  0.893046  0
H  H34  1  0.23172103  0.83645307  0.77029871  1  0  0.441859  0  0.849495  0  0  0.410175  0  0.913718  0  0  0.421033  0  0.897904  0  0  0.299843  0.402289  0  0.925244  0
H  H35  1  0.76828051  0.16354299  0.22969781  1  0  0.441872  0  0.84949  0  0  0.410172  0  0.91374  0  0  0.421031  0  0.897924  0  0  0.299839  0.402271  0  0.925282  0
H  H36  1  0.30626728  0.67544755  0.06940857  1  0  0.450735  0  0.803763  0  0  0.424752  0  0.868269  0  0  0.434102  0  0.857594  0  0  0.319841  0.418214  0  0.875673  0
H  H37  1  0.69373733  0.32455206  0.93058936  1  0  0.450757  0  0.803705  0  0  0.424777  0  0.868211  0  0  0.434127  0  0.857534  0  0  0.319847  0.418238  0  0.875616  0
H  H38  1  0.11001228  0.78162812  0.04122707  1  0  0.436184  0  0.869129  0  0  0.399369  0  0.942336  0  0  0.411341  0  0.92508  0  0  0.289851  0.390888  0  0.954568  0
H  H39  1  0.88999359  0.21837384  0.95877158  1  0  0.436219  0  0.86907  0  0  0.399403  0  0.942269  0  0  0.411375  0  0.925013  0  0  0.289881  0.390921  0  0.954504  0
C  C40  1  0.00055980  0.36893126  0.17162738  1  0  -0.12101  0  3.658486  0  0  -0.125933  0  3.898957  0  0  -0.131025  0  3.913132  0  0  -0.087637  -0.122255  0  3.889126  0
C  C41  1  0.99944412  0.63106735  0.82837518  1  0  -0.121049  0  3.658589  0  0  -0.125955  0  3.899106  0  0  -0.13105  0  3.913278  0  0  -0.087631  -0.122272  0  3.889266  0
C  C42  1  0.63039249  0.72671996  0.06941440  1  0  0.675346  0  3.837108  0  0  0.621548  0  4.140803  0  0  0.655424  0  4.136058  0  0  0.201776  0.598423  0  4.143114  0
C  C43  1  0.36961149  0.27327843  0.93058181  1  0  0.675296  0  3.837172  0  0  0.621507  0  4.140859  0  0  0.655388  0  4.136112  0  0  0.201744  0.598384  0  4.143168  0
C  C44  1  0.98421613  0.41198561  0.30719083  1  0  -0.120869  0  3.616851  0  0  -0.126738  0  3.857785  0  0  -0.132467  0  3.871367  0  0  -0.083551  -0.122949  0  3.848533  0
C  C45  1  0.01578323  0.58801522  0.69281026  1  0  -0.12084  0  3.616802  0  0  -0.126768  0  3.857887  0  0  -0.132495  0  3.871465  0  0  -0.083551  -0.12297  0  3.848621  0
C  C46  1  0.79233355  0.63163694  0.12721005  1  0  -0.120524  0  3.639575  0  0  -0.125726  0  3.876541  0  0  -0.131157  0  3.890605  0  0  -0.091193  -0.122053  0  3.866856  0
C  C47  1  0.20766917  0.36836177  0.87279534  1  0  -0.120454  0  3.639449  0  0  -0.125681  0  3.876483  0  0  -0.131125  0  3.890563  0  0  -0.091167  -0.12201  0  3.866795  0
C  C48  1  0.94685639  0.58354781  0.31961860  1  0  -0.121787  0  3.611501  0  0  -0.173505  0  3.871009  0  0  -0.173122  0  3.882741  0  0  -0.159786  -0.173505  0  3.862758  0
C  C49  1  0.05313784  0.41645648  0.68038373  1  0  -0.121808  0  3.611359  0  0  -0.17357  0  3.870911  0  0  -0.173186  0  3.882641  0  0  -0.159833  -0.173576  0  3.862668  0
C  C50  1  0.86240925  0.35892839  0.38623983  1  0  0.685944  0  3.803931  0  0  0.630091  0  4.107454  0  0  0.66429  0  4.1024  0  0  0.209549  0.606841  0  4.110061  0
C  C51  1  0.13759222  0.64106790  0.61376303  1  0  0.686088  0  3.803532  0  0  0.630189  0  4.107189  0  0  0.664387  0  4.102128  0  0  0.209659  0.606934  0  4.109795  0
C  C52  1  0.79373601  0.69444767  0.25482041  1  0  -0.125367  0  3.606968  0  0  -0.130595  0  3.846996  0  0  -0.136325  0  3.860693  0  0  -0.08728  -0.126536  0  3.837615  0
C  C53  1  0.20625928  0.30555435  0.74518281  1  0  -0.125339  0  3.606769  0  0  -0.130511  0  3.846771  0  0  -0.13624  0  3.860475  0  0  -0.087244  -0.126435  0  3.837368  0
C  C54  1  0.62606822  0.73879833  0.33751496  1  0  0.679328  0  3.821089  0  0  0.62358  0  4.123418  0  0  0.65758  0  4.118577  0  0  0.209876  0.600436  0  4.125957  0
C  C55  1  0.37392960  0.26120839  0.66248969  1  0  0.679366  0  3.820926  0  0  0.623575  0  4.123319  0  0  0.657573  0  4.118475  0  0  0.209859  0.60043  0  4.125856  0
C  C56  1  0.08586791  0.19824775  0.13707073  1  0  0.665886  0  3.839464  0  0  0.607575  0  4.14965  0  0  0.641493  0  4.143346  0  0  0.203461  0.584489  0  4.153077  0
C  C57  1  0.91413952  0.80175088  0.86293151  1  0  0.665768  0  3.839559  0  0  0.607504  0  4.14968  0  0  0.641423  0  4.14338  0  0  0.203457  0.584418  0  4.153099  0
C  C58  1  0.83215617  0.46059415  0.11962778  1  0  -0.141697  0  3.696993  0  0  -0.196866  0  3.954071  0  0  -0.196854  0  3.966759  0  0  -0.176397  -0.196705  0  3.945409  0
C  C59  1  0.16784592  0.53940337  0.88037681  1  0  -0.141706  0  3.697158  0  0  -0.196962  0  3.954398  0  0  -0.19693  0  3.96708  0  0  -0.176408  -0.196803  0  3.945737  0
O  O60  1  0.59331509  0.83988975  0.42338200  1  0  -0.667393  0  2.012637  0  0  -0.593006  0  2.229435  0  0  -0.621865  0  2.218918  0  0  -0.317735  -0.57283  0  2.236009  0
O  O61  1  0.40668265  0.16011457  0.57662002  1  0  -0.667469  0  2.012565  0  0  -0.593065  0  2.229392  0  0  -0.621926  0  2.218872  0  0  -0.317738  -0.572896  0  2.23597  0
O  O62  1  0.18753257  0.04501407  0.52618286  1  0  -0.84252  0  1.858824  0  0  -0.774806  0  2.056448  0  0  -0.799687  0  2.021048  0  0  -0.593156  -0.757386  0  2.08091  0
O  O63  1  0.81246457  0.95498895  0.47381562  1  0  -0.842585  0  1.858883  0  0  -0.774848  0  2.056456  0  0  -0.799743  0  2.02109  0  0  -0.593176  -0.757425  0  2.080923  0
O  O64  1  0.52459245  0.67472313  0.32240717  1  0  -0.619199  0  1.947647  0  0  -0.5481  0  2.18239  0  0  -0.579026  0  2.173092  0  0  -0.318914  -0.526464  0  2.187955  0
O  O65  1  0.47540625  0.32527660  0.67759583  1  0  -0.619163  0  1.947707  0  0  -0.548061  0  2.182475  0  0  -0.57899  0  2.173185  0  0  -0.318893  -0.52643  0  2.188043  0
O  O66  1  0.56370428  0.68914483  0.62594896  1  0  -0.840305  0  1.806667  0  0  -0.782743  0  1.959836  0  0  -0.803203  0  1.928396  0  0  -0.576348  -0.768126  0  1.981581  0
O  O67  1  0.43629900  0.31085263  0.37405370  1  0  -0.840257  0  1.806773  0  0  -0.7827  0  1.959925  0  0  -0.803159  0  1.928491  0  0  -0.576351  -0.768085  0  1.981669  0
O  O68  1  0.57143225  0.87560796  0.08236283  1  0  -0.708559  0  2.065118  0  0  -0.626777  0  2.33058  0  0  -0.662048  0  2.31968  0  0  -0.343016  -0.601861  0  2.337065  0
O  O69  1  0.42856650  0.12439158  0.91763472  1  0  -0.708545  0  2.065136  0  0  -0.62676  0  2.330578  0  0  -0.662026  0  2.31967  0  0  -0.343021  -0.601844  0  2.337061  0
O  O70  1  0.11447813  0.89192596  0.32372009  1  0  -0.836685  0  1.882127  0  0  -0.765103  0  2.070425  0  0  -0.789795  0  2.037972  0  0  -0.564675  -0.747536  0  2.093077  0
O  O71  1  0.88551775  0.10807468  0.67627678  1  0  -0.836621  0  1.882199  0  0  -0.765033  0  2.070479  0  0  -0.789724  0  2.03803  0  0  -0.564689  -0.747469  0  2.093127  0
O  O72  1  0.55830386  0.66295252  0.01016231  1  0  -0.626924  0  1.90542  0  0  -0.571813  0  2.128542  0  0  -0.597393  0  2.118677  0  0  -0.322858  -0.553777  0  2.134666  0
O  O73  1  0.44170600  0.33704582  0.98983156  1  0  -0.6269  0  1.905397  0  0  -0.571805  0  2.128527  0  0  -0.597385  0  2.118659  0  0  -0.322837  -0.553767  0  2.13465  0
O  O74  1  0.31697975  0.86785058  0.80123015  1  0  -0.852794  0  1.835347  0  0  -0.788825  0  2.029156  0  0  -0.811512  0  1.992561  0  0  -0.587837  -0.772967  0  2.055442  0
O  O75  1  0.68302124  0.13214666  0.19876728  1  0  -0.852874  0  1.835255  0  0  -0.788909  0  2.029075  0  0  -0.811595  0  1.992478  0  0  -0.587889  -0.773031  0  2.055396  0
O  O76  1  0.79253575  0.42181608  0.49066230  1  0  -0.661854  0  1.967235  0  0  -0.597608  0  2.207355  0  0  -0.626984  0  2.197894  0  0  -0.318205  -0.577146  0  2.213147  0
O  O77  1  0.20745859  0.57817523  0.50933231  1  0  -0.661897  0  1.966912  0  0  -0.597683  0  2.20711  0  0  -0.627058  0  2.197651  0  0  -0.31826  -0.577222  0  2.212907  0
O  O78  1  0.20384879  0.76999909  0.09407367  1  0  -0.844964  0  1.883129  0  0  -0.778028  0  2.07892  0  0  -0.801079  0  2.04694  0  0  -0.558895  -0.761464  0  2.101013  0
O  O79  1  0.79615761  0.23000171  0.90592496  1  0  -0.845006  0  1.88303  0  0  -0.778085  0  2.078851  0  0  -0.801134  0  2.046868  0  0  -0.558952  -0.76152  0  2.100951  0
O  O80  1  0.84423268  0.24016374  0.34795371  1  0  -0.680617  0  2.051946  0  0  -0.601013  0  2.294019  0  0  -0.633593  0  2.284881  0  0  -0.322274  -0.578248  0  2.299613  0
O  O81  1  0.15576840  0.75983320  0.65203555  1  0  -0.680684  0  2.051915  0  0  -0.601007  0  2.293923  0  0  -0.633595  0  2.284815  0  0  -0.322334  -0.578251  0  2.299537  0
O  O82  1  0.05300307  0.15265508  0.03593950  1  0  -0.687391  0  2.018637  0  0  -0.607697  0  2.261381  0  0  -0.639611  0  2.250783  0  0  -0.332916  -0.585275  0  2.268096  0
O  O83  1  0.94700150  0.84734462  0.96406115  1  0  -0.687306  0  2.018773  0  0  -0.607625  0  2.261494  0  0  -0.639537  0  2.250895  0  0  -0.332887  -0.585205  0  2.268211  0
O  O84  1  0.20242115  0.10795610  0.19594589  1  0  -0.625045  0  1.945507  0  0  -0.56983  0  2.177493  0  0  -0.595519  0  2.167274  0  0  -0.318801  -0.551649  0  2.18389  0
O  O85  1  0.79758117  0.89204596  0.80405670  1  0  -0.625044  0  1.945441  0  0  -0.569845  0  2.177405  0  0  -0.595537  0  2.167191  0  0  -0.318843  -0.551659  0  2.183797  0
