# generated using pymatgen
data_CuH10C7N5ClO5
_symmetry_space_group_name_H-M   'P 1'
_cell_length_a   6.57269284
_cell_length_b   9.03037068
_cell_length_c   10.97583078
_cell_angle_alpha   104.61352658
_cell_angle_beta   103.30976562
_cell_angle_gamma   103.56283702
_symmetry_Int_Tables_number   1
_chemical_formula_structural   CuH10C7N5ClO5
_chemical_formula_sum   'Cu2 H20 C14 N10 Cl2 O10'
_cell_volume   583.08521469
_cell_formula_units_Z   2
loop_
 _symmetry_equiv_pos_site_id
 _symmetry_equiv_pos_as_xyz
  1  'x, y, z'
loop_
 _atom_site_type_symbol
 _atom_site_label
 _atom_site_symmetry_multiplicity
 _atom_site_fract_x
 _atom_site_fract_y
 _atom_site_fract_z
 _atom_site_occupancy
 _atom_site_hle17_ddec_charge
 _atom_site_hle17_ddec_spin_density
 _atom_site_hle17_ddec_sum_bond_order
 _atom_site_hle17_magmom
 _atom_site_hse06_10hf_ddec_charge
 _atom_site_hse06_10hf_ddec_spin_density
 _atom_site_hse06_10hf_ddec_sum_bond_order
 _atom_site_hse06_10hf_magmom
 _atom_site_hse06_ddec_charge
 _atom_site_hse06_ddec_spin_density
 _atom_site_hse06_ddec_sum_bond_order
 _atom_site_hse06_magmom
 _atom_site_pbe_cm5_charge
 _atom_site_pbe_ddec_charge
 _atom_site_pbe_ddec_spin_density
 _atom_site_pbe_ddec_sum_bond_order
 _atom_site_pbe_magmom
Cu  Cu0  1  0.19942376  0.66077798  0.22368293  1  0.836236  -0.626608  1.770574  -0.453  0.820506  -0.730055  2.165083  -0.573  0.917259  -0.810699  2.08955  -0.675  0.639924  0.764034  -0.674966  2.219911  -0.511
Cu  Cu1  1  0.80057806  0.33921921  0.77631631  1  0.836243  -0.626561  1.770432  -0.453  0.82049  -0.730042  2.165012  -0.573  0.917282  -0.810676  2.089374  -0.675  0.639891  0.763992  -0.67497  2.21982  -0.511
H  H2  1  0.55370483  0.60274737  0.61571521  1  0.141915  -2.2e-05  0.955665  0.0  0.159715  2e-05  1.013903  0.0  0.162623  1e-06  1.01159  0.0  0.116275  0.157568  2.5e-05  1.015648  0.0
H  H3  1  0.44629050  0.39725326  0.38428657  1  0.141904  -1.8e-05  0.955673  0.0  0.15971  2e-05  1.013909  0.0  0.162631  1e-06  1.011577  0.0  0.116269  0.157563  2.5e-05  1.015653  0.0
H  H4  1  0.45412848  0.57741798  0.74877939  1  0.103754  0.000208  0.935493  0.0  0.121817  0.000161  1.000856  0.0  0.122059  0.000158  1.000655  0.0  0.108466  0.121269  0.000156  1.001571  0.0
H  H5  1  0.54585713  0.42257786  0.25121803  1  0.103755  0.000203  0.935448  0.0  0.12182  0.000161  1.000812  0.0  0.122059  0.000158  1.000617  0.0  0.108446  0.121272  0.000156  1.001522  0.0
H  H6  1  0.63693156  0.76893012  0.76477088  1  0.110728  -0.00015  0.94207  0.0  0.12598  -0.000198  1.012458  0.0  0.126621  -0.000161  1.012133  0.0  0.106439  0.125345  -0.000223  1.01292  0.0
H  H7  1  0.36306790  0.23107294  0.23523206  1  0.110754  -0.000151  0.942114  0.0  0.126006  -0.000198  1.012492  0.0  0.126645  -0.000162  1.012172  0.0  0.106437  0.125373  -0.000223  1.012952  0.0
H  H8  1  0.73121022  0.92553424  0.58349843  1  0.331131  -0.000134  0.917875  -0.001  0.311502  -0.000208  0.983744  0.0  0.319533  -7.8e-05  0.977046  0.0  0.282204  0.305911  -0.000299  0.98844  0.0
H  H9  1  0.26879404  0.07446445  0.41649422  1  0.33103  -0.000136  0.917874  -0.001  0.311413  -0.000208  0.983737  0.0  0.319447  -7.8e-05  0.977034  0.0  0.282112  0.305824  -0.0003  0.988434  0.0
H  H10  1  0.72159475  0.84796138  0.41615407  1  0.330266  -0.000652  0.9272  0.0  0.300612  -0.000589  1.010929  0.0  0.309305  -0.000226  1.003994  0.0  0.295022  0.294449  -0.000994  1.01586  0.0
H  H11  1  0.27841547  0.15204078  0.58384481  1  0.330315  -0.000641  0.927145  0.0  0.300637  -0.000589  1.010899  0.0  0.309332  -0.000228  1.003959  0.0  0.295016  0.294473  -0.000994  1.015825  0.0
H  H12  1  0.41488474  0.76910084  0.88522986  1  0.303457  7e-06  0.869477  0.0  0.292443  -1.1e-05  0.919503  0.0  0.298202  -1e-05  0.91623  0.0  0.331026  0.288381  -6.3e-05  0.921816  0.0
H  H13  1  0.58510745  0.23089610  0.11477244  1  0.303345  9e-06  0.869487  0.0  0.29228  -1.1e-05  0.919581  0.0  0.298034  -1e-05  0.916313  0.0  0.330965  0.288221  -6.3e-05  0.921889  0.0
H  H14  1  0.08557787  0.93676978  0.92175130  1  0.11638  -0.000436  0.919899  -0.001  0.128199  -0.000481  0.981599  -0.001  0.131165  -0.000346  0.978981  0.0  0.120751  0.126034  -0.000693  0.983455  -0.001
H  H15  1  0.91441235  0.06322969  0.07824762  1  0.11635  -0.000437  0.919978  -0.001  0.12818  -0.000481  0.981694  -0.001  0.13114  -0.000346  0.979075  0.0  0.120738  0.126018  -0.000693  0.98354  -0.001
H  H16  1  0.26595893  0.88878082  0.04389382  1  0.109028  0.000531  0.952363  0.0  0.116447  0.000252  1.024001  0.0  0.118583  0.000261  1.022892  0.0  0.10607  0.114696  0.000196  1.025261  0.0
H  H17  1  0.73403833  0.11122092  0.95611123  1  0.109041  0.00053  0.952418  0.0  0.116473  0.000252  1.02405  0.0  0.118603  0.000261  1.022936  0.0  0.106077  0.114721  0.000197  1.025307  0.0
H  H18  1  0.31988767  0.48159109  0.06465577  1  0.414939  -0.000157  0.89772  0.001  0.383773  -0.000641  0.962555  0.0  0.397054  -0.000339  0.943685  0.0  0.283593  0.374625  -0.000902  0.975575  0.0
H  H19  1  0.68011048  0.51840483  0.93534354  1  0.414992  -0.000156  0.897656  0.001  0.383813  -0.000641  0.962512  0.0  0.397094  -0.000339  0.94364  0.0  0.283606  0.374666  -0.000902  0.97553  0.0
H  H20  1  0.53819154  0.64179633  0.14452212  1  0.42706  0.000196  0.855782  0.0  0.402847  -0.00055  0.914416  0.0  0.415928  -0.000279  0.895544  0.0  0.30216  0.393867  -0.000836  0.927424  0.0
H  H21  1  0.46180871  0.35819717  0.85547787  1  0.427031  0.000195  0.855812  0.0  0.402792  -0.00055  0.91449  0.0  0.415875  -0.000279  0.895619  0.0  0.302124  0.39381  -0.000836  0.927496  0.0
C  C22  1  0.21085976  0.78656995  0.72350197  1  0.567353  -0.000691  3.802301  0.0  0.504271  -0.00073  4.096211  0.0  0.536761  -0.000503  4.098821  0.0  0.364479  0.482652  -0.000886  4.093353  0.0
C  C23  1  0.78913478  0.21343209  0.27649454  1  0.567278  -0.000694  3.802357  0.0  0.504355  -0.000729  4.096092  0.0  0.536841  -0.000503  4.098699  0.0  0.364446  0.482738  -0.000886  4.093244  0.0
C  C24  1  0.95705805  0.81121715  0.55220585  1  0.515732  -0.004102  3.81775  -0.006  0.477159  -0.002545  4.093424  -0.004  0.506122  -0.001812  4.097675  -0.003  0.262369  0.457815  -0.003086  4.09052  -0.004
C  C25  1  0.04295089  0.18879336  0.44779563  1  0.515684  -0.00411  3.817706  -0.006  0.477276  -0.002543  4.093186  -0.004  0.50623  -0.00181  4.09743  -0.003  0.262396  0.457937  -0.003084  4.090303  -0.004
C  C26  1  0.05703217  0.73800537  0.45815434  1  -0.143729  0.012278  3.702076  0.001  -0.152227  -0.001231  3.977686  -0.006  -0.173151  0.003536  4.004632  -0.001  0.077823  -0.139867  -0.004936  3.961638  -0.01
C  C27  1  0.94297661  0.26199321  0.54184261  1  -0.14382  0.012308  3.701736  0.001  -0.152419  -0.001236  3.977478  -0.006  -0.173314  0.003537  4.004392  -0.001  0.077757  -0.140085  -0.004937  3.961452  -0.01
C  C28  1  0.24541975  0.68633905  0.50608811  1  0.496448  0.001741  3.846204  0.0  0.445098  0.000543  4.139103  0.0  0.47657  0.000396  4.141921  0.0  0.23688  0.424196  0.000554  4.136706  0.0
C  C29  1  0.75457254  0.31366978  0.49391962  1  0.49686  0.001738  3.845998  0.0  0.445429  0.000543  4.139049  0.0  0.476887  0.000397  4.141864  0.0  0.236972  0.424528  0.000555  4.136663  0.0
C  C30  1  0.50154919  0.66261333  0.69686010  1  -0.162426  6.7e-05  3.608811  0.0  -0.265999  -7.4e-05  3.863661  0.0  -0.261014  -4.6e-05  3.870149  0.0  -0.141097  -0.269015  -0.000155  3.859484  0.0
C  C31  1  0.49844000  0.33738370  0.30313904  1  -0.162457  7.2e-05  3.608789  0.0  -0.266022  -7.4e-05  3.863621  0.0  -0.26104  -4.6e-05  3.870084  0.0  -0.141112  -0.269044  -0.000156  3.859471  0.0
C  C32  1  0.16081460  0.84509719  0.94033086  1  -0.104902  -0.00802  3.628243  -0.009  -0.16556  -0.005097  3.883545  -0.006  -0.165803  -0.003688  3.890185  -0.004  -0.058048  -0.165155  -0.006109  3.87912  -0.006
C  C33  1  0.83918445  0.15490474  0.05966995  1  -0.104932  -0.008017  3.628412  -0.009  -0.165632  -0.005096  3.883735  -0.006  -0.165864  -0.003687  3.890356  -0.004  -0.058055  -0.165214  -0.006109  3.879296  -0.006
C  C34  1  0.98037674  0.68912332  0.91874398  1  0.668807  0.003507  3.838677  0.003  0.626722  -0.000296  4.147196  -0.001  0.660927  0.0004  4.142649  0.0  0.211506  0.603486  -0.001019  4.150606  -0.001
C  C35  1  0.01961911  0.31087121  0.08125924  1  0.668852  0.003503  3.838644  0.003  0.626773  -0.000295  4.147175  -0.001  0.660976  0.0004  4.142614  0.0  0.211538  0.603532  -0.00102  4.1506  -0.001
N  N36  1  0.31301435  0.71060375  0.64147007  1  -0.239958  -0.001993  3.424328  -0.001  -0.149601  -0.001647  3.655842  -0.001  -0.173296  -0.00135  3.672116  -0.001  -0.248825  -0.1335  -0.001891  3.644182  -0.001
N  N37  1  0.68698783  0.28940551  0.35853012  1  -0.240133  -0.001992  3.424109  -0.001  -0.149772  -0.001646  3.655606  -0.001  -0.173469  -0.001349  3.671885  -0.001  -0.248826  -0.133671  -0.001891  3.643949  -0.001
N  N38  1  0.03628794  0.83102766  0.68115679  1  -0.524789  -0.004123  2.99749  -0.005  -0.496324  -0.002429  3.286601  -0.003  -0.52261  -0.001212  3.293097  -0.002  -0.340411  -0.478678  -0.003649  3.281552  -0.004
N  N39  1  0.96371862  0.16897690  0.31884117  1  -0.524773  -0.004123  2.997106  -0.005  -0.496459  -0.00243  3.286189  -0.003  -0.522748  -0.001213  3.292691  -0.002  -0.340428  -0.478808  -0.003649  3.281147  -0.004
N  N40  1  0.79015577  0.86456335  0.51392991  1  -0.58618  0.007118  3.153971  0.005  -0.547011  0.002036  3.391056  0.001  -0.568966  0.003069  3.388101  0.002  -0.537905  -0.532348  0.000909  3.392867  0.0
N  N41  1  0.20984399  0.13544360  0.48606666  1  -0.586197  0.007116  3.153958  0.005  -0.547051  0.002034  3.390987  0.001  -0.569012  0.003071  3.388041  0.002  -0.537861  -0.532383  0.000908  3.392792  0.0
N  N42  1  0.99546420  0.71646027  0.32773410  1  0.059821  -0.108064  3.401242  -0.13  0.072205  -0.075879  3.734062  -0.099  0.068652  -0.057169  3.752249  -0.082  -0.183263  0.071831  -0.087128  3.723092  -0.106
N  N43  1  0.00454450  0.28354190  0.67226364  1  0.059907  -0.108088  3.401327  -0.13  0.072275  -0.075881  3.734167  -0.099  0.068707  -0.057173  3.752356  -0.082  -0.183273  0.071921  -0.087124  3.723151  -0.106
N  N44  1  0.29487265  0.81663345  0.85421734  1  -0.363502  0.003094  3.284747  0.003  -0.30664  0.000571  3.52878  0.001  -0.327533  0.000586  3.537615  0.001  -0.4021  -0.292709  0.000557  3.522194  0.001
N  N45  1  0.70512844  0.18336235  0.14578603  1  -0.363255  0.003094  3.284769  0.003  -0.30637  0.00057  3.528773  0.001  -0.327255  0.000587  3.537598  0.001  -0.401976  -0.292441  0.000556  3.522184  0.001
Cl  Cl46  1  0.40387039  0.92150147  0.29186096  1  -0.533402  -0.085979  1.004486  -0.104  -0.513028  -0.058682  1.286449  -0.076  -0.535377  -0.046695  1.261636  -0.067  -0.282178  -0.500047  -0.063329  1.305821  -0.076
Cl  Cl47  1  0.59612841  0.07849944  0.70813502  1  -0.533432  -0.085971  1.004458  -0.104  -0.513041  -0.058678  1.28644  -0.076  -0.535392  -0.046693  1.261605  -0.067  -0.282188  -0.500069  -0.063328  1.305805  -0.076
O  O48  1  0.82691892  0.74804223  0.27323494  1  -0.313618  -0.087976  1.887202  -0.109  -0.289664  -0.044192  2.127436  -0.06  -0.316652  -0.021375  2.134898  -0.032  -0.127592  -0.269051  -0.064714  2.12139  -0.082
O  O49  1  0.17308423  0.25195761  0.72675871  1  -0.313664  -0.088017  1.887379  -0.109  -0.289655  -0.044198  2.127559  -0.06  -0.316648  -0.021383  2.135035  -0.032  -0.127545  -0.269037  -0.064712  2.121482  -0.082
O  O50  1  0.34059955  0.62227723  0.43258455  1  -0.525257  0.00821  2.039064  0.006  -0.494668  0.003866  2.289616  0.002  -0.521699  0.004493  2.283477  0.003  -0.280762  -0.476801  0.003246  2.294204  0.002
O  O51  1  0.65942075  0.37772267  0.56741351  1  -0.525352  0.008211  2.039559  0.006  -0.494746  0.003863  2.29022  0.002  -0.521775  0.004491  2.284076  0.003  -0.280781  -0.476882  0.003243  2.29481  0.002
O  O52  1  0.83179144  0.69911428  0.97259326  1  -0.619471  0.002149  1.941982  0.001  -0.575713  0.001702  2.169329  0.001  -0.600019  0.002224  2.158475  0.001  -0.320962  -0.559593  0.000886  2.1769  0.0
O  O53  1  0.16820196  0.30088157  0.02740623  1  -0.619455  0.002153  1.941898  0.001  -0.5757  0.001702  2.169222  0.001  -0.600007  0.002225  2.158367  0.001  -0.320952  -0.559575  0.000886  2.176796  0.0
O  O54  1  0.00126991  0.56120608  0.84688278  1  -0.610603  -0.063485  2.099799  -0.084  -0.577266  -0.045039  2.387577  -0.065  -0.616229  -0.036148  2.378026  -0.058  -0.339933  -0.552624  -0.049635  2.395647  -0.067
O  O55  1  0.99873781  0.43879086  0.15312458  1  -0.610638  -0.063488  2.099836  -0.084  -0.577318  -0.045041  2.387622  -0.065  -0.616276  -0.036147  2.378086  -0.058  -0.339947  -0.55268  -0.049635  2.395712  -0.067
O  O56  1  0.37875444  0.60464990  0.10040433  1  -0.805204  -0.046524  1.958257  -0.06  -0.755562  -0.038578  2.159922  -0.053  -0.784989  -0.032998  2.119417  -0.05  -0.581892  -0.736737  -0.041013  2.188898  -0.053
O  O57  1  0.62124679  0.39534601  0.89959636  1  -0.805245  -0.046519  1.958201  -0.06  -0.755568  -0.038576  2.159903  -0.053  -0.785008  -0.032998  2.119387  -0.05  -0.581865  -0.736737  -0.041015  2.188877  -0.053
