# generated using pymatgen
data_ZnH16C20N9O4
_symmetry_space_group_name_H-M   'P 1'
_cell_length_a   10.23272133
_cell_length_b   10.99177019
_cell_length_c   12.26017798
_cell_angle_alpha   70.24269182
_cell_angle_beta   77.58965937
_cell_angle_gamma   80.99411296
_symmetry_Int_Tables_number   1
_chemical_formula_structural   ZnH16C20N9O4
_chemical_formula_sum   'Zn2 H32 C40 N18 O8'
_cell_volume   1262.18139776
_cell_formula_units_Z   2
loop_
 _symmetry_equiv_pos_site_id
 _symmetry_equiv_pos_as_xyz
  1  'x, y, z'
loop_
 _atom_site_type_symbol
 _atom_site_label
 _atom_site_symmetry_multiplicity
 _atom_site_fract_x
 _atom_site_fract_y
 _atom_site_fract_z
 _atom_site_occupancy
 _atom_site_hle17_bader_spin_density
 _atom_site_hle17_ddec_charge
 _atom_site_hle17_ddec_spin_density
 _atom_site_hle17_ddec_sum_bond_order
 _atom_site_hle17_magmom
 _atom_site_hse06_10hf_bader_spin_density
 _atom_site_hse06_10hf_ddec_charge
 _atom_site_hse06_10hf_ddec_spin_density
 _atom_site_hse06_10hf_ddec_sum_bond_order
 _atom_site_hse06_10hf_magmom
 _atom_site_hse06_bader_spin_density
 _atom_site_hse06_ddec_charge
 _atom_site_hse06_ddec_spin_density
 _atom_site_hse06_ddec_sum_bond_order
 _atom_site_hse06_magmom
 _atom_site_pbe_bader_spin_density
 _atom_site_pbe_cm5_charge
 _atom_site_pbe_ddec_charge
 _atom_site_pbe_ddec_spin_density
 _atom_site_pbe_ddec_sum_bond_order
 _atom_site_pbe_magmom
Zn  Zn0  1  0.49515365  0.80805534  0.43242196  1  0  1.001104  0  1.890194  0  0  0.811451  0  2.370476  0  0  0.857477  0  2.316909  0  0  0.692954  0.775413  0  2.411253  0
Zn  Zn1  1  0.50484989  0.19194424  0.56757846  1  0  1.001117  0  1.890117  0  0  0.811423  0  2.370396  0  0  0.857451  0  2.31683  0  0  0.692936  0.775383  0  2.411168  0
H  H2  1  0.74969688  0.27229830  0.11184398  1  0  0.078485  0  0.9457  0  0  0.091341  0  1.011703  0  0  0.091566  0  1.010681  0  0  0.114457  0.091079  0  1.011847  0
H  H3  1  0.25030274  0.72770033  0.88815823  1  0  0.078482  0  0.945695  0  0  0.091339  0  1.011697  0  0  0.091555  0  1.010683  0  0  0.11446  0.091076  0  1.011842  0
H  H4  1  0.65251147  0.30838083  0.23532201  1  0  0.10801  0  0.952996  0  0  0.114331  0  1.02937  0  0  0.116646  0  1.025892  0  0  0.123575  0.112547  0  1.03136  0
H  H5  1  0.34749031  0.69161585  0.76468124  1  0  0.10797  0  0.952982  0  0  0.114318  0  1.029328  0  0  0.116632  0  1.025845  0  0  0.123565  0.112533  0  1.031318  0
H  H6  1  0.62465357  0.07663240  0.36963067  1  0  0.128741  0  0.957864  0  0  0.135635  0  1.02251  0  0  0.138838  0  1.01794  0  0  0.146493  0.132818  0  1.026052  0
H  H7  1  0.37534188  0.92336819  0.63037084  1  0  0.128725  0  0.957844  0  0  0.135623  0  1.02249  0  0  0.138829  0  1.017914  0  0  0.146484  0.132785  0  1.026074  0
H  H8  1  0.42643392  0.95876585  0.15888703  1  0  0.105851  0  0.903791  0  0  0.11936  0  0.954622  0  0  0.121329  0  0.952617  0  0  0.145232  0.117715  0  0.956318  0
H  H9  1  0.57356646  0.04123568  0.84111253  1  0  0.105915  0  0.90371  0  0  0.119377  0  0.954582  0  0  0.121347  0  0.952577  0  0  0.14523  0.117734  0  0.956278  0
H  H10  1  0.31034878  0.45748943  0.27785556  1  0  0.103764  0  0.929157  0  0  0.113636  0  0.997009  0  0  0.115379  0  0.994426  0  0  0.122905  0.112312  0  0.998161  0
H  H11  1  0.68964974  0.54251017  0.72214736  1  0  0.103768  0  0.929169  0  0  0.113616  0  0.99705  0  0  0.115357  0  0.994473  0  0  0.122894  0.112296  0  0.998204  0
H  H12  1  0.43936617  0.33232005  0.30048084  1  0  0.109936  0  0.965418  0  0  0.119472  0  1.032171  0  0  0.121379  0  1.029824  0  0  0.119452  0.117954  0  1.03342  0
H  H13  1  0.56063272  0.66767566  0.69952156  1  0  0.10993  0  0.965411  0  0  0.119491  0  1.032127  0  0  0.121392  0  1.029788  0  0  0.11944  0.11798  0  1.033372  0
H  H14  1  0.32141343  0.62023255  0.38082717  1  0  0.124919  0  0.934643  0  0  0.136406  0  0.990267  0  0  0.139131  0  0.986429  0  0  0.149174  0.134089  0  0.992843  0
H  H15  1  0.67858931  0.37976509  0.61917235  1  0  0.124947  0  0.934689  0  0  0.136437  0  0.990302  0  0  0.139163  0  0.986464  0  0  0.149174  0.134122  0  0.992876  0
H  H16  1  0.74093715  0.61978259  0.32947614  1  0  0.118372  0  0.932534  0  0  0.12669  0  0.990772  0  0  0.129089  0  0.988198  0  0  0.141455  0.124868  0  0.992426  0
H  H17  1  0.25906483  0.38021215  0.67052684  1  0  0.118371  0  0.932528  0  0  0.126701  0  0.990753  0  0  0.1291  0  0.988181  0  0  0.141446  0.124878  0  0.99241  0
H  H18  1  0.70147072  0.33804959  0.81636867  1  0  0.086978  0  0.936358  0  0  0.102989  0  0.99636  0  0  0.103579  0  0.995499  0  0  0.11776  0.102691  0  0.997452  0
H  H19  1  0.29852953  0.66195292  0.18363388  1  0  0.086972  0  0.936417  0  0  0.103009  0  0.996433  0  0  0.103598  0  0.995573  0  0  0.117765  0.102706  0  0.997523  0
H  H20  1  0.70709287  0.23471952  0.95964994  1  0  0.091962  0  0.933882  0  0  0.103825  0  0.999713  0  0  0.105206  0  0.998152  0  0  0.119696  0.102617  0  1.001849  0
H  H21  1  0.29290655  0.76528106  0.04035333  1  0  0.091923  0  0.933888  0  0  0.103832  0  0.999707  0  0  0.10521  0  0.998148  0  0  0.119696  0.102619  0  1.001842  0
H  H22  1  0.95212850  0.18849475  0.98876676  1  0  0.094778  0  0.915943  0  0  0.108387  0  0.968507  0  0  0.110771  0  0.965862  0  0  0.138386  0.106655  0  0.970977  0
H  H23  1  0.04786844  0.81150002  0.01123953  1  0  0.094742  0  0.915956  0  0  0.108318  0  0.968559  0  0  0.110699  0  0.96592  0  0  0.138375  0.106611  0  0.971001  0
H  H24  1  0.07531456  0.56095340  0.80585184  1  0  0.085351  0  0.932584  0  0  0.094548  0  0.992659  0  0  0.096068  0  0.991768  0  0  0.127427  0.093489  0  0.993249  0
H  H25  1  0.92469684  0.43903741  0.19414583  1  0  0.085309  0  0.93258  0  0  0.094484  0  0.992684  0  0  0.096001  0  0.991797  0  0  0.127425  0.093426  0  0.993276  0
H  H26  1  0.00614057  0.81164966  0.39911582  1  0  0.110437  0  0.944885  0  0  0.115395  0  1.01123  0  0  0.120715  0  1.005853  0  0  0.102926  0.111542  0  1.015345  0
H  H27  1  0.99385034  0.18835771  0.60087788  1  0  0.110405  0  0.944826  0  0  0.115323  0  1.011232  0  0  0.120644  0  1.005854  0  0  0.102882  0.111474  0  1.015342  0
H  H28  1  0.71148350  0.82907711  0.70284723  1  0  0.090676  0  0.962855  0  0  0.098242  0  1.029801  0  0  0.101079  0  1.02851  0  0  0.099353  0.096273  0  1.030655  0
H  H29  1  0.28852201  0.17092247  0.29715613  1  0  0.090665  0  0.9628  0  0  0.098222  0  1.02977  0  0  0.101056  0  1.028482  0  0  0.099334  0.096252  0  1.030625  0
H  H30  1  0.89138865  0.84408081  0.80409745  1  0  0.089155  0  0.941085  0  0  0.100707  0  0.995856  0  0  0.104277  0  0.994373  0  0  0.100861  0.098273  0  0.996918  0
H  H31  1  0.10862363  0.15591098  0.19590222  1  0  0.089169  0  0.94107  0  0  0.10071  0  0.995857  0  0  0.104281  0  0.994373  0  0  0.100811  0.098273  0  0.996918  0
H  H32  1  0.13049296  0.84380348  0.70080743  1  0  0.08438  0  0.961187  0  0  0.093978  0  1.026269  0  0  0.097004  0  1.024274  0  0  0.097106  0.091807  0  1.027664  0
H  H33  1  0.86951617  0.15619120  0.29918293  1  0  0.084447  0  0.961168  0  0  0.094063  0  1.026209  0  0  0.0971  0  1.024202  0  0  0.097141  0.091896  0  1.027601  0
C  C34  1  0.56857747  0.39605712  0.07520352  1  0  0.022381  0  3.67248  0  0  0.02361  0  3.92645  0  0  0.022704  0  3.947843  0  0  0.002325  0.024216  0  3.910919  0
C  C35  1  0.43142503  0.60394247  0.92480034  1  0  0.02237  0  3.672495  0  0  0.023694  0  3.926297  0  0  0.022787  0  3.947685  0  0  0.002333  0.024298  0  3.910768  0
C  C36  1  0.46160331  0.47058550  0.12245360  1  0  0.022887  0  3.667104  0  0  0.024194  0  3.919983  0  0  0.023218  0  3.941662  0  0  0.002969  0.025132  0  3.904119  0
C  C37  1  0.53839820  0.52941410  0.87754962  1  0  0.022898  0  3.667121  0  0  0.024219  0  3.919931  0  0  0.023244  0  3.941609  0  0  0.002961  0.025158  0  3.904071  0
C  C38  1  0.60584016  0.42381180  0.95277956  1  0  0.018755  0  3.661151  0  0  0.020241  0  3.9143  0  0  0.019043  0  3.937541  0  0  0.002875  0.020568  0  3.900497  0
C  C39  1  0.39416235  0.57618779  0.04722349  1  0  0.018666  0  3.661114  0  0  0.02018  0  3.914265  0  0  0.018982  0  3.937506  0  0  0.002813  0.020505  0  3.900458  0
C  C40  1  0.64592550  0.28673749  0.15578393  1  0  -0.061006  0  3.648591  0  0  -0.139445  0  3.900641  0  0  -0.126237  0  3.912965  0  0  -0.044358  -0.142151  0  3.89392  0
C  C41  1  0.35407602  0.71326211  0.84421847  1  0  -0.060954  0  3.648471  0  0  -0.139474  0  3.900502  0  0  -0.126239  0  3.912831  0  0  -0.044364  -0.14218  0  3.893783  0
C  C42  1  0.58167409  0.07039385  0.29807382  1  0  0.199544  0  3.591515  0  0  0.119206  0  3.854905  0  0  0.144335  0  3.867164  0  0  0.173618  0.108663  0  3.849129  0
C  C43  1  0.41832228  0.92960769  0.70192643  1  0  0.199551  0  3.591476  0  0  0.119173  0  3.854862  0  0  0.144317  0  3.867125  0  0  0.173582  0.108634  0  3.849094  0
C  C44  1  0.48267653  0.01460837  0.18762914  1  0  0.211938  0  3.709487  0  0  0.157539  0  3.997565  0  0  0.16987  0  4.006778  0  0  0.156316  0.149715  0  3.989132  0
C  C45  1  0.51732283  0.98539317  0.81237141  1  0  0.211834  0  3.70944  0  0  0.157464  0  3.997532  0  0  0.169795  0  4.006739  0  0  0.156288  0.14964  0  3.989099  0
C  C46  1  0.41904044  0.43592752  0.25436870  1  0  -0.074818  0  3.64505  0  0  -0.151062  0  3.893908  0  0  -0.13886  0  3.906464  0  0  -0.047161  -0.153076  0  3.88709  0
C  C47  1  0.58095926  0.56407014  0.74563460  1  0  -0.074846  0  3.644935  0  0  -0.151095  0  3.893828  0  0  -0.138903  0  3.906375  0  0  -0.047135  -0.15312  0  3.887021  0
C  C48  1  0.42845168  0.59547167  0.35863721  1  0  0.167493  0  3.645422  0  0  0.088961  0  3.90914  0  0  0.112618  0  3.924404  0  0  0.163813  0.079652  0  3.900751  0
C  C49  1  0.57154995  0.40452695  0.64136384  1  0  0.167405  0  3.645564  0  0  0.088886  0  3.90928  0  0  0.11253  0  3.924538  0  0  0.163804  0.079578  0  3.900889  0
C  C50  1  0.64289161  0.59307399  0.33043890  1  0  0.207036  0  3.675653  0  0  0.15356  0  3.961076  0  0  0.165645  0  3.970367  0  0  0.154385  0.14626  0  3.952014  0
C  C51  1  0.35710927  0.40692173  0.66956398  1  0  0.207043  0  3.675519  0  0  0.153549  0  3.960948  0  0  0.165633  0  3.97024  0  0  0.154431  0.146249  0  3.951885  0
C  C52  1  0.71433355  0.33586014  0.90343880  1  0  -0.049318  0  3.660533  0  0  -0.121167  0  3.920017  0  0  -0.115415  0  3.929268  0  0  -0.042078  -0.131806  0  3.911947  0
C  C53  1  0.28566997  0.66413945  0.09656326  1  0  -0.049162  0  3.660446  0  0  -0.121164  0  3.9201  0  0  -0.115404  0  3.929337  0  0  -0.042048  -0.131786  0  3.911996  0
C  C54  1  0.95666611  0.29068836  0.93825004  1  0  0.131885  0  3.729527  0  0  0.073291  0  4.003961  0  0  0.085406  0  4.016217  0  0  0.142656  0.058516  0  3.992621  0
C  C55  1  0.04333193  0.70930542  0.06175554  1  0  0.132017  0  3.729348  0  0  0.073461  0  4.003775  0  0  0.085576  0  4.016033  0  0  0.142728  0.058664  0  3.992435  0
C  C56  1  0.01505865  0.47882801  0.84509106  1  0  0.193495  0  3.736291  0  0  0.150114  0  4.026595  0  0  0.159652  0  4.039968  0  0  0.135774  0.143325  0  4.019434  0
C  C57  1  0.98494855  0.52116476  0.15490754  1  0  0.193602  0  3.736262  0  0  0.150237  0  4.026566  0  0  0.159775  0  4.039939  0  0  0.135735  0.143446  0  4.019409  0
C  C58  1  0.08340939  0.82656799  0.54396138  1  0  -0.075314  0  3.780008  0  0  -0.048651  0  4.009879  0  0  -0.059411  0  4.036193  0  0  -0.022281  -0.041805  0  3.992974  0
C  C59  1  0.91658773  0.17343741  0.45602940  1  0  -0.075417  0  3.780183  0  0  -0.048753  0  4.01007  0  0  -0.059513  0  4.036389  0  0  -0.0223  -0.041891  0  3.99314  0
C  C60  1  0.98136370  0.81853310  0.48791143  1  0  -0.060057  0  3.704913  0  0  -0.093936  0  3.945817  0  0  -0.091656  0  3.965801  0  0  -0.074627  -0.095774  0  3.933554  0
C  C61  1  0.01862612  0.18147525  0.51208215  1  0  -0.060038  0  3.704792  0  0  -0.093907  0  3.94574  0  0  -0.091631  0  3.965727  0  0  -0.074607  -0.095752  0  3.933476  0
C  C62  1  0.84743228  0.81909397  0.54472232  1  0  -0.078847  0  3.771045  0  0  -0.052867  0  4.003337  0  0  -0.063243  0  4.028148  0  0  -0.02366  -0.046195  0  3.987283  0
C  C63  1  0.15256338  0.18091535  0.45527569  1  0  -0.078813  0  3.770745  0  0  -0.052822  0  4.00304  0  0  -0.063194  0  4.027851  0  0  -0.023705  -0.046154  0  3.986988  0
C  C64  1  0.81573366  0.82864381  0.65874405  1  0  -0.034512  0  3.699573  0  0  -0.064405  0  3.954305  0  0  -0.060755  0  3.972539  0  0  -0.077325  -0.065709  0  3.941158  0
C  C65  1  0.18427085  0.17135673  0.34125184  1  0  -0.034521  0  3.699331  0  0  -0.064409  0  3.954074  0  0  -0.060755  0  3.972302  0  0  -0.077289  -0.065711  0  3.940924  0
C  C66  1  0.91700744  0.83753298  0.71511045  1  0  -0.073222  0  3.771131  0  0  -0.084473  0  4.026779  0  0  -0.089387  0  4.047367  0  0  -0.088428  -0.081408  0  4.012038  0
C  C67  1  0.08299722  0.16246562  0.28488764  1  0  -0.07321  0  3.771143  0  0  -0.084461  0  4.02679  0  0  -0.089379  0  4.047382  0  0  -0.088433  -0.081393  0  4.012042  0
C  C68  1  0.05042032  0.83647218  0.65804996  1  0  -0.059145  0  3.734492  0  0  -0.085665  0  3.98477  0  0  -0.083387  0  4.004833  0  0  -0.082013  -0.086039  0  3.970442  0
C  C69  1  0.94958508  0.16353029  0.34194030  1  0  -0.059113  0  3.734695  0  0  -0.085644  0  3.984981  0  0  -0.083371  0  4.005041  0  0  -0.081945  -0.086019  0  3.970645  0
C  C70  1  0.22536990  0.82215174  0.48065788  1  0  0.635847  0  3.923084  0  0  0.589165  0  4.211168  0  0  0.622679  0  4.205728  0  0  0.197633  0.565924  0  4.214615  0
C  C71  1  0.77462672  0.17785948  0.51932877  1  0  0.635902  0  3.922922  0  0  0.5892  0  4.211039  0  0  0.622711  0  4.205601  0  0  0.19767  0.565952  0  4.214481  0
C  C72  1  0.74213316  0.80834820  0.48118803  1  0  0.627015  0  3.931379  0  0  0.581792  0  4.217499  0  0  0.614893  0  4.212245  0  0  0.193587  0.558902  0  4.220771  0
C  C73  1  0.25786048  0.19166017  0.51881958  1  0  0.626821  0  3.931637  0  0  0.581606  0  4.217772  0  0  0.614706  0  4.212523  0  0  0.193523  0.558716  0  4.221041  0
N  N74  1  0.51742160  0.97425138  0.29668728  1  0  -0.396935  0  3.276096  0  0  -0.317569  0  3.584661  0  0  -0.339245  0  3.590218  0  0  -0.345524  -0.302124  0  3.578082  0
N  N75  1  0.48257476  0.02575017  0.70331378  1  0  -0.396961  0  3.276078  0  0  -0.317561  0  3.584618  0  0  -0.339239  0  3.590174  0  0  -0.345461  -0.30211  0  3.57803  0
N  N76  1  0.58437286  0.16398995  0.19385862  1  0  0.04007  0  3.540411  0  0  0.159681  0  3.730575  0  0  0.120507  0  3.789493  0  0  -0.134699  0.167263  0  3.714113  0
N  N77  1  0.41562650  0.83601159  0.80614193  1  0  0.040069  0  3.540495  0  0  0.159776  0  3.730566  0  0  0.12055  0  3.789549  0  0  -0.13467  0.167359  0  3.714103  0
N  N78  1  0.52250418  0.13008120  0.12134301  1  0  -0.28631  0  2.850234  0  0  -0.287286  0  3.112669  0  0  -0.286443  0  3.131123  0  0  -0.228807  -0.281975  0  3.103978  0
N  N79  1  0.47749539  0.86991840  0.87865646  1  0  -0.28623  0  2.850355  0  0  -0.28724  0  3.112788  0  0  -0.286379  0  3.131251  0  0  -0.228778  -0.281927  0  3.104095  0
N  N80  1  0.52573535  0.65045301  0.37760316  1  0  -0.410124  0  3.272857  0  0  -0.332146  0  3.587369  0  0  -0.353616  0  3.592938  0  0  -0.350755  -0.316789  0  3.580704  0
N  N81  1  0.47426636  0.34954465  0.62239898  1  0  -0.410066  0  3.272915  0  0  -0.332095  0  3.587438  0  0  -0.353567  0  3.593014  0  0  -0.350759  -0.316735  0  3.580767  0
N  N82  1  0.48553734  0.50981138  0.30263959  1  0  0.048754  0  3.558634  0  0  0.165871  0  3.750809  0  0  0.127509  0  3.81019  0  0  -0.13174  0.172396  0  3.735371  0
N  N83  1  0.51446244  0.49018531  0.69736481  1  0  0.048788  0  3.558533  0  0  0.165873  0  3.750745  0  0  0.127553  0  3.81008  0  0  -0.131709  0.172393  0  3.735325  0
N  N84  1  0.62220582  0.50669089  0.28381692  1  0  -0.251884  0  2.837939  0  0  -0.248603  0  3.102281  0  0  -0.248409  0  3.121562  0  0  -0.211177  -0.243134  0  3.093254  0
N  N85  1  0.37779206  0.49330483  0.71618647  1  0  -0.25191  0  2.837735  0  0  -0.248613  0  3.102094  0  0  -0.248432  0  3.121365  0  0  -0.211243  -0.243143  0  3.093067  0
N  N86  1  0.06287860  0.35823571  0.90877302  1  0  -0.381793  0  2.965861  0  0  -0.357425  0  3.243698  0  0  -0.369391  0  3.253315  0  0  -0.35191  -0.349215  0  3.238515  0
N  N87  1  0.93712386  0.64175416  0.09122810  1  0  -0.38188  0  2.96575  0  0  -0.357514  0  3.243568  0  0  -0.369479  0  3.253185  0  0  -0.351956  -0.349305  0  3.238398  0
N  N88  1  0.85032207  0.36762151  0.89451100  1  0  0.025722  0  3.585717  0  0  0.118577  0  3.807081  0  0  0.105632  0  3.835046  0  0  -0.144539  0.147808  0  3.762268  0
N  N89  1  0.14968169  0.63237518  0.10549435  1  0  0.025591  0  3.585597  0  0  0.118474  0  3.807005  0  0  0.105531  0  3.834965  0  0  -0.144554  0.147693  0  3.762193  0
N  N90  1  0.88657726  0.48931056  0.83375315  1  0  -0.286131  0  2.85651  0  0  -0.276608  0  3.120202  0  0  -0.284791  0  3.136229  0  0  -0.230119  -0.277772  0  3.105306  0
N  N91  1  0.11342863  0.51068514  0.16624887  1  0  -0.286156  0  2.856555  0  0  -0.276625  0  3.120229  0  0  -0.284809  0  3.136257  0  0  -0.230108  -0.277787  0  3.105336  0
O  O92  1  0.31910173  0.81654767  0.54007176  1  0  -0.662475  0  2.038611  0  0  -0.590695  0  2.310128  0  0  -0.619053  0  2.295514  0  0  -0.340191  -0.569498  0  2.321199  0
O  O93  1  0.68089773  0.18345480  0.45991381  1  0  -0.662649  0  2.038548  0  0  -0.590771  0  2.309988  0  0  -0.619127  0  2.295374  0  0  -0.3403  -0.56962  0  2.321159  0
O  O94  1  0.25102040  0.82091370  0.37615913  1  0  -0.634791  0  1.910844  0  0  -0.590203  0  2.129994  0  0  -0.613242  0  2.121253  0  0  -0.335844  -0.57327  0  2.135102  0
O  O95  1  0.74897432  0.17910723  0.62382570  1  0  -0.634711  0  1.910836  0  0  -0.590104  0  2.12997  0  0  -0.613148  0  2.121239  0  0  -0.335758  -0.573165  0  2.135079  0
O  O96  1  0.77424703  0.79408549  0.38158696  1  0  -0.61852  0  1.898867  0  0  -0.575433  0  2.108585  0  0  -0.597345  0  2.099949  0  0  -0.334956  -0.55947  0  2.113705  0
O  O97  1  0.22573400  0.20591903  0.61841990  1  0  -0.618455  0  1.899157  0  0  -0.575367  0  2.108864  0  0  -0.597277  0  2.10023  0  0  -0.33492  -0.559406  0  2.113981  0
O  O98  1  0.61754999  0.81520201  0.53571161  1  0  -0.670489  0  2.051004  0  0  -0.594571  0  2.322681  0  0  -0.623374  0  2.308862  0  0  -0.342953  -0.573266  0  2.333402  0
O  O99  1  0.38244335  0.18481024  0.46429079  1  0  -0.670358  0  2.050897  0  0  -0.594442  0  2.322589  0  0  -0.623245  0  2.308774  0  0  -0.342905  -0.573131  0  2.333306  0
