# generated using pymatgen
data_ZnH14C16N4O5
_symmetry_space_group_name_H-M   'P 1'
_cell_length_a   8.85065655
_cell_length_b   10.30957779
_cell_length_c   22.07322513
_cell_angle_alpha   89.99977965
_cell_angle_beta   90.00007941
_cell_angle_gamma   102.74242312
_symmetry_Int_Tables_number   1
_chemical_formula_structural   ZnH14C16N4O5
_chemical_formula_sum   'Zn4 H56 C64 N16 O20'
_cell_volume   1964.50085235
_cell_formula_units_Z   4
loop_
 _symmetry_equiv_pos_site_id
 _symmetry_equiv_pos_as_xyz
  1  'x, y, z'
loop_
 _atom_site_type_symbol
 _atom_site_label
 _atom_site_symmetry_multiplicity
 _atom_site_fract_x
 _atom_site_fract_y
 _atom_site_fract_z
 _atom_site_occupancy
 _atom_site_pbe_bader_charge
 _atom_site_pbe_bader_spin_density
 _atom_site_pbe_cm5_charge
 _atom_site_pbe_ddec_charge
 _atom_site_pbe_ddec_spin_density
 _atom_site_pbe_ddec_sum_bond_order
 _atom_site_pbe_magmom
Zn  Zn0  1  0.35231958  0.91120983  0.10158298  1  1.251058  0  0.691621  0.764878  0  2.415011  0
Zn  Zn1  1  0.14768157  0.08879069  0.60158264  1  1.251085  0  0.691628  0.764864  0  2.415019  0
Zn  Zn2  1  0.64768035  0.08879130  0.89841707  1  1.25105  0  0.691616  0.764855  0  2.415027  0
Zn  Zn3  1  0.85231585  0.91120944  0.39841786  1  1.251035  0  0.691624  0.764851  0  2.414991  0
H  H4  1  0.89936417  0.42307434  0.01776936  1  0.645  0  0.318127  0.347749  0  0.940642  0
H  H5  1  0.60063635  0.57692645  0.51776948  1  0.644992  0  0.318116  0.347752  0  0.940649  0
H  H6  1  0.10063576  0.57692680  0.98223160  1  0.644956  0  0.318138  0.34777  0  0.940629  0
H  H7  1  0.39936332  0.42307368  0.48223103  1  0.644965  0  0.318115  0.34773  0  0.940671  0
H  H8  1  0.30180744  0.41825055  0.11271908  1  0.132218  0  0.101517  0.113459  0  1.018132  0
H  H9  1  0.19819460  0.58174890  0.61271924  1  0.132177  0  0.101527  0.113499  0  1.018203  0
H  H10  1  0.69819223  0.58174959  0.88727961  1  0.132202  0  0.101508  0.113456  0  1.018141  0
H  H11  1  0.80180770  0.41824826  0.38727855  1  0.132193  0  0.101502  0.113428  0  1.01816  0
H  H12  1  0.71389809  0.68720261  0.04815385  1  0.093292  0  0.103711  0.116735  0  1.019436  0
H  H13  1  0.78610411  0.31279992  0.54815454  1  0.09334  0  0.103657  0.116648  0  1.019445  0
H  H14  1  0.28610184  0.31279852  0.95184530  1  0.093323  0  0.103664  0.116643  0  1.019391  0
H  H15  1  0.21389418  0.68719922  0.45184551  1  0.093066  0  0.103672  0.116672  0  1.019438  0
H  H16  1  0.69505533  0.26610101  0.05625816  1  0.088711  0  0.099094  0.11204  0  1.052971  0
H  H17  1  0.80494802  0.73390147  0.55625855  1  0.088701  0  0.099102  0.112011  0  1.053017  0
H  H18  1  0.30494963  0.73390212  0.94374189  1  0.08875  0  0.099068  0.112004  0  1.053057  0
H  H19  1  0.19505617  0.26609867  0.44374149  1  0.088669  0  0.099069  0.111986  0  1.053018  0
H  H20  1  0.41106419  0.09543966  0.21838769  1  0.160376  0  0.142363  0.113422  0  0.984585  0
H  H21  1  0.08893400  0.90456093  0.71838766  1  0.160371  0  0.142361  0.113441  0  0.984603  0
H  H22  1  0.58893574  0.90456148  0.78161146  1  0.160396  0  0.142347  0.113401  0  0.984625  0
H  H23  1  0.91106167  0.09544119  0.28161103  1  0.160377  0  0.14236  0.113421  0  0.98459  0
H  H24  1  0.18429381  0.05049980  0.35788382  1  0.119476  0  0.115906  0.110698  0  1.021722  0
H  H25  1  0.31570370  0.94950068  0.85788429  1  0.119492  0  0.115929  0.110719  0  1.021716  0
H  H26  1  0.81570699  0.94950034  0.64211623  1  0.11944  0  0.115914  0.11066  0  1.021758  0
H  H27  1  0.68429309  0.05050145  0.14211440  1  0.11957  0  0.115922  0.110674  0  1.021751  0
H  H28  1  0.35265500  0.14983846  0.32406815  1  0.073024  0  0.122871  0.108469  0  0.943666  0
H  H29  1  0.14734472  0.85016228  0.82406780  1  0.073024  0  0.122883  0.108499  0  0.94364  0
H  H30  1  0.64734653  0.85015571  0.67593417  1  0.072963  0  0.122882  0.108416  0  0.943631  0
H  H31  1  0.85265397  0.14984283  0.17593316  1  0.072972  0  0.122879  0.108422  0  0.943631  0
H  H32  1  0.35581924  0.88862023  0.39063863  1  0.05889  0  0.117049  0.098295  0  0.988668  0
H  H33  1  0.14417505  0.11137601  0.89063871  1  0.058939  0  0.117038  0.098274  0  0.988673  0
H  H34  1  0.64417665  0.11137394  0.60936187  1  0.058973  0  0.117045  0.098251  0  0.988711  0
H  H35  1  0.85582375  0.88862512  0.10936180  1  0.058973  0  0.117042  0.098251  0  0.988656  0
H  H36  1  0.52057428  0.01673108  0.37137359  1  0.112231  0  0.118554  0.118291  0  0.991616  0
H  H37  1  0.97942060  0.98326490  0.87137364  1  0.112133  0  0.118541  0.11831  0  0.991528  0
H  H38  1  0.47942361  0.98326209  0.62862737  1  0.112166  0  0.118545  0.118315  0  0.991521  0
H  H39  1  0.02057845  0.01673723  0.12862687  1  0.112155  0  0.118528  0.118284  0  0.991561  0
H  H40  1  0.58795821  0.22178911  0.43990260  1  0.203231  0  0.126524  0.147342  0  1.030635  0
H  H41  1  0.91203929  0.77820732  0.93990343  1  0.203363  0  0.126481  0.147316  0  1.030591  0
H  H42  1  0.41204056  0.77820307  0.56010017  1  0.203048  0  0.126507  0.147395  0  1.030531  0
H  H43  1  0.08796064  0.22179381  0.06009662  1  0.20341  0  0.126499  0.147357  0  1.030581  0
H  H44  1  0.46413263  0.28063346  0.55145259  1  0.155896  0  0.122597  0.126996  0  1.022015  0
H  H45  1  0.03586429  0.71936448  0.05145401  1  0.155945  0  0.12258  0.126979  0  1.022078  0
H  H46  1  0.53586063  0.71936369  0.44854791  1  0.155873  0  0.122588  0.127002  0  1.022125  0
H  H47  1  0.96413276  0.28063864  0.94854649  1  0.155833  0  0.12258  0.127009  0  1.022066  0
H  H48  1  0.17908895  0.93250605  0.47771101  1  0.182968  0  0.140759  0.120903  0  1.011386  0
H  H49  1  0.32090535  0.06749347  0.97771125  1  0.18304  0  0.140764  0.120909  0  1.011373  0
H  H50  1  0.82090570  0.06749210  0.52228814  1  0.183052  0  0.140767  0.120932  0  1.011341  0
H  H51  1  0.67909370  0.93250865  0.02228880  1  0.183028  0  0.140772  0.120931  0  1.011402  0
H  H52  1  0.11867400  0.79000450  0.31849062  1  0.174172  0  0.123162  0.132609  0  1.039923  0
H  H53  1  0.38132258  0.20999728  0.81849109  1  0.174217  0  0.123183  0.132688  0  1.039893  0
H  H54  1  0.88132819  0.20999663  0.68150943  1  0.174126  0  0.123194  0.132677  0  1.039928  0
H  H55  1  0.61867596  0.79000286  0.18150850  1  0.174182  0  0.123171  0.132676  0  1.039927  0
H  H56  1  0.14358949  0.70548159  0.19821104  1  0.156454  0  0.126651  0.13329  0  0.988478  0
H  H57  1  0.35640778  0.29452015  0.69821090  1  0.156442  0  0.126649  0.133326  0  0.988443  0
H  H58  1  0.85641320  0.29452153  0.80178901  1  0.15642  0  0.126669  0.133347  0  0.988394  0
H  H59  1  0.64359014  0.70548197  0.30178915  1  0.156447  0  0.126649  0.133312  0  0.988475  0
C  C60  1  0.40372793  0.18905108  0.10043927  1  1.545234  0  0.193386  0.556541  0  4.223148  0
C  C61  1  0.09627573  0.81095045  0.60044033  1  1.545192  0  0.193432  0.556643  0  4.223075  0
C  C62  1  0.59627765  0.81095006  0.89955896  1  1.544905  0  0.193454  0.55664  0  4.223089  0
C  C63  1  0.90372821  0.18904869  0.39955972  1  1.545168  0  0.193366  0.556549  0  4.223149  0
C  C64  1  0.42263795  0.67779549  0.09110491  1  1.538647  0  0.194679  0.557541  0  4.206532  0
C  C65  1  0.07736646  0.32220910  0.59110547  1  1.538616  0  0.19472  0.557654  0  4.206406  0
C  C66  1  0.57736475  0.32220763  0.90889560  1  1.538611  0  0.19469  0.557617  0  4.206452  0
C  C67  1  0.92263183  0.67779004  0.40889730  1  1.538624  0  0.194623  0.557567  0  4.206439  0
C  C68  1  0.49087272  0.32810073  0.08700298  1  -0.047687  0  -0.026451  -0.017558  0  4.018734  0
C  C69  1  0.00913067  0.67189991  0.58700333  1  -0.047667  0  -0.026441  -0.01765  0  4.018843  0
C  C70  1  0.50913085  0.67190140  0.91299616  1  -0.047715  0  -0.026412  -0.017549  0  4.018809  0
C  C71  1  0.99087327  0.32809923  0.41299536  1  -0.047633  0  -0.026426  -0.017567  0  4.01879  0
C  C72  1  0.42000297  0.43503947  0.09582759  1  -0.067651  0  -0.09155  -0.137422  0  3.958443  0
C  C73  1  0.08000094  0.56496309  0.59582771  1  -0.067705  0  -0.091537  -0.137408  0  3.958556  0
C  C74  1  0.57999608  0.56496265  0.90417020  1  -0.067545  0  -0.091572  -0.137441  0  3.958637  0
C  C75  1  0.92000300  0.43503606  0.40417007  1  -0.067598  0  -0.091513  -0.137361  0  3.958521  0
C  C76  1  0.50089748  0.56448084  0.08241033  1  -0.048265  0  -0.021286  -0.017016  0  4.017908  0
C  C77  1  0.99910503  0.43552241  0.58241047  1  -0.048215  0  -0.021326  -0.017093  0  4.01802  0
C  C78  1  0.49910270  0.43552128  0.91758881  1  -0.048356  0  -0.021274  -0.017071  0  4.018068  0
C  C79  1  0.00089690  0.56447772  0.41758913  1  -0.048333  0  -0.021286  -0.017051  0  4.017862  0
C  C80  1  0.65207773  0.58694427  0.05993244  1  0.010204  0  -0.096306  -0.207133  0  3.929791  0
C  C81  1  0.84792588  0.41305917  0.55993118  1  0.01014  0  -0.096204  -0.207007  0  3.929765  0
C  C82  1  0.34792610  0.41305885  0.94006670  1  0.01023  0  -0.096238  -0.206989  0  3.929713  0
C  C83  1  0.15207605  0.58694097  0.44006706  1  0.010499  0  -0.09623  -0.207023  0  3.929717  0
C  C84  1  0.72178035  0.47949362  0.05052342  1  0.473861  0  0.076886  0.316331  0  4.093767  0
C  C85  1  0.77821909  0.52050690  0.55052464  1  0.474149  0  0.076882  0.316337  0  4.093756  0
C  C86  1  0.27821870  0.52050850  0.94947527  1  0.473896  0  0.076892  0.316366  0  4.093724  0
C  C87  1  0.22178234  0.47949125  0.44947586  1  0.473906  0  0.076868  0.316326  0  4.093755  0
C  C88  1  0.64205023  0.35039016  0.06428408  1  0.00196  0  -0.103733  -0.231969  0  3.954366  0
C  C89  1  0.85795426  0.64961225  0.56428330  1  0.001763  0  -0.103767  -0.231887  0  3.954389  0
C  C90  1  0.35795108  0.64961197  0.93571552  1  0.001917  0  -0.10374  -0.23199  0  3.954484  0
C  C91  1  0.14205132  0.35038888  0.43571584  1  0.001775  0  -0.103741  -0.231923  0  3.954388  0
C  C92  1  0.33653810  0.99959119  0.22856389  1  0.973313  0  0.145273  0.090817  0  3.923277  0
C  C93  1  0.16345984  0.00040832  0.72856462  1  0.973305  0  0.145241  0.090682  0  3.923316  0
C  C94  1  0.66346182  0.00040994  0.77143525  1  0.973319  0  0.145249  0.090798  0  3.923333  0
C  C95  1  0.83653644  0.99959181  0.27143633  1  0.973329  0  0.145216  0.090736  0  3.923378  0
C  C96  1  0.29744899  0.04814620  0.33794793  1  0.289998  0  -0.044415  -0.088441  0  3.852927  0
C  C97  1  0.20254937  0.95185343  0.83794743  1  0.289998  0  -0.044433  -0.088501  0  3.8529  0
C  C98  1  0.70255331  0.95185095  0.66205257  1  0.29003  0  -0.044436  -0.088267  0  3.852708  0
C  C99  1  0.79744880  0.04814969  0.16205126  1  0.289736  0  -0.044422  -0.088293  0  3.852744  0
C  C100  1  0.39815292  0.99626280  0.38482200  1  0.325529  0  -0.046422  -0.090236  0  3.84298  0
C  C101  1  0.10184299  0.00373547  0.88482179  1  0.325557  0  -0.046429  -0.090338  0  3.842851  0
C  C102  1  0.60184573  0.00373336  0.61517895  1  0.325556  0  -0.046431  -0.090297  0  3.842894  0
C  C103  1  0.89815519  0.99626765  0.11517826  1  0.32543  0  -0.046392  -0.090281  0  3.842866  0
C  C104  1  0.48477230  0.17448573  0.46490802  1  0.262968  0  0.003264  -0.108148  0  3.884821  0
C  C105  1  0.01522373  0.82551191  0.96490855  1  0.262742  0  0.003321  -0.10813  0  3.88472  0
C  C106  1  0.51522334  0.82550745  0.53509384  1  0.262966  0  0.003268  -0.108283  0  3.884882  0
C  C107  1  0.98477444  0.17449121  0.03509195  1  0.262707  0  0.003313  -0.108179  0  3.884896  0
C  C108  1  0.42405089  0.20003904  0.51982610  1  0.359345  0  -0.009984  -0.065952  0  4.03105  0
C  C109  1  0.07594599  0.79995915  0.01982694  1  0.35922  0  -0.010022  -0.066009  0  4.031164  0
C  C110  1  0.57594387  0.79995513  0.48017531  1  0.359411  0  -0.010057  -0.06606  0  4.031315  0
C  C111  1  0.92405219  0.20004397  0.98017356  1  0.35941  0  -0.010028  -0.066072  0  4.031233  0
C  C112  1  0.27301638  0.01906111  0.48434160  1  0.992405  0  0.151719  0.1052  0  3.871311  0
C  C113  1  0.22697767  0.98093736  0.98434197  1  0.991928  0  0.151621  0.105061  0  3.871419  0
C  C114  1  0.72698001  0.98093504  0.51565799  1  0.991724  0  0.151611  0.105071  0  3.871415  0
C  C115  1  0.77301825  0.01906576  0.01565853  1  0.991941  0  0.15162  0.105037  0  3.871387  0
C  C116  1  0.18264435  0.83761548  0.27958237  1  0.263254  0  -0.000925  -0.10837  0  3.901892  0
C  C117  1  0.31735191  0.16238561  0.77958289  1  0.263231  0  -0.000863  -0.10841  0  3.901878  0
C  C118  1  0.81735532  0.16238465  0.72041723  1  0.263301  0  -0.000973  -0.108478  0  3.90193  0
C  C119  1  0.68264714  0.83761651  0.22041625  1  0.263232  0  -0.000898  -0.108405  0  3.9021  0
C  C120  1  0.19434215  0.79845860  0.22061186  1  0.403065  0  0.000216  -0.032165  0  3.986066  0
C  C121  1  0.30565717  0.20154197  0.72061141  1  0.403072  0  0.000189  -0.032241  0  3.986089  0
C  C122  1  0.80565891  0.20154253  0.77938864  1  0.403072  0  0.000196  -0.032204  0  3.986032  0
C  C123  1  0.69434276  0.79845916  0.27938728  1  0.403117  0  0.00019  -0.032229  0  3.986201  0
N  N124  1  0.29012077  0.90067361  0.18934677  1  -1.244978  0  -0.359749  -0.286161  0  3.644558  0
N  N125  1  0.20987737  0.09932721  0.68934690  1  -1.244957  0  -0.359706  -0.286086  0  3.64454  0
N  N126  1  0.70987828  0.09932852  0.81065283  1  -1.24496  0  -0.359709  -0.28613  0  3.644581  0
N  N127  1  0.79012118  0.90067292  0.31065270  1  -1.244976  0  -0.359736  -0.286148  0  3.644584  0
N  N128  1  0.27374001  0.96528544  0.28376834  1  -1.232127  0  -0.24023  0.047303  0  3.78185  0
N  N129  1  0.22625651  0.03471662  0.78376860  1  -1.232156  0  -0.240283  0.047397  0  3.781869  0
N  N130  1  0.72626192  0.03471470  0.71623171  1  -1.232145  0  -0.240185  0.047308  0  3.781849  0
N  N131  1  0.77374166  0.96528650  0.21623145  1  -1.232131  0  -0.240204  0.047333  0  3.781938  0
N  N132  1  0.38780147  0.05945282  0.44330999  1  -1.241648  0  -0.239436  0.053465  0  3.753096  0
N  N133  1  0.11219515  0.94054299  0.94330991  1  -1.241249  0  -0.239339  0.053753  0  3.753005  0
N  N134  1  0.61219755  0.94054036  0.55669097  1  -1.241257  0  -0.239329  0.053679  0  3.753129  0
N  N135  1  0.88780503  0.05945913  0.05668969  1  -1.240991  0  -0.239346  0.053753  0  3.753012  0
N  N136  1  0.29263970  0.10221080  0.53125675  1  -1.24593  0  -0.360598  -0.279455  0  3.628813  0
N  N137  1  0.20735606  0.89778730  0.03125703  1  -1.24573  0  -0.360533  -0.279442  0  3.62884  0
N  N138  1  0.70735243  0.89778635  0.46874285  1  -1.245546  0  -0.360497  -0.27935  0  3.628763  0
N  N139  1  0.79264274  0.10221383  0.96874302  1  -1.245837  0  -0.360561  -0.279441  0  3.628828  0
O  O140  1  0.48245165  0.09672299  0.09452361  1  -1.182858  0  -0.339372  -0.567547  0  2.319522  0
O  O141  1  0.01755237  0.90327560  0.59452446  1  -1.182799  0  -0.339432  -0.567606  0  2.319526  0
O  O142  1  0.51755707  0.90327715  0.90547598  1  -1.182519  0  -0.339419  -0.567555  0  2.319569  0
O  O143  1  0.98244829  0.09671956  0.40547604  1  -1.182897  0  -0.339405  -0.567571  0  2.31962  0
O  O144  1  0.26422996  0.16746418  0.11611526  1  -1.195664  0  -0.333318  -0.578699  0  2.173002  0
O  O145  1  0.23577296  0.83253424  0.61611590  1  -1.195712  0  -0.333307  -0.578718  0  2.172934  0
O  O146  1  0.73577234  0.83253298  0.88388252  1  -1.195698  0  -0.333339  -0.578758  0  2.172971  0
O  O147  1  0.76422883  0.16746092  0.38388370  1  -1.195617  0  -0.33328  -0.57869  0  2.17292  0
O  O148  1  0.28056558  0.65665217  0.10281410  1  -1.181848  0  -0.32397  -0.545537  0  2.132453  0
O  O149  1  0.21944034  0.34334934  0.60281288  1  -1.181932  0  -0.324018  -0.545648  0  2.132428  0
O  O150  1  0.71943912  0.34334996  0.89718822  1  -1.181883  0  -0.323991  -0.545582  0  2.132415  0
O  O151  1  0.78055831  0.65664682  0.39718807  1  -1.181956  0  -0.323945  -0.545543  0  2.132421  0
O  O152  1  0.50914456  0.79789767  0.08659212  1  -1.174718  0  -0.34284  -0.574749  0  2.272508  0
O  O153  1  0.99085909  0.20210555  0.58659040  1  -1.174613  0  -0.342844  -0.574742  0  2.272401  0
O  O154  1  0.49086015  0.20210445  0.91340884  1  -1.174646  0  -0.342861  -0.57477  0  2.272435  0
O  O155  1  0.00913781  0.79789259  0.41340920  1  -1.174545  0  -0.342841  -0.574746  0  2.272387  0
O  O156  1  0.86844424  0.50616653  0.02741671  1  -1.183437  0  -0.355352  -0.455804  0  2.359712  0
O  O157  1  0.63155655  0.49383518  0.52741654  1  -1.183408  0  -0.35535  -0.455846  0  2.359709  0
O  O158  1  0.13155707  0.49383560  0.97258379  1  -1.183373  0  -0.355348  -0.455827  0  2.359686  0
O  O159  1  0.36844337  0.50616595  0.47258442  1  -1.183277  0  -0.355327  -0.455799  0  2.35974  0
