# generated using pymatgen
data_Cu4SiH8(C7N2)4
_symmetry_space_group_name_H-M   'P 1'
_cell_length_a   27.53775171
_cell_length_b   27.69213262
_cell_length_c   28.84409152
_cell_angle_alpha   89.92474855
_cell_angle_beta   89.99639153
_cell_angle_gamma   89.92163423
_symmetry_Int_Tables_number   1
_chemical_formula_structural   Cu4SiH8(C7N2)4
_chemical_formula_sum   'Cu12 Si3 H24 C84 N24'
_cell_volume   21995.86096884
_cell_formula_units_Z   3
loop_
 _symmetry_equiv_pos_site_id
 _symmetry_equiv_pos_as_xyz
  1  'x, y, z'
loop_
 _atom_site_type_symbol
 _atom_site_label
 _atom_site_symmetry_multiplicity
 _atom_site_fract_x
 _atom_site_fract_y
 _atom_site_fract_z
 _atom_site_occupancy
 _atom_site_pbe_bader_charge
 _atom_site_pbe_bader_spin_density
 _atom_site_pbe_cm5_charge
 _atom_site_pbe_ddec_charge
 _atom_site_pbe_ddec_spin_density
 _atom_site_pbe_ddec_sum_bond_order
 _atom_site_pbe_magmom
Cu  Cu0  1  0.76344004  0.76303940  0.83894147  1  0.547945  0  0.497068  0.218186  0  2.093498  0
Cu  Cu1  1  0.84794236  0.76544899  0.76382002  1  0.56586  0  0.496759  0.216363  0  2.092735  0
Cu  Cu2  1  0.76605825  0.84698590  0.76398979  1  0.548083  0  0.496044  0.217082  0  2.091063  0
Cu  Cu3  1  0.76305865  0.23707848  0.16092957  1  0.546249  0  0.496508  0.217885  0  2.090007  0
Cu  Cu4  1  0.84730810  0.23455824  0.23620542  1  0.567729  0  0.496215  0.216813  0  2.090764  0
Cu  Cu5  1  0.76554167  0.15319942  0.23629505  1  0.566881  0  0.496241  0.217308  0  2.091062  0
Cu  Cu6  1  0.23637274  0.76321120  0.16087331  1  0.545886  0  0.496341  0.217752  0  2.090995  0
Cu  Cu7  1  0.15187523  0.76564161  0.23597501  1  0.564491  0  0.496318  0.216457  0  2.090362  0
Cu  Cu8  1  0.23415605  0.84663839  0.23618855  1  0.549632  0  0.496264  0.217337  0  2.092365  0
Cu  Cu9  1  0.23654720  0.23691690  0.83837106  1  0.547948  0  0.496235  0.217773  0  2.091522  0
Cu  Cu10  1  0.15194564  0.23466936  0.76348963  1  0.564198  0  0.496458  0.216568  0  2.090052  0
Cu  Cu11  1  0.23422078  0.15317192  0.76356248  1  0.53972  0  0.496369  0.217287  0  2.09205  0
Si  Si12  1  0.00027885  0.00000221  0.50005250  1  2.893014  0  0.183965  1.035889  0  4.274181  0
Si  Si13  1  0.00026249  0.49989051  0.00021017  1  2.889271  0  0.183633  1.035735  0  4.274615  0
Si  Si14  1  0.50007894  0.00000527  0.00023605  1  2.890095  0  0.184589  1.033847  0  4.274022  0
H  H15  1  0.79809480  0.67524889  0.90149578  1  0.122481  0  0.130196  0.124046  0  0.97307  0
H  H16  1  0.91584753  0.68109049  0.80175995  1  0.106602  0  0.13022  0.123836  0  0.974955  0
H  H17  1  0.68149297  0.91485891  0.80193555  1  0.114481  0  0.130595  0.124133  0  0.974549  0
H  H18  1  0.67523604  0.79761976  0.90164114  1  0.125903  0  0.130582  0.12418  0  0.973691  0
H  H19  1  0.91285242  0.80080250  0.67928715  1  0.116683  0  0.130399  0.124103  0  0.974575  0
H  H20  1  0.80146265  0.91172777  0.67956145  1  0.116757  0  0.130184  0.123738  0  0.9743  0
H  H21  1  0.79795179  0.32480881  0.09823642  1  0.118504  0  0.130269  0.123908  0  0.973514  0
H  H22  1  0.91530578  0.31870596  0.19837628  1  0.116321  0  0.130367  0.124065  0  0.974094  0
H  H23  1  0.68107606  0.08557175  0.19846823  1  0.113427  0  0.13053  0.124279  0  0.974661  0
H  H24  1  0.67491717  0.20244351  0.09835314  1  0.129249  0  0.130506  0.124253  0  0.974117  0
H  H25  1  0.91233119  0.19928031  0.32070277  1  0.099312  0  0.130544  0.124527  0  0.974202  0
H  H26  1  0.80114231  0.08846737  0.32085592  1  0.120732  0  0.130379  0.124122  0  0.973798  0
H  H27  1  0.20172727  0.67560816  0.09831671  1  0.124135  0  0.130411  0.124309  0  0.973712  0
H  H28  1  0.08400215  0.68142044  0.19807158  1  0.112603  0  0.130303  0.12409  0  0.974711  0
H  H29  1  0.31900482  0.91417971  0.19857127  1  0.090195  0  0.130397  0.124415  0  0.974229  0
H  H30  1  0.32466384  0.79773729  0.09826134  1  0.127518  0  0.130557  0.124206  0  0.97332  0
H  H31  1  0.08700469  0.80103147  0.32053500  1  0.119886  0  0.130301  0.123769  0  0.97462  0
H  H32  1  0.19898607  0.91104729  0.32078758  1  0.126601  0  0.130165  0.12312  0  0.974854  0
H  H33  1  0.20198057  0.32441298  0.90108303  1  0.12587  0  0.130447  0.124322  0  0.973674  0
H  H34  1  0.08395378  0.31898979  0.80166135  1  0.10518  0  0.130545  0.124647  0  0.974684  0
H  H35  1  0.31900572  0.08535405  0.80158887  1  0.126389  0  0.130417  0.124452  0  0.973673  0
H  H36  1  0.32471741  0.20244115  0.90119123  1  0.112347  0  0.130368  0.124568  0  0.973823  0
H  H37  1  0.08715713  0.19924442  0.67902924  1  0.118093  0  0.130341  0.124038  0  0.973993  0
H  H38  1  0.19884815  0.08862843  0.67931475  1  0.123612  0  0.130314  0.123809  0  0.974322  0
C  C39  1  0.82247597  0.68299824  0.87290984  1  0.470578  0  0.023968  -0.035257  0  3.911503  0
C  C40  1  0.86783878  0.66191391  0.86246017  1  0.124521  0  -0.024711  0.033927  0  4.203993  0
C  C41  1  0.88286659  0.68598426  0.82178333  1  0.437153  0  0.023831  -0.036698  0  3.912923  0
C  C42  1  0.68632000  0.88202770  0.82197824  1  0.429658  0  0.023651  -0.035423  0  3.911137  0
C  C43  1  0.66213987  0.86715871  0.86269157  1  0.128466  0  -0.024847  0.03423  0  4.201165  0
C  C44  1  0.68311228  0.82190231  0.87308439  1  0.451268  0  0.023532  -0.035629  0  3.911992  0
C  C45  1  0.88157858  0.82370284  0.68569342  1  0.432804  0  0.024106  -0.036138  0  3.911683  0
C  C46  1  0.86769829  0.86681001  0.66313786  1  0.092474  0  -0.024793  0.034577  0  4.202656  0
C  C47  1  0.82446254  0.88057176  0.68585145  1  0.476578  0  0.02374  -0.036337  0  3.91332  0
C  C48  1  0.82221742  0.31697717  0.12690562  1  0.470064  0  0.023746  -0.035306  0  3.912758  0
C  C49  1  0.86754701  0.33794159  0.13747466  1  0.124832  0  -0.024523  0.033972  0  4.203284  0
C  C50  1  0.88241415  0.31387407  0.17823237  1  0.41125  0  0.023777  -0.035749  0  3.910831  0
C  C51  1  0.68592026  0.11831042  0.17831362  1  0.470443  0  0.024027  -0.036006  0  3.910993  0
C  C52  1  0.66178432  0.13308734  0.13752524  1  0.094185  0  -0.025001  0.035008  0  4.200298  0
C  C53  1  0.68277774  0.17824396  0.12699284  1  0.445715  0  0.02329  -0.036789  0  3.913126  0
C  C54  1  0.88107737  0.17640962  0.31440758  1  0.49508  0  0.023185  -0.0375  0  3.911962  0
C  C55  1  0.86732896  0.13334881  0.33706627  1  0.158298  0  -0.024736  0.033672  0  4.202803  0
C  C56  1  0.82406161  0.11960015  0.31446849  1  0.364319  0  0.023285  -0.035925  0  3.912044  0
C  C57  1  0.17732158  0.68338238  0.12687040  1  0.458844  0  0.023599  -0.036321  0  3.911957  0
C  C58  1  0.13201822  0.66229509  0.13736581  1  0.135814  0  -0.024591  0.035145  0  4.201738  0
C  C59  1  0.11694384  0.68635041  0.17800226  1  0.432776  0  0.023289  -0.037765  0  3.912627  0
C  C60  1  0.31402582  0.88155747  0.17835731  1  0.497767  0  0.024042  -0.036014  0  3.911507  0
C  C61  1  0.33809108  0.86686813  0.13753543  1  0.093741  0  -0.024699  0.034553  0  4.201164  0
C  C62  1  0.31691238  0.82184193  0.12694027  1  0.446408  0  0.023457  -0.035702  0  3.911971  0
C  C63  1  0.11841786  0.82370957  0.31424453  1  0.470558  0  0.023707  -0.036579  0  3.911956  0
C  C64  1  0.13249339  0.86655524  0.33697950  1  0.155443  0  -0.024884  0.034212  0  4.20299  0
C  C65  1  0.17583296  0.88011507  0.31437106  1  0.364148  0  0.024036  -0.034652  0  3.912904  0
C  C66  1  0.17750877  0.31677917  0.87256144  1  0.466887  0  0.023578  -0.036299  0  3.91174  0
C  C67  1  0.13211259  0.33789362  0.86226506  1  0.129993  0  -0.024348  0.035523  0  4.20168  0
C  C68  1  0.11698745  0.31399214  0.82158807  1  0.432915  0  0.022948  -0.038765  0  3.913318  0
C  C69  1  0.31405048  0.11814131  0.82158704  1  0.457314  0  0.024106  -0.036355  0  3.91129  0
C  C70  1  0.33809094  0.13298657  0.86235420  1  0.088896  0  -0.024958  0.034963  0  4.199833  0
C  C71  1  0.31698599  0.17818247  0.87264543  1  0.47241  0  0.023149  -0.037655  0  3.913594  0
C  C72  1  0.11850130  0.17642120  0.68542929  1  0.472188  0  0.023974  -0.035715  0  3.911222  0
C  C73  1  0.13248823  0.13340039  0.66288814  1  0.154858  0  -0.025133  0.03327  0  4.203798  0
C  C74  1  0.17577031  0.11971378  0.68558756  1  0.368433  0  0.023427  -0.036123  0  3.913995  0
C  C75  1  0.89288601  0.62681265  0.88798642  1  -0.420249  0  -0.021549  -0.053624  0  4.088695  0
C  C76  1  0.91506922  0.59733853  0.91174520  1  0.227304  0  -0.041025  -0.076033  0  4.275911  0
C  C77  1  0.93995794  0.56604039  0.93862609  1  -0.491541  0  -0.016639  0.128675  0  4.281175  0
C  C78  1  0.96290285  0.53802877  0.96359931  1  -0.284634  0  -0.080631  -0.4078  0  3.746196  0
C  C79  1  0.89265720  0.37298212  0.11199592  1  -0.437891  0  -0.02157  -0.054243  0  4.088071  0
C  C80  1  0.91487271  0.40242989  0.08829262  1  0.235289  0  -0.040847  -0.074907  0  4.27376  0
C  C81  1  0.93984025  0.43374310  0.06155274  1  -0.481379  0  -0.016861  0.128161  0  4.280775  0
C  C82  1  0.96288741  0.46179186  0.03676734  1  -0.284008  0  -0.080637  -0.408045  0  3.745813  0
C  C83  1  0.10710245  0.62714703  0.11195318  1  -0.440156  0  -0.021356  -0.053953  0  4.087533  0
C  C84  1  0.08506594  0.59757650  0.08830449  1  0.231044  0  -0.040909  -0.075626  0  4.273152  0
C  C85  1  0.06034276  0.56613363  0.06157259  1  -0.491336  0  -0.016675  0.128849  0  4.278915  0
C  C86  1  0.03756115  0.53796965  0.03676187  1  -0.269125  0  -0.080899  -0.408482  0  3.744611  0
C  C87  1  0.10714318  0.37292880  0.88786895  1  -0.436858  0  -0.021519  -0.053932  0  4.088246  0
C  C88  1  0.08504699  0.40238350  0.91166171  1  0.238822  0  -0.041139  -0.075947  0  4.274375  0
C  C89  1  0.06030697  0.43371320  0.93857550  1  -0.35881  0  -0.016638  0.128785  0  4.279531  0
C  C90  1  0.03754107  0.46178024  0.96357500  1  -0.402389  0  -0.080618  -0.408094  0  3.745359  0
C  C91  1  0.62706271  0.89226722  0.88828131  1  -0.347005  0  -0.021587  -0.055039  0  4.087045  0
C  C92  1  0.59765282  0.91455646  0.91205664  1  0.159841  0  -0.040773  -0.074171  0  4.272114  0
C  C93  1  0.56641909  0.93964059  0.93887507  1  -0.345776  0  -0.016731  0.127941  0  4.279614  0
C  C94  1  0.53846285  0.96281863  0.96371068  1  -0.434598  0  -0.080867  -0.407521  0  3.745114  0
C  C95  1  0.37315572  0.10789470  0.88804669  1  -0.351588  0  -0.022072  -0.055977  0  4.085353  0
C  C96  1  0.40255750  0.08557879  0.91187456  1  0.165246  0  -0.040344  -0.073177  0  4.270289  0
C  C97  1  0.43379621  0.06047670  0.93874238  1  -0.363951  0  -0.016704  0.127571  0  4.279324  0
C  C98  1  0.46175218  0.03729045  0.96361956  1  -0.419947  0  -0.080713  -0.407048  0  3.743965  0
C  C99  1  0.62673560  0.10795512  0.11201135  1  -0.348179  0  -0.021189  -0.054829  0  4.086242  0
C  C100  1  0.59734815  0.08557739  0.08834932  1  0.14289  0  -0.0411  -0.074316  0  4.272037  0
C  C101  1  0.56615094  0.06043697  0.06162407  1  -0.491355  0  -0.016794  0.127755  0  4.280262  0
C  C102  1  0.53823518  0.03724246  0.03683193  1  -0.273196  0  -0.080747  -0.407495  0  3.745356  0
C  C103  1  0.37321358  0.89196283  0.11201119  1  -0.350725  0  -0.021422  -0.055035  0  4.086392  0
C  C104  1  0.40265427  0.91428421  0.08830035  1  0.153309  0  -0.040757  -0.074  0  4.27173  0
C  C105  1  0.43391409  0.93941230  0.06155643  1  -0.502012  0  -0.017209  0.12718  0  4.279978  0
C  C106  1  0.46187401  0.96263709  0.03677581  1  -0.269488  0  -0.080597  -0.407027  0  3.744024  0
C  C107  1  0.89211230  0.89127660  0.62763371  1  -0.263137  0  -0.021659  -0.053271  0  4.088775  0
C  C108  1  0.91425069  0.91357673  0.59752650  1  0.101221  0  -0.041391  -0.077096  0  4.274781  0
C  C109  1  0.93939735  0.93895159  0.56563564  1  -0.536558  0  -0.016557  0.129323  0  4.278733  0
C  C110  1  0.96275809  0.96257319  0.53713033  1  -0.271642  0  -0.080708  -0.408185  0  3.743908  0
C  C111  1  0.10815689  0.89098968  0.37253819  1  -0.271875  0  -0.021376  -0.053073  0  4.088626  0
C  C112  1  0.08611937  0.91331282  0.40267901  1  0.122185  0  -0.040945  -0.076621  0  4.274748  0
C  C113  1  0.06106542  0.93873808  0.43458528  1  -0.378275  0  -0.017006  0.129434  0  4.279067  0
C  C114  1  0.03777669  0.96242174  0.46308883  1  -0.431077  0  -0.080764  -0.408888  0  3.743692  0
C  C115  1  0.10815308  0.10891862  0.62740481  1  -0.276613  0  -0.021031  -0.052254  0  4.08862  0
C  C116  1  0.08615331  0.08653995  0.59732268  1  0.13277  0  -0.04115  -0.076915  0  4.274156  0
C  C117  1  0.06112294  0.06110358  0.56545949  1  -0.393268  0  -0.017065  0.12902  0  4.27808  0
C  C118  1  0.03784066  0.03744374  0.53698543  1  -0.426043  0  -0.080533  -0.408372  0  3.743741  0
C  C119  1  0.89186554  0.10890324  0.37256062  1  -0.266232  0  -0.021452  -0.053195  0  4.088473  0
C  C120  1  0.91405832  0.08658756  0.40265985  1  0.110079  0  -0.041309  -0.076776  0  4.274166  0
C  C121  1  0.93926802  0.06119173  0.43454650  1  -0.588153  0  -0.016202  0.129715  0  4.277688  0
C  C122  1  0.96269400  0.03754527  0.46303135  1  -0.222621  0  -0.081162  -0.408685  0  3.742819  0
N  N123  1  0.84918322  0.71873698  0.80944761  1  -0.78545  0  -0.332583  -0.136146  0  3.764025  0
N  N124  1  0.81178762  0.71689768  0.84111839  1  -0.79085  0  -0.333927  -0.140926  0  3.766679  0
N  N125  1  0.71706788  0.81114350  0.84124721  1  -0.762032  0  -0.333646  -0.139881  0  3.767212  0
N  N126  1  0.71905366  0.84837759  0.80958609  1  -0.791191  0  -0.332591  -0.139007  0  3.76674  0
N  N127  1  0.81387854  0.84830898  0.71918421  1  -0.776624  0  -0.333009  -0.138489  0  3.766197  0
N  N128  1  0.84925287  0.81308751  0.71908277  1  -0.771  0  -0.332704  -0.137931  0  3.764735  0
N  N129  1  0.84868265  0.28122051  0.19049329  1  -0.763826  0  -0.332734  -0.138731  0  3.766301  0
N  N130  1  0.81140101  0.28313419  0.15869267  1  -0.788346  0  -0.333263  -0.139531  0  3.766146  0
N  N131  1  0.71671472  0.18902646  0.15881035  1  -0.775415  0  -0.332927  -0.138932  0  3.765106  0
N  N132  1  0.71865028  0.15190720  0.19060752  1  -0.779387  0  -0.332994  -0.138996  0  3.765863  0
N  N133  1  0.81334438  0.15181939  0.28110892  1  -0.818952  0  -0.332699  -0.139214  0  3.766772  0
N  N134  1  0.84865961  0.18700725  0.28107183  1  -0.750635  0  -0.332232  -0.136758  0  3.763878  0
N  N135  1  0.15054344  0.71910378  0.19026720  1  -0.785539  0  -0.332018  -0.136076  0  3.761398  0
N  N136  1  0.18793640  0.71727092  0.15858607  1  -0.788791  0  -0.333511  -0.140301  0  3.763661  0
N  N137  1  0.28293875  0.81105340  0.15875279  1  -0.754935  0  -0.33287  -0.139052  0  3.76474  0
N  N138  1  0.28116429  0.84803666  0.19060733  1  -0.796737  0  -0.333405  -0.139628  0  3.767685  0
N  N139  1  0.18629020  0.84798969  0.28093553  1  -0.777101  0  -0.333064  -0.139119  0  3.766926  0
N  N140  1  0.15072801  0.81305130  0.28085231  1  -0.777177  0  -0.332352  -0.137467  0  3.763997  0
N  N141  1  0.15064201  0.28128903  0.80911483  1  -0.789707  0  -0.332437  -0.136004  0  3.761606  0
N  N142  1  0.18812535  0.28301176  0.84069426  1  -0.788283  0  -0.333263  -0.140484  0  3.763325  0
N  N143  1  0.28308779  0.18892237  0.84072157  1  -0.789836  0  -0.332583  -0.138355  0  3.764806  0
N  N144  1  0.28127656  0.15173881  0.80909027  1  -0.765122  0  -0.332951  -0.138609  0  3.766244  0
N  N145  1  0.18628305  0.15193279  0.71889520  1  -0.7712  0  -0.333196  -0.139161  0  3.766553  0
N  N146  1  0.15081120  0.18706177  0.71880331  1  -0.777133  0  -0.332186  -0.13752  0  3.762606  0
