# generated using pymatgen
data_CdH24C28(S2N3)2
_symmetry_space_group_name_H-M   'P 1'
_cell_length_a   5.41247101
_cell_length_b   15.64382654
_cell_length_c   17.64100000
_cell_angle_alpha   90.00000000
_cell_angle_beta   89.97914581
_cell_angle_gamma   90.00000000
_symmetry_Int_Tables_number   1
_chemical_formula_structural   CdH24C28(S2N3)2
_chemical_formula_sum   'Cd2 H48 C56 S8 N12'
_cell_volume   1493.69437769
_cell_formula_units_Z   2
loop_
 _symmetry_equiv_pos_site_id
 _symmetry_equiv_pos_as_xyz
  1  'x, y, z'
loop_
 _atom_site_type_symbol
 _atom_site_label
 _atom_site_symmetry_multiplicity
 _atom_site_fract_x
 _atom_site_fract_y
 _atom_site_fract_z
 _atom_site_occupancy
 _atom_site_hle17_bader_spin_density
 _atom_site_hle17_ddec_charge
 _atom_site_hle17_ddec_spin_density
 _atom_site_hle17_ddec_sum_bond_order
 _atom_site_hle17_magmom
 _atom_site_hse06_10hf_bader_spin_density
 _atom_site_hse06_10hf_ddec_charge
 _atom_site_hse06_10hf_ddec_spin_density
 _atom_site_hse06_10hf_ddec_sum_bond_order
 _atom_site_hse06_10hf_magmom
 _atom_site_hse06_bader_spin_density
 _atom_site_hse06_ddec_charge
 _atom_site_hse06_ddec_spin_density
 _atom_site_hse06_ddec_sum_bond_order
 _atom_site_hse06_magmom
 _atom_site_pbe_bader_charge
 _atom_site_pbe_bader_spin_density
 _atom_site_pbe_cm5_charge
 _atom_site_pbe_ddec_charge
 _atom_site_pbe_ddec_spin_density
 _atom_site_pbe_ddec_sum_bond_order
 _atom_site_pbe_magmom
Cd  Cd0  1  0.49999902  0.49999787  0.50000028  1  0  0.802486  0  2.018923  0  0  0.662753  0  2.45454  0  0  0.703222  0  2.427604  0  1.002966  0  0.579941  0.634879  0  2.472213  0
Cd  Cd1  1  0.50000825  0.99999894  0.00000198  1  0  0.802559  0  2.018719  0  0  0.662819  0  2.45433  0  0  0.70329  0  2.427392  0  1.002985  0  0.579968  0.634944  0  2.472001  0
H  H2  1  0.77081804  0.16065443  0.51501171  1  0  0.283482  0  0.888042  0  0  0.276814  0  0.934667  0  0  0.2833  0  0.930437  0  0.454789  0  0.320155  0.272283  0  0.937712  0
H  H3  1  0.22917445  0.66065869  0.98498830  1  0  0.283493  0  0.888118  0  0  0.27687  0  0.934674  0  0  0.283361  0  0.930443  0  0.454895  0  0.32019  0.272338  0  0.937723  0
H  H4  1  0.22921695  0.83934260  0.48499169  1  0  0.283471  0  0.888052  0  0  0.276812  0  0.934682  0  0  0.283306  0  0.930452  0  0.454915  0  0.320111  0.272279  0  0.937731  0
H  H5  1  0.77081065  0.33934345  0.01500604  1  0  0.283439  0  0.88816  0  0  0.276801  0  0.934736  0  0  0.283298  0  0.930505  0  0.45482  0  0.320125  0.272271  0  0.93778  0
H  H6  1  0.45302601  0.33675840  0.57428533  1  0  0.303864  0  0.951625  0  0  0.280896  0  1.026501  0  0  0.289428  0  1.018987  0  0.528122  0  0.293384  0.274927  0  1.031746  0
H  H7  1  0.54696832  0.83676203  0.92571467  1  0  0.303944  0  0.951596  0  0  0.280998  0  1.026454  0  0  0.289532  0  1.018937  0  0.528094  0  0.293422  0.27503  0  1.031698  0
H  H8  1  0.54699419  0.66323479  0.42572147  1  0  0.303835  0  0.951669  0  0  0.280837  0  1.026625  0  0  0.28937  0  1.01911  0  0.528038  0  0.293405  0.274877  0  1.031846  0
H  H9  1  0.45301493  0.16324011  0.07428420  1  0  0.303877  0  0.951659  0  0  0.280952  0  1.026524  0  0  0.289488  0  1.019004  0  0.52805  0  0.293415  0.274982  0  1.031774  0
H  H10  1  0.74495000  0.08554429  0.38714372  1  0  0.097152  0  0.953985  0  0  0.108129  0  1.013388  0  0  0.111576  0  1.011647  0  0.067146  0  0.098805  0.105692  0  1.014651  0
H  H11  1  0.25504249  0.58554983  0.11285571  1  0  0.097075  0  0.954046  0  0  0.108075  0  1.013439  0  0  0.11152  0  1.011699  0  0.067081  0  0.098756  0.105637  0  1.014702  0
H  H12  1  0.25506466  0.91445338  0.61285571  1  0  0.097036  0  0.954081  0  0  0.108016  0  1.013486  0  0  0.111462  0  1.011746  0  0.066911  0  0.098748  0.10558  0  1.014748  0
H  H13  1  0.74495554  0.41445039  0.88713976  1  0  0.097047  0  0.954051  0  0  0.108067  0  1.01342  0  0  0.111511  0  1.011682  0  0.067318  0  0.098764  0.10563  0  1.014682  0
H  H14  1  0.00778572  0.04713744  0.27633097  1  0  0.07512  0  0.997718  0  0  0.081573  0  1.070463  0  0  0.084019  0  1.06959  0  0.091446  0  0.087274  0.079799  0  1.071163  0
H  H15  1  0.99221600  0.54713724  0.22366846  1  0  0.075118  0  0.997716  0  0  0.081578  0  1.070471  0  0  0.084022  0  1.0696  0  0.091504  0  0.087268  0.079804  0  1.07117  0
H  H16  1  0.99223263  0.95286853  0.72366789  1  0  0.075067  0  0.997666  0  0  0.081543  0  1.070416  0  0  0.083987  0  1.069545  0  0.091407  0  0.087257  0.079767  0  1.07112  0
H  H17  1  0.00779681  0.45286235  0.77632927  1  0  0.075165  0  0.997732  0  0  0.081613  0  1.070502  0  0  0.084056  0  1.069631  0  0.091425  0  0.087289  0.079838  0  1.071202  0
H  H18  1  0.37783300  0.13501748  0.24465595  1  0  0.091416  0  0.95251  0  0  0.099929  0  1.016515  0  0  0.102529  0  1.016231  0  0.055736  0  0.095039  0.098014  0  1.016851  0
H  H19  1  0.62215949  0.63501471  0.25534575  1  0  0.091364  0  0.952528  0  0  0.0999  0  1.016517  0  0  0.102483  0  1.016252  0  0.055662  0  0.095036  0.097983  0  1.016855  0
H  H20  1  0.62217058  0.86498978  0.75534178  1  0  0.091368  0  0.952505  0  0  0.099934  0  1.016467  0  0  0.10252  0  1.016199  0  0.055547  0  0.094999  0.098019  0  1.016804  0
H  H21  1  0.37785701  0.36498359  0.74465538  1  0  0.091391  0  0.952454  0  0  0.099882  0  1.01649  0  0  0.102475  0  1.016214  0  0.055561  0  0.095004  0.097967  0  1.016827  0
H  H22  1  0.47914163  0.26270235  0.32383800  1  0  0.085036  0  0.986533  0  0  0.092021  0  1.054827  0  0  0.094032  0  1.055768  0  0.078064  0  0.090161  0.090551  0  1.054273  0
H  H23  1  0.52085086  0.76269895  0.17616371  1  0  0.085012  0  0.986643  0  0  0.092004  0  1.054925  0  0  0.094007  0  1.055868  0  0.077957  0  0.090149  0.090535  0  1.05437  0
H  H24  1  0.52086934  0.73730298  0.67615860  1  0  0.08503  0  0.986587  0  0  0.092003  0  1.054878  0  0  0.094016  0  1.055819  0  0.078221  0  0.090167  0.090534  0  1.054325  0
H  H25  1  0.47914902  0.23729680  0.82384026  1  0  0.084992  0  0.986585  0  0  0.09198  0  1.054876  0  0  0.093989  0  1.055819  0  0.078047  0  0.090149  0.090511  0  1.054322  0
H  H26  1  0.21842890  0.30057096  0.43398388  1  0  0.102893  0  0.981323  0  0  0.107253  0  1.055247  0  0  0.110054  0  1.054255  0  0.116032  0  0.091597  0.10521  0  1.056074  0
H  H27  1  0.78155620  0.80057459  0.06601839  1  0  0.102813  0  0.981292  0  0  0.107146  0  1.055297  0  0  0.109946  0  1.054307  0  0.115871  0  0.091573  0.105102  0  1.056124  0
H  H28  1  0.78159685  0.69943054  0.56601725  1  0  0.102848  0  0.9814  0  0  0.107226  0  1.055322  0  0  0.110024  0  1.054322  0  0.115937  0  0.091584  0.105175  0  1.056155  0
H  H29  1  0.21842705  0.19942371  0.93398332  1  0  0.10285  0  0.981282  0  0  0.107207  0  1.055237  0  0  0.110008  0  1.054243  0  0.115962  0  0.091577  0.105163  0  1.056064  0
H  H30  1  0.26821023  0.15862807  0.58883916  1  0  0.1061  0  0.946137  0  0  0.116921  0  1.004733  0  0  0.120163  0  1.003361  0  0.07983  0  0.101459  0.114599  0  1.005776  0
H  H31  1  0.73178965  0.65863425  0.91115120  1  0  0.106164  0  0.945829  0  0  0.116908  0  1.00454  0  0  0.120146  0  1.003165  0  0.079807  0  0.101413  0.114588  0  1.00558  0
H  H32  1  0.73180812  0.84137215  0.41116651  1  0  0.106151  0  0.945998  0  0  0.116976  0  1.004597  0  0  0.120215  0  1.003225  0  0.07965  0  0.101485  0.114652  0  1.005641  0
H  H33  1  0.26819914  0.34137556  0.08883463  1  0  0.106091  0  0.94612  0  0  0.116922  0  1.004706  0  0  0.120163  0  1.003333  0  0.079698  0  0.101463  0.114601  0  1.005748  0
H  H34  1  0.31098367  0.04492827  0.68803681  1  0  0.087069  0  0.968179  0  0  0.098929  0  1.028435  0  0  0.101206  0  1.027955  0  0.085724  0  0.098106  0.0973  0  1.02886  0
H  H35  1  0.68897926  0.54494276  0.81194789  1  0  0.087027  0  0.96823  0  0  0.098934  0  1.028444  0  0  0.101218  0  1.027953  0  0.085852  0  0.098104  0.097306  0  1.028866  0
H  H36  1  0.68904762  0.95506748  0.31196602  1  0  0.087087  0  0.968277  0  0  0.098877  0  1.028607  0  0  0.101148  0  1.028123  0  0.08497  0  0.098104  0.097252  0  1.029021  0
H  H37  1  0.31095226  0.45507216  0.18803455  1  0  0.086988  0  0.968447  0  0  0.098855  0  1.028692  0  0  0.101135  0  1.028214  0  0.08553  0  0.098128  0.097228  0  1.029111  0
H  H38  1  0.67035745  0.04692202  0.77559942  1  0  0.094264  0  0.951603  0  0  0.108183  0  1.008612  0  0  0.110204  0  1.008038  0  0.068819  0  0.096433  0.106681  0  1.009143  0
H  H39  1  0.32959255  0.54693588  0.72439548  1  0  0.094306  0  0.951653  0  0  0.108225  0  1.008642  0  0  0.110242  0  1.008067  0  0.06848  0  0.096491  0.106723  0  1.009173  0
H  H40  1  0.32967015  0.95307244  0.22440001  1  0  0.09415  0  0.951792  0  0  0.108085  0  1.008778  0  0  0.110103  0  1.008209  0  0.068641  0  0.096405  0.106584  0  1.009307  0
H  H41  1  0.67032604  0.45307713  0.27559999  1  0  0.094197  0  0.951734  0  0  0.108121  0  1.008731  0  0  0.11014  0  1.008159  0  0.069034  0  0.096404  0.106619  0  1.009261  0
H  H42  1  0.98320533  0.16265458  0.76658314  1  0  0.092742  0  0.969431  0  0  0.100387  0  1.035821  0  0  0.102548  0  1.036373  0  0.093641  0  0.097405  0.098816  0  1.035574  0
H  H43  1  0.01673173  0.66266587  0.73342311  1  0  0.092404  0  0.969592  0  0  0.100122  0  1.035922  0  0  0.102281  0  1.036475  0  0.093276  0  0.097319  0.098551  0  1.035675  0
H  H44  1  0.01683150  0.83733222  0.23341856  1  0  0.092843  0  0.969321  0  0  0.10043  0  1.035812  0  0  0.102587  0  1.036372  0  0.093918  0  0.097469  0.098859  0  1.035565  0
H  H45  1  0.98316838  0.33734202  0.26658314  1  0  0.092841  0  0.969311  0  0  0.100445  0  1.035772  0  0  0.102605  0  1.036327  0  0.093888  0  0.09745  0.098873  0  1.035526  0
H  H46  1  0.93946375  0.27616645  0.66767526  1  0  0.111758  0  0.951471  0  0  0.12046  0  1.015745  0  0  0.122717  0  1.015862  0  0.09923  0  0.103586  0.118833  0  1.015747  0
H  H47  1  0.06051026  0.77617519  0.83233608  1  0  0.111703  0  0.951597  0  0  0.120422  0  1.015905  0  0  0.122677  0  1.016024  0  0.099049  0  0.103516  0.118798  0  1.015905  0
H  H48  1  0.06058786  0.72382099  0.33232870  1  0  0.111778  0  0.951438  0  0  0.120458  0  1.015742  0  0  0.122716  0  1.01586  0  0.099202  0  0.10354  0.118832  0  1.015745  0
H  H49  1  0.93943604  0.22383334  0.16767129  1  0  0.111843  0  0.951534  0  0  0.120569  0  1.015745  0  0  0.122828  0  1.015856  0  0.099343  0  0.103624  0.118941  0  1.01575  0
C  C50  1  0.97709721  0.55295039  0.39649765  1  0  0.3018  0  4.008706  0  0  0.27981  0  4.315084  0  0  0.301976  0  4.32837  0  0.541251  0  0.141038  0.264882  0  4.305689  0
C  C51  1  0.02291190  0.05296019  0.10350858  1  0  0.301823  0  4.008918  0  0  0.279836  0  4.315291  0  0  0.301999  0  4.328575  0  0.542071  0  0.141051  0.264908  0  4.3059  0
C  C52  1  0.02288419  0.44703832  0.60350291  1  0  0.301588  0  4.008367  0  0  0.279594  0  4.314782  0  0  0.301763  0  4.328075  0  0.541455  0  0.141043  0.264662  0  4.305383  0
C  C53  1  0.97710091  0.94703492  0.89649822  1  0  0.301793  0  4.00843  0  0  0.279807  0  4.314824  0  0  0.301973  0  4.328111  0  0.541892  0  0.14119  0.264877  0  4.305429  0
C  C54  1  0.70423292  0.28620427  0.49994743  1  0  0.469539  0  3.805289  0  0  0.419233  0  4.1109  0  0  0.448941  0  4.114457  0  0.935142  0  0.250777  0.399393  0  4.107622  0
C  C55  1  0.29576511  0.78620918  0.00005540  1  0  0.469501  0  3.804962  0  0  0.419131  0  4.110661  0  0  0.448841  0  4.114223  0  0.934748  0  0.250682  0.399294  0  4.107376  0
C  C56  1  0.29578913  0.71379275  0.50005653  1  0  0.469466  0  3.805148  0  0  0.419173  0  4.110733  0  0  0.448891  0  4.114297  0  0.934826  0  0.250761  0.399335  0  4.107454  0
C  C57  1  0.70422737  0.21379232  0.99994573  1  0  0.469489  0  3.80515  0  0  0.419119  0  4.110847  0  0  0.448842  0  4.114407  0  0.934619  0  0.250774  0.399283  0  4.107564  0
C  C58  1  0.96866668  0.19424531  0.41801325  1  0  0.22693  0  3.812906  0  0  0.225283  0  4.058072  0  0  0.231143  0  4.079628  0  0.254198  0  0.081705  0.221254  0  4.043476  0
C  C59  1  0.03132950  0.69424958  0.08198902  1  0  0.226867  0  3.813081  0  0  0.225279  0  4.058168  0  0  0.231144  0  4.079722  0  0.254567  0  0.081649  0.22125  0  4.043572  0
C  C60  1  0.03135167  0.80575491  0.58198845  1  0  0.226902  0  3.813106  0  0  0.225284  0  4.058221  0  0  0.231158  0  4.079778  0  0.254155  0  0.08169  0.221253  0  4.043623  0
C  C61  1  0.96866299  0.30574872  0.91801098  1  0  0.226826  0  3.813107  0  0  0.22526  0  4.058134  0  0  0.231137  0  4.079687  0  0.254426  0  0.081653  0.22123  0  4.043539  0
C  C62  1  0.90987837  0.12275897  0.37377856  1  0  -0.17446  0  3.759312  0  0  -0.19141  0  4.002428  0  0  -0.195366  0  4.022684  0  0.002253  0  -0.102736  -0.18868  0  3.988627  0
C  C63  1  0.09011042  0.62276196  0.12622088  1  0  -0.174431  0  3.759323  0  0  -0.191398  0  4.002429  0  0  -0.195355  0  4.022691  0  0.002333  0  -0.102668  -0.188668  0  3.988628  0
C  C64  1  0.09013074  0.87724445  0.62621917  1  0  -0.174396  0  3.759379  0  0  -0.191344  0  4.002495  0  0  -0.195297  0  4.022741  0  0.002592  0  -0.10273  -0.188612  0  3.988692  0
C  C65  1  0.90989131  0.37723315  0.87377516  1  0  -0.174387  0  3.759543  0  0  -0.191359  0  4.002591  0  0  -0.195321  0  4.022864  0  0.002461  0  -0.102708  -0.188627  0  3.988787  0
C  C66  1  0.05698876  0.10173342  0.31155761  1  0  -0.062484  0  3.805581  0  0  -0.074181  0  4.051496  0  0  -0.075937  0  4.074478  0  -0.109873  0  -0.0977  -0.072885  0  4.035841  0
C  C67  1  0.94301666  0.60173257  0.18844296  1  0  -0.062481  0  3.805425  0  0  -0.074235  0  4.051423  0  0  -0.075989  0  4.074397  0  -0.109903  0  -0.09774  -0.07294  0  4.035768  0
C  C68  1  0.94302590  0.89827447  0.68844069  1  0  -0.062339  0  3.80533  0  0  -0.074098  0  4.051312  0  0  -0.075851  0  4.074288  0  -0.110201  0  -0.097606  -0.072803  0  4.035658  0
C  C69  1  0.05699061  0.39826509  0.81155420  1  0  -0.062572  0  3.805661  0  0  -0.074327  0  4.051633  0  0  -0.076083  0  4.074609  0  -0.109987  0  -0.097754  -0.073031  0  4.035978  0
C  C70  1  0.26205777  0.15181835  0.29305673  1  0  -0.079796  0  3.754745  0  0  -0.092272  0  3.999209  0  0  -0.095111  0  4.02125  0  -0.056345  0  -0.09713  -0.090311  0  3.984243  0
C  C71  1  0.73794026  0.65181687  0.20694497  1  0  -0.079737  0  3.754583  0  0  -0.092222  0  3.999058  0  0  -0.095046  0  4.021099  0  -0.056414  0  -0.097126  -0.090261  0  3.984092  0
C  C72  1  0.73795135  0.84818826  0.70694270  1  0  -0.079791  0  3.754349  0  0  -0.09231  0  3.998863  0  0  -0.095138  0  4.020909  0  -0.056116  0  -0.097106  -0.090349  0  3.983898  0
C  C73  1  0.26207810  0.34818272  0.79305559  1  0  -0.079657  0  3.754544  0  0  -0.092102  0  3.998991  0  0  -0.09493  0  4.021028  0  -0.056353  0  -0.097013  -0.090141  0  3.984026  0
C  C74  1  0.31841466  0.22348305  0.33710973  1  0  -0.055308  0  3.769132  0  0  -0.065991  0  4.014121  0  0  -0.06715  0  4.035666  0  -0.028938  0  -0.094441  -0.065125  0  3.999476  0
C  C75  1  0.68157783  0.72348284  0.16289254  1  0  -0.055417  0  3.769236  0  0  -0.066075  0  4.014235  0  0  -0.067223  0  4.035767  0  -0.028822  0  -0.094458  -0.065209  0  3.999589  0
C  C76  1  0.68159815  0.77652165  0.66288857  1  0  -0.055269  0  3.769084  0  0  -0.065925  0  4.014073  0  0  -0.067088  0  4.035619  0  -0.029062  0  -0.094443  -0.065059  0  3.999426  0
C  C77  1  0.31842390  0.27651802  0.83710973  1  0  -0.055347  0  3.769151  0  0  -0.066031  0  4.014152  0  0  -0.067188  0  4.035692  0  -0.028913  0  -0.09448  -0.065164  0  3.999506  0
C  C78  1  0.17303558  0.24492026  0.39964453  1  0  -0.158688  0  3.741583  0  0  -0.179041  0  3.989991  0  0  -0.182605  0  4.009926  0  -0.002672  0  -0.100726  -0.17666  0  3.976655  0
C  C79  1  0.82694952  0.74492133  0.10035831  1  0  -0.158461  0  3.741385  0  0  -0.178863  0  3.98979  0  0  -0.182426  0  4.009721  0  -0.002521  0  -0.100674  -0.176483  0  3.976456  0
C  C80  1  0.82697908  0.75507997  0.60035434  1  0  -0.158666  0  3.741781  0  0  -0.179076  0  3.990175  0  0  -0.18263  0  4.0101  0  -0.002287  0  -0.100714  -0.176687  0  3.976843  0
C  C81  1  0.17304851  0.25507826  0.89964283  1  0  -0.158538  0  3.741396  0  0  -0.17894  0  3.989764  0  0  -0.182501  0  4.009691  0  -0.002604  0  -0.100667  -0.176558  0  3.976428  0
C  C82  1  0.60282821  0.22296016  0.62239966  1  0  0.209787  0  3.80169  0  0  0.209961  0  4.045687  0  0  0.214453  0  4.068781  0  0.279614  0  0.080253  0.206874  0  4.030055  0
C  C83  1  0.39715689  0.72296762  0.87760034  1  0  0.20991  0  3.80156  0  0  0.210066  0  4.045574  0  0  0.214561  0  4.068671  0  0.27914  0  0.080346  0.206975  0  4.029942  0
C  C84  1  0.39719938  0.77703623  0.37760430  1  0  0.20976  0  3.801337  0  0  0.20985  0  4.045459  0  0  0.21434  0  4.068557  0  0.279419  0  0.080182  0.206764  0  4.029826  0
C  C85  1  0.60281158  0.27704091  0.12239456  1  0  0.209843  0  3.801284  0  0  0.209979  0  4.045342  0  0  0.214472  0  4.068435  0  0.27937  0  0.080263  0.206892  0  4.029711  0
C  C86  1  0.42518845  0.15819915  0.62757964  1  0  -0.161415  0  3.747006  0  0  -0.179347  0  3.990843  0  0  -0.182533  0  4.010786  0  -0.062881  0  -0.095426  -0.17707  0  3.977225  0
C  C87  1  0.57479665  0.65820597  0.87241300  1  0  -0.161398  0  3.747012  0  0  -0.179274  0  3.990905  0  0  -0.182454  0  4.010844  0  -0.062468  0  -0.095311  -0.176998  0  3.97729  0
C  C88  1  0.57482991  0.84179532  0.37241979  1  0  -0.161636  0  3.747356  0  0  -0.17954  0  3.991218  0  0  -0.182724  0  4.011162  0  -0.062983  0  -0.095408  -0.177261  0  3.977597  0
C  C89  1  0.42517736  0.34180001  0.12757907  1  0  -0.161551  0  3.747125  0  0  -0.179487  0  3.990997  0  0  -0.182673  0  4.010942  0  -0.063143  0  -0.095454  -0.177208  0  3.977377  0
C  C90  1  0.45036919  0.09485659  0.68288265  1  0  -0.065615  0  3.794003  0  0  -0.076872  0  4.039957  0  0  -0.078981  0  4.062246  0  -0.076039  0  -0.092988  -0.075389  0  4.024738  0
C  C91  1  0.54959928  0.59486788  0.81710772  1  0  -0.065626  0  3.794125  0  0  -0.076915  0  4.040063  0  0  -0.079023  0  4.062351  0  -0.075671  0  -0.093065  -0.075433  0  4.024846  0
C  C92  1  0.54965286  0.90514491  0.31712529  1  0  -0.065518  0  3.794141  0  0  -0.076707  0  4.040054  0  0  -0.078803  0  4.062332  0  -0.074285  0  -0.092975  -0.075225  0  4.024838  0
C  C93  1  0.45034517  0.40514896  0.18287698  1  0  -0.065367  0  3.793975  0  0  -0.076607  0  4.039864  0  0  -0.078718  0  4.062153  0  -0.074739  0  -0.092965  -0.075125  0  4.024647  0
C  C94  1  0.65174118  0.09615614  0.73228309  1  0  -0.06932  0  3.760915  0  0  -0.085795  0  4.009747  0  0  -0.087194  0  4.03068  0  0.022727  0  -0.090328  -0.08477  0  3.995569  0
C  C95  1  0.34821066  0.59616424  0.76771238  1  0  -0.06957  0  3.760929  0  0  -0.086054  0  4.00981  0  0  -0.087449  0  4.030735  0  0.022771  0  -0.090405  -0.085029  0  3.995636  0
C  C96  1  0.34829011  0.90383961  0.26771804  1  0  -0.069209  0  3.760972  0  0  -0.085689  0  4.009733  0  0  -0.087083  0  4.030653  0  0.022072  0  -0.090347  -0.084667  0  3.995561  0
C  C97  1  0.65171716  0.40384685  0.23228140  1  0  -0.069252  0  3.760901  0  0  -0.085738  0  4.009681  0  0  -0.087133  0  4.030608  0  0.021442  0  -0.090322  -0.084715  0  3.995506  0
C  C98  1  0.82818001  0.16113960  0.72720302  1  0  -0.056564  0  3.765365  0  0  -0.067575  0  4.012145  0  0  -0.069386  0  4.033797  0  -0.036929  0  -0.087747  -0.066318  0  3.997443  0
C  C99  1  0.17178107  0.66115346  0.77279868  1  0  -0.056011  0  3.765116  0  0  -0.067059  0  4.011867  0  0  -0.068864  0  4.033522  0  -0.036379  0  -0.087684  -0.065806  0  3.997166  0
C  C100  1  0.17185313  0.83885423  0.27280434  1  0  -0.056807  0  3.765335  0  0  -0.067799  0  4.012154  0  0  -0.069608  0  4.033804  0  -0.036244  0  -0.087911  -0.066541  0  3.997455  0
C  C101  1  0.82815414  0.33886147  0.22719679  1  0  -0.056771  0  3.765312  0  0  -0.067759  0  4.012118  0  0  -0.069572  0  4.033767  0  -0.036547  0  -0.087874  -0.066501  0  3.997418  0
C  C102  1  0.80447919  0.22467841  0.67218668  1  0  -0.142619  0  3.70695  0  0  -0.162948  0  3.953048  0  0  -0.166203  0  3.97408  0  -0.072828  0  -0.088084  -0.16067  0  3.938784  0
C  C103  1  0.19548928  0.72468715  0.82781843  1  0  -0.142648  0  3.706892  0  0  -0.163035  0  3.953004  0  0  -0.166292  0  3.974033  0  -0.073126  0  -0.087994  -0.160754  0  3.938739  0
C  C104  1  0.19555579  0.77530903  0.32781275  1  0  -0.142457  0  3.706439  0  0  -0.162735  0  3.952547  0  0  -0.165988  0  3.973571  0  -0.073666  0  -0.087894  -0.160457  0  3.938283  0
C  C105  1  0.80446256  0.27531947  0.17218271  1  0  -0.142693  0  3.706747  0  0  -0.163026  0  3.952862  0  0  -0.16628  0  3.973889  0  -0.073003  0  -0.088039  -0.160746  0  3.938599  0
S  S106  1  0.22466265  0.50703004  0.36430176  1  0  -0.311675  0  2.167466  0  0  -0.281089  0  2.495675  0  0  -0.298321  0  2.491658  0  0.085613  0  -0.131712  -0.269071  0  2.498036  0
S  S107  1  0.77533908  0.00703856  0.13570220  1  0  -0.311724  0  2.167338  0  0  -0.281142  0  2.495546  0  0  -0.298375  0  2.491528  0  0.085124  0  -0.131762  -0.269122  0  2.497907  0
S  S108  1  0.77533908  0.49295612  0.63569880  1  0  -0.31146  0  2.167678  0  0  -0.280888  0  2.495918  0  0  -0.298115  0  2.4919  0  0.085645  0  -0.131711  -0.268873  0  2.498279  0
S  S109  1  0.22466635  0.99296166  0.86430063  1  0  -0.311627  0  2.16716  0  0  -0.281043  0  2.495353  0  0  -0.298276  0  2.491339  0  0.085437  0  -0.131735  -0.269024  0  2.497712  0
S  S110  1  0.70989207  0.36948760  0.43829950  1  0  -0.372269  0  2.145759  0  0  -0.338519  0  2.500562  0  0  -0.360828  0  2.499095  0  -0.136132  0  -0.14243  -0.323097  0  2.501091  0
S  S111  1  0.29010042  0.86949059  0.06170617  1  0  -0.372281  0  2.145624  0  0  -0.338468  0  2.500375  0  0  -0.360773  0  2.498901  0  -0.13598  0  -0.142416  -0.323049  0  2.500901  0
S  S112  1  0.29011520  0.63050878  0.56170333  1  0  -0.372283  0  2.145736  0  0  -0.338502  0  2.500484  0  0  -0.36081  0  2.499011  0  -0.135901  0  -0.142404  -0.32308  0  2.501011  0
S  S113  1  0.70990316  0.13050963  0.93830063  1  0  -0.372283  0  2.145813  0  0  -0.338481  0  2.500585  0  0  -0.360786  0  2.499108  0  -0.135828  0  -0.142422  -0.32306  0  2.501112  0
N  N114  1  0.79352855  0.58535039  0.42009675  1  0  -0.554811  0  2.846559  0  0  -0.503287  0  3.108266  0  0  -0.522371  0  3.114883  0  -1.313917  0  -0.393929  -0.490227  0  3.103509  0
N  N115  1  0.20646948  0.08535508  0.07991005  1  0  -0.554809  0  2.84682  0  0  -0.503317  0  3.108523  0  0  -0.522399  0  3.115136  0  -1.31425  0  -0.393906  -0.490255  0  3.103776  0
N  N116  1  0.20648980  0.41463449  0.57989928  1  0  -0.554773  0  2.845856  0  0  -0.503257  0  3.107547  0  0  -0.522347  0  3.114171  0  -1.314088  0  -0.393925  -0.49019  0  3.102791  0
N  N117  1  0.79352486  0.91463684  0.92009902  1  0  -0.554844  0  2.846404  0  0  -0.503346  0  3.108119  0  0  -0.522429  0  3.114731  0  -1.314319  0  -0.39405  -0.490284  0  3.103371  0
N  N118  1  0.82219753  0.21187016  0.48299588  1  0  -0.419906  0  3.360855  0  0  -0.363788  0  3.599947  0  0  -0.382369  0  3.607243  0  -1.254791  0  -0.397905  -0.351145  0  3.594609  0
N  N119  1  0.17778387  0.71187378  0.01700639  1  0  -0.419866  0  3.360914  0  0  -0.363749  0  3.599933  0  0  -0.382346  0  3.607244  0  -1.255026  0  -0.397838  -0.351105  0  3.594587  0
N  N120  1  0.17782637  0.78812687  0.51700752  1  0  -0.419888  0  3.360962  0  0  -0.363779  0  3.599994  0  0  -0.382401  0  3.607325  0  -1.254868  0  -0.397854  -0.351139  0  3.594663  0
N  N121  1  0.82219753  0.28812644  0.98299134  1  0  -0.419851  0  3.360947  0  0  -0.363746  0  3.599989  0  0  -0.382373  0  3.607317  0  -1.25499  0  -0.397865  -0.351105  0  3.59465  0
N  N122  1  0.58063317  0.28814881  0.56595636  1  0  -0.455308  0  3.386032  0  0  -0.395051  0  3.627768  0  0  -0.415557  0  3.636565  0  -1.289595  0  -0.403895  -0.381141  0  3.621509  0
N  N123  1  0.41937225  0.78815244  0.93404647  1  0  -0.455418  0  3.386066  0  0  -0.395159  0  3.627809  0  0  -0.415671  0  3.636609  0  -1.289248  0  -0.403924  -0.381247  0  3.621551  0
N  N124  1  0.41940181  0.71184885  0.43404987  1  0  -0.455057  0  3.385659  0  0  -0.394795  0  3.62747  0  0  -0.415301  0  3.636269  0  -1.289208  0  -0.403859  -0.380888  0  3.621207  0
N  N125  1  0.58060731  0.21185098  0.06595069  1  0  -0.455164  0  3.385834  0  0  -0.394957  0  3.627583  0  0  -0.415469  0  3.636382  0  -1.289372  0  -0.403891  -0.381048  0  3.621327  0
