# generated using pymatgen
data_CuH10C18(N2O3)2
_symmetry_space_group_name_H-M   'P 1'
_cell_length_a   7.34669875
_cell_length_b   7.25778796
_cell_length_c   14.68731310
_cell_angle_alpha   89.99943360
_cell_angle_beta   89.99993882
_cell_angle_gamma   96.33865108
_symmetry_Int_Tables_number   1
_chemical_formula_structural   CuH10C18(N2O3)2
_chemical_formula_sum   'Cu2 H20 C36 N8 O12'
_cell_volume   778.35145473
_cell_formula_units_Z   2
loop_
 _symmetry_equiv_pos_site_id
 _symmetry_equiv_pos_as_xyz
  1  'x, y, z'
loop_
 _atom_site_type_symbol
 _atom_site_label
 _atom_site_symmetry_multiplicity
 _atom_site_fract_x
 _atom_site_fract_y
 _atom_site_fract_z
 _atom_site_occupancy
 _atom_site_hle17_ddec_charge
 _atom_site_hle17_ddec_spin_density
 _atom_site_hle17_ddec_sum_bond_order
 _atom_site_hle17_magmom
 _atom_site_hse06_10hf_ddec_charge
 _atom_site_hse06_10hf_ddec_spin_density
 _atom_site_hse06_10hf_ddec_sum_bond_order
 _atom_site_hse06_10hf_magmom
 _atom_site_hse06_ddec_charge
 _atom_site_hse06_ddec_spin_density
 _atom_site_hse06_ddec_sum_bond_order
 _atom_site_hse06_magmom
 _atom_site_pbe_cm5_charge
 _atom_site_pbe_ddec_charge
 _atom_site_pbe_ddec_spin_density
 _atom_site_pbe_ddec_sum_bond_order
 _atom_site_pbe_magmom
Cu  Cu0  1  0.00000267  0.50000518  0.49999971  1  0.815183  -0.696416  1.878233  -0.51  0.780817  -0.776178  2.280072  -0.617  0.864175  -0.839605  2.215884  -0.698  0.757325  0.732876  -0.73229  2.322911  -0.564
Cu  Cu1  1  0.50000471  0.49999625  0.99999846  1  0.815083  -0.696401  1.87845  -0.51  0.780674  -0.776175  2.280303  -0.617  0.864007  -0.839606  2.216136  -0.698  0.757294  0.732745  -0.732291  2.323117  -0.564
H  H2  1  0.16092895  0.12917295  0.51253860  1  0.101779  -0.001434  0.952695  -0.003  0.105337  -0.00105  1.021383  -0.002  0.108364  -0.000714  1.017843  -0.002  0.122742  0.103084  -0.001343  1.024  -0.002
H  H3  1  0.33907494  0.87082191  0.01253653  1  0.101802  -0.001434  0.952695  -0.003  0.10531  -0.001051  1.021446  -0.002  0.108332  -0.000714  1.017913  -0.002  0.122729  0.103055  -0.001343  1.02406  -0.002
H  H4  1  0.83907060  0.87083115  0.48746125  1  0.101779  -0.001432  0.952759  -0.003  0.105346  -0.00105  1.02141  -0.002  0.108371  -0.000714  1.017874  -0.002  0.12274  0.103094  -0.001343  1.024025  -0.002
H  H5  1  0.66092669  0.12916145  0.98746945  1  0.101827  -0.001433  0.952785  -0.003  0.105255  -0.00105  1.021588  -0.002  0.108275  -0.000713  1.018051  -0.002  0.122696  0.103002  -0.001343  1.024207  -0.002
H  H6  1  0.25621083  0.91145405  0.39507477  1  0.119221  -0.00039  0.956405  0.0  0.121602  -0.000406  1.026719  0.0  0.125889  -0.0003  1.023478  0.0  0.108609  0.118493  -0.000491  1.029154  -0.001
H  H7  1  0.24378627  0.08853696  0.89506950  1  0.119195  -0.00039  0.956422  0.0  0.121604  -0.000406  1.026713  0.0  0.125884  -0.0003  1.023484  0.0  0.108633  0.1185  -0.000491  1.029146  -0.001
H  H8  1  0.74378831  0.08854590  0.60492781  1  0.119166  -0.000389  0.95642  0.0  0.121587  -0.000406  1.026698  0.0  0.125866  -0.0003  1.023479  0.0  0.10861  0.118485  -0.000491  1.029132  -0.001
H  H9  1  0.75621194  0.91145328  0.10494125  1  0.119177  -0.00039  0.956453  0.0  0.121586  -0.000406  1.026725  0.0  0.125855  -0.0003  1.023544  0.0  0.10865  0.118482  -0.000491  1.029156  -0.001
H  H10  1  0.23018712  0.99083039  0.22961409  1  0.110367  -0.000124  0.968015  0.0  0.117477  5.5e-05  1.031361  0.0  0.12139  7.5e-05  1.027848  0.0  0.109847  0.114615  2.5e-05  1.034015  0.0
H  H11  1  0.26982054  0.00916695  0.72961056  1  0.11037  -0.000123  0.967937  0.0  0.117447  5.5e-05  1.03134  0.0  0.121365  7.5e-05  1.027806  0.0  0.109856  0.114589  2.5e-05  1.033998  0.0
H  H12  1  0.76981368  0.00915850  0.77038508  1  0.1104  -0.000124  0.967999  0.0  0.117433  5.5e-05  1.031439  0.0  0.121351  7.5e-05  1.02791  0.0  0.109848  0.114575  2.5e-05  1.034095  0.0
H  H13  1  0.73018021  0.99084962  0.27039610  1  0.110361  -0.000124  0.967997  0.0  0.117455  5.5e-05  1.03137  0.0  0.121374  7.5e-05  1.027831  0.0  0.109833  0.114596  2.5e-05  1.034025  0.0
H  H14  1  0.03544053  0.54995540  0.08356807  1  0.122705  -0.000362  0.949207  0.0  0.128995  -0.000217  1.012378  0.0  0.131856  -0.00014  1.008835  0.0  0.114322  0.126876  -0.000295  1.014992  0.0
H  H15  1  0.46456507  0.45004493  0.58356844  1  0.122709  -0.000363  0.949203  0.0  0.129002  -0.000217  1.012378  0.0  0.131865  -0.00014  1.008831  0.0  0.114329  0.126886  -0.000295  1.014994  0.0
H  H16  1  0.96455469  0.45003203  0.91643042  1  0.122665  -0.000363  0.949146  0.0  0.128949  -0.000217  1.012346  0.0  0.13181  -0.00014  1.008801  0.0  0.114314  0.126829  -0.000295  1.014961  0.0
H  H17  1  0.53543595  0.54997442  0.41642869  1  0.122677  -0.000362  0.949219  0.0  0.128979  -0.000217  1.012375  0.0  0.13184  -0.00014  1.008827  0.0  0.114336  0.12686  -0.000295  1.01499  0.0
H  H18  1  0.95159623  0.74420492  0.21146006  1  0.125605  0.00028  0.936966  0.0  0.137659  7.2e-05  0.992149  0.0  0.141079  5.9e-05  0.991923  0.0  0.109992  0.135271  7.1e-05  0.992402  0.0
H  H19  1  0.54840736  0.25578932  0.71146294  1  0.125583  0.000279  0.936948  0.0  0.137664  7.2e-05  0.992088  0.0  0.14108  5.9e-05  0.991868  0.0  0.109979  0.135278  7.1e-05  0.992346  0.0
H  H20  1  0.04840933  0.25579095  0.78853706  1  0.125614  0.000279  0.936932  0.0  0.137701  7.2e-05  0.992058  0.0  0.141118  5.9e-05  0.991836  0.0  0.110003  0.135315  7.1e-05  0.992315  0.0
H  H21  1  0.45157679  0.74421042  0.28853215  1  0.125609  0.000278  0.936896  0.0  0.137696  7.2e-05  0.99204  0.0  0.141113  5.9e-05  0.991818  0.0  0.110005  0.135305  7.1e-05  0.992294  0.0
C  C22  1  0.15052969  0.15951017  0.44026186  1  0.15418  0.014205  3.637445  0.01  0.1174  0.004284  3.905463  0.003  0.127756  0.00597  3.920395  0.004  0.058286  0.110764  0.002948  3.89566  0.002
C  C23  1  0.34947702  0.84048279  0.94025836  1  0.154297  0.014193  3.637491  0.01  0.117559  0.004284  3.905492  0.003  0.127909  0.00597  3.920438  0.004  0.058353  0.110924  0.002949  3.895687  0.002
C  C24  1  0.84947504  0.84049123  0.55973663  1  0.15427  0.014196  3.637415  0.01  0.117536  0.004285  3.905377  0.003  0.127892  0.00597  3.920315  0.004  0.058324  0.110897  0.002949  3.895573  0.002
C  C25  1  0.65052379  0.15950610  0.05974353  1  0.154134  0.014191  3.637796  0.01  0.117499  0.004285  3.905721  0.003  0.127858  0.005971  3.920667  0.004  0.058315  0.11086  0.002949  3.895917  0.002
C  C26  1  0.20368766  0.03878868  0.37317431  1  -0.087772  -0.010165  3.690343  -0.011  -0.106686  -0.00435  3.957369  -0.005  -0.110941  -0.003917  3.97364  -0.005  -0.078652  -0.103829  -0.004728  3.946268  -0.006
C  C27  1  0.29631526  0.96120563  0.87317093  1  -0.087725  -0.010158  3.690253  -0.011  -0.106684  -0.004351  3.957353  -0.005  -0.110939  -0.003917  3.973617  -0.005  -0.078602  -0.103828  -0.004729  3.94626  -0.006
C  C28  1  0.79631518  0.96120716  0.62682759  1  -0.087782  -0.010165  3.690272  -0.011  -0.106759  -0.00435  3.957332  -0.005  -0.111021  -0.003916  3.973604  -0.005  -0.078651  -0.1039  -0.004728  3.946241  -0.006
C  C29  1  0.70367803  0.03879009  0.12683505  1  -0.087588  -0.010153  3.690413  -0.011  -0.106541  -0.00435  3.957421  -0.005  -0.110811  -0.003916  3.973681  -0.005  -0.078545  -0.103687  -0.004728  3.946322  -0.006
C  C30  1  0.18952635  0.08339184  0.28206836  1  -0.047184  0.013141  3.66606  0.008  -0.076682  0.004968  3.923952  0.003  -0.074085  0.005808  3.938486  0.003  -0.066406  -0.078391  0.004304  3.914098  0.002
C  C31  1  0.31047998  0.91660716  0.78206315  1  -0.047156  0.013128  3.665648  0.008  -0.076653  0.00497  3.923657  0.003  -0.07405  0.005807  3.938194  0.003  -0.066439  -0.078367  0.004304  3.913817  0.002
C  C32  1  0.81047240  0.91660394  0.71793285  1  -0.047123  0.013143  3.665882  0.008  -0.076551  0.004969  3.923849  0.003  -0.07395  0.005806  3.938384  0.003  -0.066394  -0.078265  0.004304  3.914008  0.002
C  C33  1  0.68952120  0.08339973  0.21793942  1  -0.047129  0.013124  3.66581  0.008  -0.076607  0.004969  3.923769  0.003  -0.073998  0.005806  3.938302  0.003  -0.06641  -0.07832  0.004304  3.913917  0.002
C  C34  1  0.12208494  0.25177037  0.25621301  1  0.001037  -0.00366  3.774912  -0.004  0.013788  -0.00169  4.010108  -0.002  0.014385  -0.00178  4.035402  -0.002  0.001284  0.01352  -0.001628  3.992953  -0.001
C  C35  1  0.37792573  0.74823061  0.75620926  1  0.001087  -0.003654  3.774582  -0.004  0.013774  -0.001691  4.009933  -0.002  0.014373  -0.00178  4.035221  -0.002  0.001228  0.013505  -0.001629  3.992784  -0.001
C  C36  1  0.87791966  0.74822964  0.74378753  1  0.001034  -0.003659  3.77466  -0.004  0.013708  -0.001691  4.009993  -0.002  0.014307  -0.001779  4.035286  -0.002  0.001232  0.013435  -0.001629  3.992846  -0.001
C  C37  1  0.62206674  0.25177063  0.24379264  1  0.001164  -0.003652  3.774578  -0.004  0.01381  -0.001691  4.010022  -0.002  0.014413  -0.001779  4.035303  -0.002  0.001284  0.013543  -0.001628  3.992858  -0.001
C  C38  1  0.10436106  0.32476730  0.16611399  1  -0.014396  0.00208  3.715861  0.001  -0.039968  0.000975  3.979373  0.0  -0.051356  0.001421  4.005435  0.001  0.06079  -0.03275  0.000621  3.961977  0.0
C  C39  1  0.39564826  0.67523137  0.66611194  1  -0.014484  0.002075  3.716025  0.001  -0.0401  0.000976  3.97956  0.0  -0.051492  0.00142  4.005629  0.001  0.060715  -0.032885  0.000621  3.962164  0.0
C  C40  1  0.89564138  0.67522438  0.83388587  1  -0.01447  0.002077  3.715835  0.001  -0.040026  0.000976  3.979404  0.0  -0.051419  0.001421  4.005474  0.001  0.060729  -0.032809  0.000621  3.962008  0.0
C  C41  1  0.60434637  0.32477820  0.33388723  1  -0.014619  0.002072  3.715781  0.001  -0.04029  0.000979  3.979372  0.0  -0.051686  0.001421  4.005443  0.001  0.060651  -0.03307  0.000621  3.961974  0.0
C  C42  1  0.04660057  0.50042743  0.15302949  1  -0.026129  -0.000164  3.71874  -0.001  -0.056454  -3.4e-05  3.987352  -0.001  -0.045267  -0.000218  4.001693  -0.001  -0.068195  -0.063562  0.000116  3.977428  -0.001
C  C43  1  0.45340349  0.49957284  0.65303031  1  -0.026151  -0.00016  3.718661  -0.001  -0.056475  -3.3e-05  3.987294  -0.001  -0.045287  -0.000218  4.001634  -0.001  -0.06819  -0.063585  0.000116  3.977371  -0.001
C  C44  1  0.95340064  0.49956562  0.84696831  1  -0.026108  -0.000162  3.71862  -0.001  -0.056436  -3.3e-05  3.987267  -0.001  -0.045251  -0.000218  4.001614  -0.001  -0.068176  -0.063542  0.000116  3.977342  -0.001
C  C45  1  0.54659304  0.50044230  0.34696818  1  -0.026149  -0.000159  3.718573  -0.001  -0.056457  -3.6e-05  3.987228  -0.001  -0.045271  -0.000218  4.001572  -0.001  -0.068221  -0.063568  0.000117  3.977304  -0.001
C  C46  1  0.99839155  0.60971676  0.22465952  1  -0.187668  -0.003361  3.689371  -0.005  -0.208364  -0.002623  3.947574  -0.003  -0.223063  -0.001095  3.967717  -0.002  -0.102871  -0.19864  -0.003854  3.933816  -0.005
C  C47  1  0.50161375  0.39028139  0.72466245  1  -0.187596  -0.003364  3.689424  -0.005  -0.208294  -0.002623  3.947599  -0.003  -0.222996  -0.001095  3.967755  -0.002  -0.102869  -0.198572  -0.003854  3.933846  -0.005
C  C48  1  0.00161701  0.39028192  0.77533761  1  -0.187673  -0.003361  3.689427  -0.005  -0.208358  -0.002623  3.947613  -0.003  -0.223058  -0.001095  3.967764  -0.002  -0.102905  -0.198637  -0.003854  3.933861  -0.005
C  C49  1  0.49837626  0.60972259  0.27533672  1  -0.18765  -0.003366  3.689404  -0.005  -0.208352  -0.002623  3.947623  -0.003  -0.223049  -0.001096  3.967772  -0.002  -0.102923  -0.198629  -0.003854  3.933861  -0.005
C  C50  1  0.00878282  0.54616032  0.31493920  1  0.31608  0.002485  3.868232  0.005  0.302776  -0.000358  4.136874  0.001  0.326421  -0.000355  4.150207  0.001  0.100604  0.286838  -0.000562  4.127521  0.002
C  C51  1  0.49122855  0.45383530  0.81494022  1  0.315939  0.002491  3.868567  0.005  0.302651  -0.000358  4.137214  0.001  0.326296  -0.000354  4.150556  0.001  0.100581  0.286714  -0.000562  4.127861  0.002
C  C52  1  0.99122165  0.45383831  0.68505725  1  0.315989  0.002489  3.868456  0.005  0.302645  -0.000358  4.13718  0.001  0.326291  -0.000353  4.150519  0.001  0.100542  0.286708  -0.000561  4.127829  0.002
C  C53  1  0.50876884  0.54616047  0.18505691  1  0.316074  0.002494  3.868468  0.005  0.302755  -0.000357  4.137186  0.001  0.326396  -0.000352  4.150527  0.001  0.100636  0.286817  -0.00056  4.127831  0.002
C  C54  1  0.07391420  0.36685333  0.32857111  1  0.07006  -0.000285  3.754302  -0.002  0.069338  -0.001508  3.98952  -0.002  0.067899  0.000495  4.015221  0.0  0.095531  0.070306  -0.003112  3.972623  -0.004
C  C55  1  0.42610186  0.63314899  0.82856925  1  0.070081  -0.000293  3.754211  -0.002  0.069361  -0.001508  3.989423  -0.002  0.067922  0.000495  4.015124  0.0  0.095632  0.070329  -0.003113  3.972525  -0.004
C  C56  1  0.92609339  0.63314949  0.67142738  1  0.070027  -0.000289  3.754208  -0.002  0.069323  -0.001508  3.98946  -0.002  0.067882  0.000494  4.015161  0.0  0.095572  0.070295  -0.003113  3.972562  -0.004
C  C57  1  0.57390001  0.36685099  0.17143060  1  0.069948  -0.000294  3.754271  -0.002  0.069233  -0.00151  3.989532  -0.002  0.067794  0.000495  4.015233  0.0  0.09556  0.070202  -0.003113  3.972632  -0.004
N  N58  1  0.08748843  0.31808087  0.41751533  1  -0.311962  -0.072057  3.377384  -0.092  -0.268994  -0.049003  3.67771  -0.066  -0.296791  -0.040688  3.699085  -0.059  -0.360036  -0.252781  -0.053632  3.665365  -0.069
N  N59  1  0.41252274  0.68191539  0.91751325  1  -0.312174  -0.072054  3.377661  -0.092  -0.269127  -0.049005  3.6779  -0.066  -0.296919  -0.04069  3.699266  -0.059  -0.36017  -0.252914  -0.053633  3.665551  -0.069
N  N60  1  0.91251740  0.68191777  0.58248179  1  -0.312083  -0.072052  3.377516  -0.092  -0.269095  -0.049003  3.677798  -0.066  -0.296891  -0.040689  3.699165  -0.059  -0.360103  -0.252882  -0.053631  3.665453  -0.069
N  N61  1  0.58747574  0.31807762  0.08248660  1  -0.312061  -0.072047  3.377645  -0.092  -0.269  -0.049001  3.677791  -0.066  -0.296792  -0.040687  3.699153  -0.059  -0.360099  -0.252791  -0.053629  3.665443  -0.069
N  N62  1  0.14532519  0.22402958  0.08690368  1  0.466475  0.002679  3.955728  0.002  0.517358  0.001575  4.224824  0.001  0.539449  0.001351  4.236331  0.001  0.029579  0.502619  0.001704  4.217041  0.001
N  N63  1  0.35467986  0.77596514  0.58690049  1  0.466553  0.002681  3.956018  0.002  0.517592  0.001573  4.22487  0.001  0.53968  0.001351  4.236383  0.001  0.029733  0.502849  0.001704  4.217089  0.001
N  N64  1  0.85467452  0.77596206  0.91309481  1  0.466557  0.002682  3.956049  0.002  0.517414  0.001574  4.225179  0.001  0.539505  0.001351  4.236689  0.001  0.029604  0.502673  0.001704  4.217395  0.001
N  N65  1  0.64531927  0.22404865  0.41309868  1  0.466854  0.002684  3.955973  0.002  0.518039  0.001575  4.22465  0.001  0.54013  0.001351  4.23616  0.001  0.029959  0.503298  0.001704  4.216872  0.001
O  O66  1  0.96337642  0.63751504  0.38577675  1  -0.507123  -0.100495  2.048407  -0.136  -0.484578  -0.066426  2.327461  -0.098  -0.52843  -0.050257  2.32847  -0.08  -0.308925  -0.455444  -0.077532  2.326493  -0.109
O  O67  1  0.53663127  0.36248396  0.88577980  1  -0.507011  -0.100501  2.0485  -0.136  -0.484464  -0.066428  2.327572  -0.099  -0.528283  -0.050259  2.328522  -0.08  -0.308891  -0.455334  -0.077531  2.326603  -0.109
O  O68  1  0.03663090  0.36248501  0.61422106  1  -0.506955  -0.100499  2.048431  -0.136  -0.484399  -0.066429  2.32749  -0.099  -0.528237  -0.050259  2.328468  -0.08  -0.308813  -0.455267  -0.077533  2.326521  -0.109
O  O69  1  0.46336665  0.63751735  0.11421869  1  -0.507054  -0.100496  2.04842  -0.136  -0.484458  -0.066428  2.327484  -0.099  -0.528282  -0.050258  2.328455  -0.08  -0.308883  -0.455326  -0.077535  2.326509  -0.109
O  O70  1  0.16709569  0.30935216  0.01202319  1  -0.429212  0.001917  1.800956  0.0  -0.421236  0.001255  2.029319  0.0  -0.436444  0.001356  2.022013  0.0  -0.162394  -0.411717  0.001137  2.034949  0.0
O  O71  1  0.33289730  0.69064257  0.51202179  1  -0.429249  0.001916  1.801084  0.0  -0.421398  0.001257  2.029451  0.0  -0.436615  0.001355  2.02216  0.0  -0.162505  -0.411879  0.001137  2.03508  0.0
O  O72  1  0.83290442  0.69064365  0.98797461  1  -0.429236  0.001916  1.80108  0.0  -0.42126  0.001256  2.029468  0.0  -0.436463  0.001354  2.02216  0.0  -0.16243  -0.41174  0.001137  2.035097  0.0
O  O73  1  0.66709228  0.30937109  0.48797738  1  -0.429203  0.001915  1.800926  0.0  -0.42142  0.001256  2.029256  0.0  -0.436619  0.001353  2.021924  0.0  -0.162441  -0.411901  0.001137  2.034893  0.0
O  O74  1  0.15990807  0.05388097  0.09299710  1  -0.383651  0.003923  1.775377  0.003  -0.359177  0.002572  1.971728  0.002  -0.3702  0.002733  1.968098  0.002  -0.142783  -0.351717  0.002395  1.974353  0.002
O  O75  1  0.34010786  0.94611377  0.59299105  1  -0.383628  0.003923  1.775478  0.003  -0.35915  0.00257  1.971696  0.002  -0.370175  0.002733  1.968067  0.002  -0.142759  -0.351678  0.002395  1.974304  0.002
O  O76  1  0.84010676  0.94611226  0.90700207  1  -0.383651  0.003923  1.775597  0.003  -0.359108  0.002571  1.971912  0.002  -0.370132  0.002734  1.968285  0.002  -0.142704  -0.351635  0.002395  1.974524  0.002
O  O77  1  0.65989536  0.05390008  0.40701152  1  -0.383911  0.003922  1.775645  0.003  -0.359533  0.00257  1.97188  0.002  -0.370558  0.002734  1.968242  0.002  -0.143031  -0.352068  0.002395  1.974491  0.002
