# generated using pymatgen
data_Zn2H25C36N3O7
_symmetry_space_group_name_H-M   'P 1'
_cell_length_a   6.93616854
_cell_length_b   21.86216667
_cell_length_c   24.07737103
_cell_angle_alpha   107.06379094
_cell_angle_beta   89.99994102
_cell_angle_gamma   89.99955153
_symmetry_Int_Tables_number   1
_chemical_formula_structural   Zn2H25C36N3O7
_chemical_formula_sum   'Zn8 H100 C144 N12 O28'
_cell_volume   3490.35897662
_cell_formula_units_Z   4
loop_
 _symmetry_equiv_pos_site_id
 _symmetry_equiv_pos_as_xyz
  1  'x, y, z'
loop_
 _atom_site_type_symbol
 _atom_site_label
 _atom_site_symmetry_multiplicity
 _atom_site_fract_x
 _atom_site_fract_y
 _atom_site_fract_z
 _atom_site_occupancy
 _atom_site_pbe_bader_charge
 _atom_site_pbe_bader_spin_density
 _atom_site_pbe_cm5_charge
 _atom_site_pbe_ddec_charge
 _atom_site_pbe_ddec_spin_density
 _atom_site_pbe_ddec_sum_bond_order
 _atom_site_pbe_magmom
Zn  Zn0  1  0.53331863  0.75688482  0.56545448  1  1.263863  0  0.665756  0.847603  0  2.36491  0
Zn  Zn1  1  0.96669281  0.75689151  0.06545887  1  1.263801  0  0.665823  0.847676  0  2.364921  0
Zn  Zn2  1  0.46668468  0.24311540  0.43454678  1  1.263596  0  0.665804  0.847712  0  2.36485  0
Zn  Zn3  1  0.03332204  0.24311069  0.93454621  1  1.263741  0  0.665806  0.847692  0  2.364872  0
Zn  Zn4  1  0.52060608  0.73605860  0.41807582  1  1.240054  0  0.681038  0.778226  0  2.388501  0
Zn  Zn5  1  0.97939592  0.73606180  0.91808083  1  1.240056  0  0.681055  0.778172  0  2.388609  0
Zn  Zn6  1  0.47938569  0.26394058  0.58192145  1  1.240073  0  0.681003  0.778233  0  2.388518  0
Zn  Zn7  1  0.02060450  0.26394133  0.08192367  1  1.240069  0  0.681049  0.778185  0  2.388547  0
H  H8  1  0.32652914  0.59518393  0.61028179  1  0.088103  0  0.101569  0.103151  0  1.019294  0
H  H9  1  0.17348015  0.59519074  0.11027551  1  0.088262  0  0.101613  0.10321  0  1.019266  0
H  H10  1  0.67347272  0.40481160  0.38972287  1  0.088416  0  0.101583  0.103175  0  1.019326  0
H  H11  1  0.82653614  0.40481655  0.88972296  1  0.08832  0  0.101589  0.103139  0  1.01934  0
H  H12  1  0.85509004  0.63917144  0.51390227  1  0.113081  0  0.10674  0.111764  0  1.013163  0
H  H13  1  0.64495189  0.63917946  0.01390460  1  0.112918  0  0.106672  0.111679  0  1.01307  0
H  H14  1  0.14493201  0.36082354  0.48609893  1  0.112862  0  0.106686  0.111723  0  1.013063  0
H  H15  1  0.35508314  0.36082449  0.98609345  1  0.113255  0  0.10673  0.111708  0  1.013148  0
H  H16  1  0.09234569  0.89792931  0.60567932  1  0.088352  0  0.102338  0.103024  0  1.030448  0
H  H17  1  0.40764315  0.89793222  0.10567738  1  0.088295  0  0.102349  0.10308  0  1.030495  0
H  H18  1  0.90764609  0.10207233  0.39432147  1  0.088141  0  0.102313  0.102986  0  1.030384  0
H  H19  1  0.59234574  0.10207560  0.89432372  1  0.088069  0  0.102317  0.102978  0  1.030495  0
H  H20  1  0.54917168  0.99823603  0.55040496  1  0.117979  0  0.099689  0.099182  0  1.043049  0
H  H21  1  0.95081076  0.99824451  0.05040191  1  0.117809  0  0.099731  0.09921  0  1.042938  0
H  H22  1  0.45082298  0.00176131  0.44959517  1  0.117906  0  0.099688  0.099183  0  1.043042  0
H  H23  1  0.04917092  0.00175846  0.94959465  1  0.117931  0  0.099676  0.099151  0  1.043017  0
H  H24  1  0.60984534  0.81204898  0.80601924  1  0.095939  0  0.104861  0.110971  0  0.998549  0
H  H25  1  0.89014798  0.81205197  0.30601816  1  0.095851  0  0.104922  0.111028  0  0.998535  0
H  H26  1  0.39015076  0.18794798  0.19398578  1  0.095867  0  0.104859  0.110912  0  0.998631  0
H  H27  1  0.10984235  0.18794585  0.69398251  1  0.095779  0  0.104918  0.11104  0  0.998533  0
H  H28  1  0.60183841  0.68802135  0.65415177  1  0.10338  0  0.116944  0.091761  0  1.011328  0
H  H29  1  0.89817296  0.68802433  0.15415151  1  0.103193  0  0.116928  0.091764  0  1.01128  0
H  H30  1  0.39817499  0.31197745  0.34585039  1  0.103142  0  0.116955  0.09178  0  1.011331  0
H  H31  1  0.10183179  0.31197922  0.84585017  1  0.10335  0  0.116902  0.091725  0  1.011311  0
H  H32  1  0.87094525  0.67384131  0.71770713  1  0.104442  0  0.109963  0.118773  0  1.004288  0
H  H33  1  0.62905614  0.67384212  0.21770351  1  0.104636  0  0.109924  0.118733  0  1.004328  0
H  H34  1  0.12906382  0.32615559  0.28229496  1  0.10453  0  0.109949  0.118716  0  1.004362  0
H  H35  1  0.37093852  0.32615899  0.78229507  1  0.104523  0  0.109961  0.118802  0  1.004288  0
H  H36  1  0.33440787  0.82913168  0.74600392  1  0.04865  0  0.104293  0.10624  0  0.995393  0
H  H37  1  0.16558936  0.82912955  0.24600163  1  0.048618  0  0.104319  0.106285  0  0.995494  0
H  H38  1  0.66558390  0.17086866  0.25400319  1  0.048495  0  0.104303  0.106265  0  0.995538  0
H  H39  1  0.83440530  0.17086635  0.75399814  1  0.048515  0  0.104271  0.106224  0  0.995523  0
H  H40  1  0.15795270  0.63339045  0.71876659  1  0.067502  0  0.101448  0.102149  0  1.016913  0
H  H41  1  0.34204516  0.63339406  0.21876609  1  0.06756  0  0.101462  0.102239  0  1.016946  0
H  H42  1  0.84205350  0.36660446  0.28123127  1  0.067478  0  0.101422  0.102145  0  1.016888  0
H  H43  1  0.65795238  0.36660275  0.78123141  1  0.067546  0  0.101427  0.102143  0  1.016891  0
H  H44  1  0.91128870  0.82027610  0.59804804  1  0.109472  0  0.120902  0.091506  0  1.002788  0
H  H45  1  0.58870951  0.82027851  0.09804774  1  0.109608  0  0.120906  0.091472  0  1.002773  0
H  H46  1  0.08871461  0.17972368  0.40195519  1  0.109648  0  0.120919  0.091522  0  1.002727  0
H  H47  1  0.41128083  0.17971979  0.90195304  1  0.109589  0  0.120896  0.091476  0  1.002703  0
H  H48  1  0.43786093  0.61701340  0.77762750  1  0.104591  0  0.104514  0.109832  0  1.003933  0
H  H49  1  0.06214865  0.61701736  0.27762926  1  0.104676  0  0.104486  0.109767  0  1.004019  0
H  H50  1  0.56214527  0.38298339  0.22236917  1  0.104646  0  0.104484  0.109805  0  1.00397  0
H  H51  1  0.93785754  0.38298138  0.72236997  1  0.104705  0  0.104466  0.109777  0  1.00403  0
H  H52  1  0.19466395  0.81216621  0.65808768  1  0.116825  0  0.109332  0.125021  0  1.029174  0
H  H53  1  0.30532682  0.81217184  0.15808812  1  0.116568  0  0.109333  0.12501  0  1.029078  0
H  H54  1  0.80533359  0.18782733  0.34191275  1  0.116599  0  0.109329  0.125066  0  1.029036  0
H  H55  1  0.69465630  0.18783023  0.84191071  1  0.116702  0  0.109323  0.125045  0  1.029117  0
H  H56  1  0.09488847  0.12869523  0.51450140  1  0.148628  0  0.112186  0.128188  0  1.022471  0
H  H57  1  0.40511830  0.12869622  0.01449815  1  0.148673  0  0.112194  0.128236  0  1.02248  0
H  H58  1  0.90510763  0.87130354  0.48549909  1  0.148599  0  0.112165  0.128195  0  1.022442  0
H  H59  1  0.59487925  0.87130579  0.98549817  1  0.148694  0  0.112198  0.128171  0  1.022486  0
H  H60  1  0.74620233  0.07787066  0.64313165  1  0.083015  0  0.111127  0.116778  0  0.995572  0
H  H61  1  0.75378380  0.07786974  0.14313046  1  0.083361  0  0.111122  0.116813  0  0.995603  0
H  H62  1  0.25379088  0.92213144  0.35686884  1  0.083016  0  0.111158  0.116827  0  0.995505  0
H  H63  1  0.24620365  0.92213283  0.85686932  1  0.083267  0  0.111136  0.116807  0  0.99548  0
H  H64  1  0.52743924  0.16739006  0.64186116  1  0.124683  0  0.119145  0.096414  0  1.006051  0
H  H65  1  0.97254612  0.16739048  0.14186231  1  0.124721  0  0.119179  0.096514  0  1.006054  0
H  H66  1  0.47255253  0.83261064  0.35814023  1  0.124741  0  0.119171  0.096488  0  1.006029  0
H  H67  1  0.02744133  0.83261254  0.85813633  1  0.124638  0  0.119131  0.096425  0  1.006064  0
H  H68  1  0.86323998  0.98330175  0.60372402  1  0.103553  0  0.10125  0.105927  0  1.023547  0
H  H69  1  0.63674120  0.98330689  0.10372356  1  0.103598  0  0.101285  0.105988  0  1.023484  0
H  H70  1  0.13675180  0.01669940  0.39627665  1  0.103531  0  0.101264  0.105949  0  1.023548  0
H  H71  1  0.36324048  0.01670193  0.89627945  1  0.103544  0  0.10126  0.105941  0  1.023554  0
H  H72  1  0.86401516  0.21724661  0.51949811  1  0.183643  0  0.121121  0.109256  0  1.035116  0
H  H73  1  0.63598817  0.21724941  0.01949955  1  0.18361  0  0.121091  0.109201  0  1.035149  0
H  H74  1  0.13598238  0.78275115  0.48049964  1  0.18362  0  0.121105  0.109184  0  1.035167  0
H  H75  1  0.36400793  0.78275312  0.98049856  1  0.183734  0  0.121073  0.109159  0  1.035148  0
H  H76  1  0.32565033  0.08666361  0.55059136  1  0.087337  0  0.101628  0.10467  0  1.032034  0
H  H77  1  0.17433860  0.08667046  0.05058716  1  0.101912  0  0.101677  0.104753  0  1.032097  0
H  H78  1  0.67434577  0.91333324  0.44940823  1  0.102176  0  0.101666  0.104726  0  1.032041  0
H  H79  1  0.82564020  0.91333197  0.94940635  1  0.102195  0  0.10166  0.10476  0  1.03197  0
H  H80  1  0.04068190  0.41664203  0.60935390  1  0.096374  0  0.109688  0.12252  0  1.034599  0
H  H81  1  0.45930874  0.41664669  0.10935113  1  0.096283  0  0.109677  0.122532  0  1.034549  0
H  H82  1  0.95930843  0.58335733  0.39065214  1  0.096294  0  0.109663  0.12247  0  1.034616  0
H  H83  1  0.54069456  0.58336166  0.89065217  1  0.096252  0  0.109654  0.122445  0  1.034578  0
H  H84  1  0.87221422  0.31983586  0.60976466  1  0.122341  0  0.11945  0.085933  0  1.021727  0
H  H85  1  0.62776461  0.31983865  0.10976486  1  0.12221  0  0.119446  0.085881  0  1.021776  0
H  H86  1  0.12777323  0.68016245  0.39023655  1  0.12222  0  0.119439  0.085848  0  1.021861  0
H  H87  1  0.37222284  0.68016836  0.89024268  1  0.122089  0  0.119516  0.085972  0  1.02177  0
H  H88  1  0.66551816  0.54921167  0.52976783  1  0.055962  0  0.09835  0.094855  0  1.030752  0
H  H89  1  0.83449709  0.54921438  0.02976918  1  0.055881  0  0.098359  0.094847  0  1.030828  0
H  H90  1  0.33448947  0.45078516  0.47023093  1  0.055959  0  0.098346  0.094816  0  1.030824  0
H  H91  1  0.16551198  0.45078436  0.97022963  1  0.05603  0  0.098362  0.094838  0  1.030823  0
H  H92  1  0.13966768  0.50662453  0.62891525  1  0.057995  0  0.104259  0.106313  0  1.005716  0
H  H93  1  0.36033653  0.50662888  0.12890746  1  0.058277  0  0.104242  0.106228  0  1.005785  0
H  H94  1  0.86033707  0.49337151  0.37109120  1  0.058207  0  0.104269  0.106313  0  1.005735  0
H  H95  1  0.63967976  0.49337553  0.87108988  1  0.057992  0  0.104254  0.106329  0  1.005739  0
H  H96  1  0.34827721  0.38824689  0.57072339  1  0.09707  0  0.121142  0.094587  0  1.002244  0
H  H97  1  0.15172004  0.38824404  0.07073006  1  0.109718  0  0.121142  0.094545  0  1.002283  0
H  H98  1  0.65171601  0.61175314  0.42926911  1  0.109681  0  0.121148  0.094575  0  1.002309  0
H  H99  1  0.84828327  0.61175424  0.92926989  1  0.109709  0  0.121131  0.094559  0  1.002363  0
H  H100  1  0.49693873  0.48974147  0.56568038  1  0.070363  0  0.103692  0.106586  0  1.039087  0
H  H101  1  0.00306756  0.48973648  0.06567868  1  0.070476  0  0.103696  0.106558  0  1.039154  0
H  H102  1  0.50306890  0.51026014  0.43431915  1  0.070442  0  0.103702  0.106596  0  1.039068  0
H  H103  1  0.99693430  0.51025979  0.93431579  1  0.070441  0  0.103709  0.106575  0  1.03915  0
H  H104  1  0.68580725  0.80328758  0.50389178  1  0.590525  0  0.267734  0.349914  0  1.006866  0
H  H105  1  0.81420326  0.80329663  0.00389764  1  0.590328  0  0.267709  0.349917  0  1.006807  0
H  H106  1  0.31419606  0.19670687  0.49610680  1  0.590418  0  0.267716  0.349919  0  1.006821  0
H  H107  1  0.18580582  0.19670943  0.99611008  1  0.590462  0  0.267699  0.349879  0  1.006878  0
C  C108  1  0.46887652  0.88708757  0.57359523  1  1.559044  0  0.202381  0.567694  0  4.218329  0
C  C109  1  0.03110982  0.88709395  0.07359471  1  1.55907  0  0.202282  0.567508  0  4.21868  0
C  C110  1  0.53111813  0.11291027  0.42640627  1  1.559142  0  0.202424  0.567845  0  4.218232  0
C  C111  1  0.96887331  0.11291056  0.92640722  1  1.558966  0  0.202346  0.567776  0  4.2183  0
C  C112  1  0.10364073  0.62128406  0.55970428  1  -0.046012  0  -0.015276  -0.024892  0  3.959456  0
C  C113  1  0.39637963  0.62129175  0.05970147  1  -0.046739  0  -0.015593  -0.025542  0  3.959796  0
C  C114  1  0.89636834  0.37871042  0.44029596  1  -0.046286  0  -0.015512  -0.025391  0  3.95962  0
C  C115  1  0.60363665  0.37870976  0.94029348  1  -0.046255  0  -0.015462  -0.02532  0  3.959668  0
C  C116  1  0.21793229  0.67508991  0.54911837  1  1.577114  0  0.197411  0.556031  0  4.245991  0
C  C117  1  0.28208822  0.67509560  0.04911799  1  1.576727  0  0.197322  0.556138  0  4.245417  0
C  C118  1  0.78207823  0.32490599  0.45088140  1  1.576827  0  0.197445  0.556171  0  4.245648  0
C  C119  1  0.71794104  0.32490934  0.95088155  1  1.576772  0  0.197424  0.556098  0  4.245726  0
C  C120  1  0.18203600  0.58396863  0.59247266  1  -0.074776  0  -0.088455  -0.102385  0  4.00881  0
C  C121  1  0.31798517  0.58397892  0.09246970  1  -0.074544  0  -0.088396  -0.102241  0  4.008749  0
C  C122  1  0.81797164  0.41602733  0.40753003  1  -0.07475  0  -0.088362  -0.102179  0  4.008834  0
C  C123  1  0.68203400  0.41602740  0.90752770  1  -0.074892  0  -0.088382  -0.102128  0  4.008856  0
C  C124  1  0.91573769  0.60872680  0.53817470  1  -0.011446  0  -0.080281  -0.087631  0  3.968461  0
C  C125  1  0.58429049  0.60873404  0.03817728  1  -0.012338  0  -0.080132  -0.087448  0  3.968186  0
C  C126  1  0.08427860  0.39127007  0.46182573  1  -0.011917  0  -0.080182  -0.087503  0  3.968217  0
C  C127  1  0.41572868  0.39126989  0.96181952  1  -0.01243  0  -0.080188  -0.087391  0  3.968312  0
C  C128  1  0.33565386  0.94272658  0.57858525  1  -0.020034  0  -0.021078  -0.03479  0  3.970468  0
C  C129  1  0.16433397  0.94273254  0.07858250  1  -0.018961  0  -0.021045  -0.035084  0  3.970827  0
C  C130  1  0.66434368  0.05727218  0.42141482  1  -0.019906  0  -0.021054  -0.034889  0  3.970403  0
C  C131  1  0.83564771  0.05727283  0.92141508  1  -0.019897  0  -0.021087  -0.034896  0  3.970442  0
C  C132  1  0.69701868  0.70337775  0.83517470  1  1.566478  0  0.19323  0.554518  0  4.245906  0
C  C133  1  0.80298876  0.70338245  0.33517573  1  1.56639  0  0.193134  0.554241  0  4.246252  0
C  C134  1  0.30298463  0.29661916  0.16482782  1  1.566749  0  0.193206  0.554454  0  4.245944  0
C  C135  1  0.19701166  0.29661393  0.66482416  1  1.566618  0  0.193232  0.554471  0  4.245847  0
C  C136  1  0.14235839  0.94000780  0.59460830  1  -0.02367  0  -0.085088  -0.086832  0  3.984011  0
C  C137  1  0.35763089  0.94000939  0.09460439  1  -0.023827  0  -0.085146  -0.086775  0  3.983784  0
C  C138  1  0.85763627  0.05999289  0.40539309  1  -0.023569  0  -0.085053  -0.086641  0  3.983714  0
C  C139  1  0.64235367  0.05999505  0.90539420  1  -0.023372  0  -0.08502  -0.086704  0  3.983922  0
C  C140  1  0.39929499  0.99636394  0.56326354  1  -0.075145  0  -0.087673  -0.097882  0  3.987138  0
C  C141  1  0.10069445  0.99636958  0.06325990  1  -0.075175  0  -0.087696  -0.097796  0  3.987372  0
C  C142  1  0.60069967  0.00363290  0.43673521  1  -0.075107  0  -0.087689  -0.097801  0  3.987204  0
C  C143  1  0.89929011  0.00363481  0.93673618  1  -0.075024  0  -0.087647  -0.097753  0  3.987197  0
C  C144  1  0.53878429  0.71379429  0.79615603  1  -0.056284  0  -0.018779  -0.038265  0  3.974531  0
C  C145  1  0.96122304  0.71380291  0.29616048  1  -0.05578  0  -0.018794  -0.038104  0  3.974305  0
C  C146  1  0.46121614  0.28619969  0.20384326  1  -0.056376  0  -0.018807  -0.038236  0  3.97448  0
C  C147  1  0.03878316  0.28619780  0.70384132  1  -0.055964  0  -0.018796  -0.038167  0  3.974441  0
C  C148  1  0.51040191  0.77319314  0.78632326  1  -0.018465  0  -0.083419  -0.089054  0  3.99006  0
C  C149  1  0.98960831  0.77319828  0.28632434  1  -0.019044  0  -0.083423  -0.089089  0  3.989962  0
C  C150  1  0.48959996  0.22680379  0.21368051  1  -0.018282  0  -0.083355  -0.088839  0  3.989929  0
C  C151  1  0.01040077  0.22680243  0.71367746  1  -0.018961  0  -0.083423  -0.089074  0  3.989861  0
C  C152  1  0.05803456  0.74217714  0.69419490  1  -0.013112  0  0.016338  0.115613  0  3.969646  0
C  C153  1  0.44196790  0.74217950  0.19419322  1  -0.013182  0  0.016311  0.115595  0  3.969573  0
C  C154  1  0.94197019  0.25781973  0.30580594  1  -0.013052  0  0.016283  0.115585  0  3.9696  0
C  C155  1  0.55802532  0.25782022  0.80580667  1  -0.013192  0  0.016402  0.115667  0  3.969637  0
C  C156  1  0.73593805  0.71472478  0.65715075  1  0.446457  0  0.047279  0.099187  0  3.956413  0
C  C157  1  0.76406544  0.71472575  0.15715045  1  0.446138  0  0.04724  0.099062  0  3.956454  0
C  C158  1  0.26407103  0.28527445  0.34284902  1  0.446398  0  0.047249  0.099072  0  3.956377  0
C  C159  1  0.23593643  0.28527446  0.84285081  1  0.446309  0  0.047295  0.099135  0  3.95649  0
C  C160  1  0.88713971  0.70708525  0.69210696  1  -0.006758  0  -0.081917  -0.173431  0  3.945404  0
C  C161  1  0.61285663  0.70708852  0.19210563  1  -0.00656  0  -0.081816  -0.173363  0  3.945555  0
C  C162  1  0.11285783  0.29290972  0.30789341  1  -0.006862  0  -0.081852  -0.173369  0  3.945568  0
C  C163  1  0.38713803  0.29291401  0.80789248  1  -0.006812  0  -0.081943  -0.173515  0  3.945496  0
C  C164  1  0.22477941  0.73269244  0.72866684  1  0.035196  0  -0.003339  0.065762  0  3.985824  0
C  C165  1  0.27523469  0.73269293  0.22866766  1  0.035704  0  -0.003291  0.065996  0  3.985697  0
C  C166  1  0.77523255  0.26730583  0.27133269  1  0.035997  0  -0.003231  0.066088  0  3.985706  0
C  C167  1  0.72476429  0.26730391  0.77133151  1  0.035776  0  -0.003321  0.065989  0  3.985825  0
C  C168  1  0.35626489  0.78236272  0.75260683  1  -0.034528  0  -0.085638  -0.127564  0  3.973387  0
C  C169  1  0.14374502  0.78236305  0.25260516  1  -0.034619  0  -0.085744  -0.127729  0  3.973453  0
C  C170  1  0.64373554  0.21763668  0.24740130  1  -0.035105  0  -0.085786  -0.127897  0  3.973556  0
C  C171  1  0.85626262  0.21763482  0.74739801  1  -0.034628  0  -0.085666  -0.127681  0  3.973432  0
C  C172  1  0.25584916  0.67288648  0.73805359  1  -0.10909  0  -0.087353  -0.121475  0  3.965262  0
C  C173  1  0.24416062  0.67288851  0.23805563  1  -0.109501  0  -0.087419  -0.121859  0  3.965432  0
C  C174  1  0.74415848  0.32710986  0.26194463  1  -0.109408  0  -0.087406  -0.121719  0  3.965388  0
C  C175  1  0.75583980  0.32710834  0.76194437  1  -0.109406  0  -0.087371  -0.121679  0  3.965374  0
C  C176  1  0.90821240  0.78948711  0.62634573  1  0.484779  0  0.052761  0.112102  0  3.936992  0
C  C177  1  0.59179944  0.78949099  0.12634788  1  0.484291  0  0.052832  0.112179  0  3.936721  0
C  C178  1  0.09180676  0.21051115  0.37365297  1  0.484332  0  0.052811  0.112106  0  3.936783  0
C  C179  1  0.40819954  0.21050729  0.87365207  1  0.484078  0  0.052863  0.112245  0  3.936612  0
C  C180  1  0.41192386  0.66339689  0.77070404  1  -0.052509  0  -0.085763  -0.097718  0  3.993457  0
C  C181  1  0.08807451  0.66340082  0.27070787  1  -0.052414  0  -0.085755  -0.097581  0  3.993178  0
C  C182  1  0.58807369  0.33660088  0.22929412  1  -0.052255  0  -0.085695  -0.097591  0  3.993244  0
C  C183  1  0.91192592  0.33659841  0.72929191  1  -0.052238  0  -0.085775  -0.097697  0  3.9934  0
C  C184  1  0.06492839  0.78505875  0.66073979  1  -0.005214  0  -0.081916  -0.175546  0  3.921511  0
C  C185  1  0.43507169  0.78506450  0.16074021  1  -0.005251  0  -0.081922  -0.175538  0  3.921141  0
C  C186  1  0.93507636  0.21493570  0.33925879  1  -0.005194  0  -0.081888  -0.175593  0  3.921113  0
C  C187  1  0.56492296  0.21493950  0.83925993  1  -0.005084  0  -0.08192  -0.175586  0  3.921455  0
C  C188  1  0.94283097  0.09504359  0.57884410  1  0.032994  0  0.018664  0.117485  0  3.960639  0
C  C189  1  0.55716507  0.09504703  0.07884324  1  0.032771  0  0.018724  0.117611  0  3.960746  0
C  C190  1  0.05717378  0.90495664  0.42115759  1  0.032571  0  0.018678  0.117586  0  3.960778  0
C  C191  1  0.44282094  0.90495599  0.92115541  1  0.03267  0  0.018675  0.117576  0  3.960782  0
C  C192  1  0.97315706  0.13602565  0.54430206  1  -0.078466  0  -0.075193  -0.156548  0  3.89712  0
C  C193  1  0.52684674  0.13602676  0.04429938  1  -0.078648  0  -0.075136  -0.156522  0  3.897187  0
C  C194  1  0.02684480  0.86397552  0.45569903  1  -0.078403  0  -0.075189  -0.156602  0  3.89736  0
C  C195  1  0.47315080  0.86397621  0.95569676  1  -0.078549  0  -0.075271  -0.156592  0  3.897147  0
C  C196  1  0.77781314  0.10674173  0.61430778  1  -0.066721  0  -0.081318  -0.17701  0  3.960947  0
C  C197  1  0.72217960  0.10674424  0.11430705  1  -0.06687  0  -0.081383  -0.17717  0  3.961404  0
C  C198  1  0.22219017  0.89325993  0.38569426  1  -0.066339  0  -0.081314  -0.177088  0  3.960972  0
C  C199  1  0.27781074  0.89325829  0.88569106  1  -0.066761  0  -0.081337  -0.177065  0  3.960987  0
C  C200  1  0.65524053  0.15679922  0.61438155  1  0.453693  0  0.044401  0.092517  0  3.960189  0
C  C201  1  0.84476106  0.15679605  0.11437561  1  0.453726  0  0.044297  0.092332  0  3.960504  0
C  C202  1  0.34475701  0.84320343  0.38562282  1  0.45366  0  0.044292  0.092364  0  3.960472  0
C  C203  1  0.15523648  0.84320166  0.88561963  1  0.453712  0  0.04442  0.092445  0  3.96046  0
C  C204  1  0.07789588  0.04287160  0.57877160  1  -0.070025  0  -0.006241  0.059343  0  3.983082  0
C  C205  1  0.42209403  0.04287636  0.07876845  1  -0.069486  0  -0.006213  0.059129  0  3.982932  0
C  C206  1  0.92210454  0.95712670  0.42122919  1  -0.069927  0  -0.006108  0.059444  0  3.982945  0
C  C207  1  0.57788333  0.95712759  0.92122918  1  -0.070011  0  -0.006185  0.059282  0  3.983105  0
C  C208  1  0.01482484  0.98892292  0.59432834  1  -0.029089  0  -0.087815  -0.125177  0  3.962123  0
C  C209  1  0.48515602  0.98892847  0.09432579  1  -0.029786  0  -0.087919  -0.125216  0  3.961753  0
C  C210  1  0.98516982  0.01107728  0.40567251  1  -0.029029  0  -0.087958  -0.125393  0  3.961951  0
C  C211  1  0.51482133  0.01107886  0.90567435  1  -0.029176  0  -0.087923  -0.12526  0  3.962132  0
C  C212  1  0.84421927  0.18525290  0.54638462  1  0.410302  0  0.047694  0.094292  0  3.902678  0
C  C213  1  0.65577465  0.18525516  0.04638593  1  0.411103  0  0.047668  0.094303  0  3.902649  0
C  C214  1  0.15577394  0.81474583  0.45361420  1  0.411021  0  0.047677  0.0943  0  3.902729  0
C  C215  1  0.34421856  0.81474591  0.95361099  1  0.411124  0  0.047781  0.094438  0  3.902463  0
C  C216  1  0.27270083  0.04576078  0.56325527  1  -0.050336  0  -0.085865  -0.121563  0  3.952865  0
C  C217  1  0.22728618  0.04576702  0.06325132  1  -0.06539  0  -0.085896  -0.121507  0  3.952944  0
C  C218  1  0.72729527  0.95423800  0.43674563  1  -0.06528  0  -0.085956  -0.121732  0  3.95314  0
C  C219  1  0.77269550  0.95423880  0.93674471  1  -0.06518  0  -0.08596  -0.121743  0  3.953015  0
C  C220  1  0.88698779  0.41434572  0.60033672  1  -0.02813  0  -0.079441  -0.169797  0  3.917875  0
C  C221  1  0.61300603  0.41435045  0.10033658  1  -0.028186  0  -0.079436  -0.169844  0  3.917753  0
C  C222  1  0.11300687  0.58565115  0.39966412  1  -0.028196  0  -0.079338  -0.169716  0  3.917936  0
C  C223  1  0.38699151  0.58565260  0.89966373  1  -0.028118  0  -0.079304  -0.169616  0  3.91771  0
C  C224  1  0.78643891  0.46336950  0.58607852  1  0.02368  0  0.015564  0.114827  0  3.973481  0
C  C225  1  0.71356097  0.46337007  0.08607523  1  0.023569  0  0.015642  0.114947  0  3.973732  0
C  C226  1  0.21356008  0.53663074  0.41392400  1  0.02349  0  0.015639  0.114871  0  3.973839  0
C  C227  1  0.28644090  0.53663099  0.91392085  1  0.023776  0  0.015514  0.114746  0  3.973649  0
C  C228  1  0.79250115  0.35881988  0.60106853  1  0.525514  0  0.056906  0.122754  0  3.942283  0
C  C229  1  0.70748972  0.35882053  0.10106817  1  0.525914  0  0.056856  0.122805  0  3.941936  0
C  C230  1  0.20748341  0.64117934  0.39893083  1  0.525792  0  0.056928  0.122969  0  3.941852  0
C  C231  1  0.29251359  0.64118205  0.89893244  1  0.525804  0  0.056787  0.122705  0  3.942004  0
C  C232  1  0.88944465  0.51995745  0.57962261  1  0.019418  0  -0.006383  0.061511  0  3.986887  0
C  C233  1  0.61057115  0.51996171  0.07962235  1  0.019223  0  -0.006474  0.061212  0  3.987147  0
C  C234  1  0.11056298  0.48003992  0.42037919  1  0.019548  0  -0.006455  0.061341  0  3.987168  0
C  C235  1  0.38943937  0.48004080  0.92037492  1  0.019251  0  -0.006419  0.061443  0  3.98696  0
C  C236  1  0.81019875  0.55871034  0.54792082  1  -0.05713  0  -0.085454  -0.116787  0  3.950217  0
C  C237  1  0.68982341  0.55871635  0.04792389  1  -0.055999  0  -0.085384  -0.116566  0  3.950178  0
C  C238  1  0.18980744  0.44128797  0.45208038  1  -0.056674  0  -0.085366  -0.116574  0  3.950277  0
C  C239  1  0.31018855  0.44128717  0.95207613  1  -0.056253  0  -0.085433  -0.116705  0  3.950121  0
C  C240  1  0.07634568  0.53441643  0.60262099  1  -0.05741  0  -0.089872  -0.134183  0  3.98679  0
C  C241  1  0.42366947  0.53442449  0.10261660  1  -0.05728  0  -0.089741  -0.133862  0  3.986568  0
C  C242  1  0.92366340  0.46557861  0.39738313  1  -0.057521  0  -0.089872  -0.134134  0  3.986837  0
C  C243  1  0.57634393  0.46558039  0.89738002  1  -0.057285  0  -0.08991  -0.134313  0  3.986931  0
C  C244  1  0.50192243  0.39712759  0.57825388  1  0.399147  0  0.050352  0.108843  0  3.929621  0
C  C245  1  0.99807479  0.39712802  0.07825918  1  0.38676  0  0.05024  0.1088  0  3.929455  0
C  C246  1  0.49806934  0.60287350  0.42174346  1  0.386112  0  0.050187  0.108675  0  3.929643  0
C  C247  1  0.00192564  0.60287312  0.92174108  1  0.386801  0  0.050185  0.108617  0  3.929727  0
C  C248  1  0.58720802  0.45357422  0.57565645  1  0.02332  0  -0.08731  -0.183114  0  3.937941  0
C  C249  1  0.91278781  0.45357335  0.07565605  1  0.02325  0  -0.087297  -0.183061  0  3.937905  0
C  C250  1  0.41279097  0.54642644  0.42434327  1  0.023386  0  -0.087295  -0.183033  0  3.937901  0
C  C251  1  0.08720973  0.54642727  0.92434158  1  0.023288  0  -0.087294  -0.182987  0  3.937938  0
N  N252  1  0.74606424  0.75504831  0.62431329  1  -1.272383  0  -0.332551  -0.246534  0  3.570432  0
N  N253  1  0.75394991  0.75505173  0.12431486  1  -1.271678  0  -0.332585  -0.246481  0  3.570348  0
N  N254  1  0.25395061  0.24495094  0.37568732  1  -1.271773  0  -0.332638  -0.246495  0  3.570388  0
N  N255  1  0.24605052  0.24494993  0.87568719  1  -1.271715  0  -0.332588  -0.24655  0  3.5705  0
N  N256  1  0.68669119  0.19581815  0.58105663  1  -1.239963  0  -0.334204  -0.249607  0  3.564666  0
N  N257  1  0.81330091  0.19582235  0.08105795  1  -1.240966  0  -0.334119  -0.249441  0  3.564523  0
N  N258  1  0.31330347  0.80418059  0.41894261  1  -1.240853  0  -0.334134  -0.249447  0  3.564693  0
N  N259  1  0.18668798  0.80418067  0.91894111  1  -1.240833  0  -0.334199  -0.249526  0  3.564798  0
N  N260  1  0.60292544  0.34975384  0.59017173  1  -1.255906  0  -0.335012  -0.235015  0  3.594037  0
N  N261  1  0.89706569  0.34975208  0.09017236  1  -1.256137  0  -0.334954  -0.235013  0  3.593781  0
N  N262  1  0.39706201  0.65024728  0.40982727  1  -1.255465  0  -0.335052  -0.235125  0  3.593725  0
N  N263  1  0.10293185  0.65024858  0.90982735  1  -1.256195  0  -0.334901  -0.234835  0  3.593565  0
O  O264  1  0.38904247  0.68281501  0.57249348  1  -1.176457  0  -0.341099  -0.576689  0  2.35233  0
O  O265  1  0.11098209  0.68282116  0.07249287  1  -1.17607  0  -0.340909  -0.576514  0  2.352127  0
O  O266  1  0.61097237  0.31718083  0.42750337  1  -1.176243  0  -0.340982  -0.576613  0  2.352312  0
O  O267  1  0.88903852  0.31717896  0.92750381  1  -1.17651  0  -0.340995  -0.576577  0  2.352451  0
O  O268  1  0.39957943  0.84143469  0.59177053  1  -1.179263  0  -0.33247  -0.569564  0  2.343871  0
O  O269  1  0.10041230  0.84144427  0.09177328  1  -1.17889  0  -0.33247  -0.569539  0  2.344058  0
O  O270  1  0.60041523  0.15856218  0.40822989  1  -1.179005  0  -0.332474  -0.569665  0  2.343895  0
O  O271  1  0.89958092  0.15856265  0.90823009  1  -1.179069  0  -0.332405  -0.569554  0  2.343952  0
O  O272  1  0.65671541  0.75711881  0.49221200  1  -1.209075  0  -0.594703  -0.810987  0  2.154783  0
O  O273  1  0.84328724  0.75712715  0.99221668  1  -1.208926  0  -0.594711  -0.811044  0  2.154807  0
O  O274  1  0.34327492  0.24287612  0.50778711  1  -1.209019  0  -0.594714  -0.81105  0  2.154815  0
O  O275  1  0.15672616  0.24287886  0.00778853  1  -1.209071  0  -0.5947  -0.810981  0  2.15471  0
O  O276  1  0.80983248  0.75196511  0.85715000  1  -1.177107  0  -0.339424  -0.564647  0  2.319923  0
O  O277  1  0.69016214  0.75196668  0.35714572  1  -1.17715  0  -0.339347  -0.564598  0  2.320104  0
O  O278  1  0.19016218  0.24803513  0.14285252  1  -1.177221  0  -0.339402  -0.564646  0  2.319935  0
O  O279  1  0.30983972  0.24802966  0.64285208  1  -1.177287  0  -0.339406  -0.564671  0  2.319886  0
O  O280  1  0.14770440  0.70865865  0.52037701  1  -1.177318  0  -0.30924  -0.539236  0  2.200712  0
O  O281  1  0.35231107  0.70866407  0.02037364  1  -1.17716  0  -0.309299  -0.539333  0  2.200461  0
O  O282  1  0.85229459  0.29133729  0.47962443  1  -1.177065  0  -0.309328  -0.539318  0  2.200619  0
O  O283  1  0.64771964  0.29133800  0.97962519  1  -1.176965  0  -0.309311  -0.539312  0  2.200321  0
O  O284  1  0.71012886  0.65068183  0.84556742  1  -1.176451  0  -0.329327  -0.562628  0  2.14326  0
O  O285  1  0.78987264  0.65068515  0.34556894  1  -1.176299  0  -0.329249  -0.562475  0  2.143227  0
O  O286  1  0.28987878  0.34931753  0.15443862  1  -1.176569  0  -0.329287  -0.562581  0  2.143133  0
O  O287  1  0.21011769  0.34931270  0.65443297  1  -1.176393  0  -0.329263  -0.562531  0  2.143063  0
O  O288  1  0.63322090  0.88691510  0.55108861  1  -1.192525  0  -0.324252  -0.567104  0  2.168323  0
O  O289  1  0.86677295  0.88691905  0.05108528  1  -1.192734  0  -0.324155  -0.566891  0  2.168534  0
O  O290  1  0.36676943  0.11308268  0.44890997  1  -1.192694  0  -0.324232  -0.567121  0  2.16834  0
O  O291  1  0.13321739  0.11308203  0.94891205  1  -1.192551  0  -0.324226  -0.567124  0  2.168245  0
