# generated using pymatgen
data_Zr3H14C25NO18
_symmetry_space_group_name_H-M   'P 1'
_cell_length_a   14.75483871
_cell_length_b   14.76027056
_cell_length_c   14.76295616
_cell_angle_alpha   60.63630865
_cell_angle_beta   59.99498416
_cell_angle_gamma   59.99691905
_symmetry_Int_Tables_number   1
_chemical_formula_structural   Zr3H14C25NO18
_chemical_formula_sum   'Zr6 H28 C50 N2 O36'
_cell_volume   2284.04850216
_cell_formula_units_Z   2
loop_
 _symmetry_equiv_pos_site_id
 _symmetry_equiv_pos_as_xyz
  1  'x, y, z'
loop_
 _atom_site_type_symbol
 _atom_site_label
 _atom_site_symmetry_multiplicity
 _atom_site_fract_x
 _atom_site_fract_y
 _atom_site_fract_z
 _atom_site_occupancy
 _atom_site_pbe_bader_charge
 _atom_site_pbe_bader_spin_density
 _atom_site_pbe_cm5_charge
 _atom_site_pbe_ddec_charge
 _atom_site_pbe_ddec_spin_density
 _atom_site_pbe_ddec_sum_bond_order
 _atom_site_pbe_magmom
Zr  Zr0  1  0.88019611  0.88203203  0.61814578  1  2.632604  0  1.625362  2.370591  0  2.759531  0
Zr  Zr1  1  0.12047593  0.11862214  0.38136732  1  2.6384  0  1.632104  2.37587  0  2.762549  0
Zr  Zr2  1  0.12031056  0.88260035  0.61753696  1  2.637498  0  1.632637  2.376055  0  2.762177  0
Zr  Zr3  1  0.88024621  0.11937585  0.38080969  1  2.636495  0  1.624702  2.37089  0  2.757436  0
Zr  Zr4  1  0.12000077  0.88016661  0.37904585  1  2.637122  0  1.625551  2.373403  0  2.749273  0
Zr  Zr5  1  0.87931215  0.12112698  0.61981344  1  2.637607  0  1.626069  2.37441  0  2.749497  0
H  H6  1  0.09537584  0.71890360  0.59031235  1  0.637551  0  0.330998  0.422512  0  0.857732  0
H  H7  1  0.09536682  0.09146473  0.21778937  1  0.604503  0  0.330883  0.422767  0  0.856158  0
H  H8  1  0.09340500  0.09546794  0.59442827  1  0.590561  0  0.333366  0.425666  0  0.852381  0
H  H9  1  0.71644735  0.09578657  0.59437541  1  0.623626  0  0.332642  0.425213  0  0.853987  0
H  H10  1  0.14062474  0.41705308  0.35126689  1  0.100022  0  0.108986  0.120577  0  1.010796  0
H  H11  1  0.84931699  0.59262463  0.64050617  1  0.058972  0  0.106063  0.10873  0  1.00401  0
H  H12  1  0.14102681  0.58763978  0.35006311  1  0.101489  0  0.110622  0.116757  0  0.988215  0
H  H13  1  0.84921044  0.42128327  0.64214095  1  0.056638  0  0.108067  0.112922  0  0.995773  0
H  H14  1  0.41503528  0.14249415  0.08968155  1  0.126575  0  0.109254  0.11971  0  1.003095  0
H  H15  1  0.59188787  0.85077261  0.91634151  1  0.1013  0  0.10584  0.107952  0  1.006633  0
H  H16  1  0.58548805  0.14333472  0.91954983  1  0.103537  0  0.111047  0.116999  0  0.988944  0
H  H17  1  0.42193711  0.84897527  0.08768781  1  0.080925  0  0.108004  0.113276  0  0.995245  0
H  H18  1  0.84987161  0.14368662  0.91966995  1  0.121255  0  0.108408  0.113688  0  0.995213  0
H  H19  1  0.13947489  0.84912642  0.08808103  1  0.075371  0  0.111111  0.117031  0  0.987577  0
H  H20  1  0.85024347  0.14199536  0.09088923  1  0.058339  0  0.105897  0.108842  0  1.004213  0
H  H21  1  0.13871386  0.85019055  0.91773741  1  0.131484  0  0.108897  0.120328  0  1.008654  0
H  H22  1  0.42078465  0.58812657  0.34889189  1  0.080776  0  0.108193  0.113341  0  0.995122  0
H  H23  1  0.58656659  0.42194288  0.64108663  1  0.108892  0  0.110948  0.11647  0  0.989726  0
H  H24  1  0.59063540  0.41668513  0.35072652  1  0.094726  0  0.105828  0.108396  0  1.005914  0
H  H25  1  0.41619686  0.59219853  0.64018509  1  0.101674  0  0.109542  0.12013  0  1.003566  0
H  H26  1  0.74628459  0.63092875  0.96098858  1  0.069393  0  0.104876  0.118249  0  0.978119  0
H  H27  1  0.83321216  0.54564601  0.87462996  1  0.074957  0  0.104073  0.116959  0  0.977587  0
H  H28  1  0.83457572  0.37522047  0.04367854  1  0.072167  0  0.104098  0.116706  0  0.977588  0
H  H29  1  0.74674005  0.46025746  0.13023645  1  0.077509  0  0.104631  0.117913  0  0.978905  0
H  H30  1  0.41958168  0.85166833  0.63892379  1  0.101055  0  0.11137  0.117775  0  0.989367  0
H  H31  1  0.58989534  0.14028146  0.35107961  1  0.085676  0  0.109201  0.113942  0  0.99486  0
H  H32  1  0.59036943  0.85161023  0.63876261  1  0.095922  0  0.109012  0.113506  0  0.994562  0
H  H33  1  0.41926698  0.14030967  0.35100948  1  0.108687  0  0.111635  0.11824  0  0.989961  0
C  C34  1  0.99624119  0.69998209  0.49553852  1  1.569493  0  0.237185  0.639671  0  4.098598  0
C  C35  1  0.30812103  0.99507895  0.19926907  1  1.549262  0  0.237505  0.6393  0  4.097276  0
C  C36  1  0.99561418  0.30763932  0.49806642  1  1.548448  0  0.237277  0.639925  0  4.095182  0
C  C37  1  0.69897080  0.99783624  0.80711967  1  1.541676  0  0.236802  0.638718  0  4.098235  0
C  C38  1  0.99823782  0.70178841  0.80449763  1  1.605086  0  0.237657  0.64638  0  4.124412  0
C  C39  1  0.69958327  0.99695728  0.49575484  1  1.56744  0  0.237384  0.639636  0  4.099641  0
C  C40  1  0.99815191  0.30615263  0.20111864  1  1.61723  0  0.238202  0.646962  0  4.123168  0
C  C41  1  0.30822625  0.99697893  0.49588719  1  1.562738  0  0.237787  0.638633  0  4.103309  0
C  C42  1  0.30808487  0.70065017  0.49395940  1  1.529311  0  0.237471  0.63928  0  4.096052  0
C  C43  1  0.99532164  0.99887206  0.80675934  1  1.548981  0  0.237647  0.640557  0  4.094935  0
C  C44  1  0.69883215  0.30839930  0.49664992  1  1.52536  0  0.237202  0.639907  0  4.096339  0
C  C45  1  0.99628152  0.99643384  0.19886703  1  1.534404  0  0.236937  0.639474  0  4.098017  0
C  C46  1  0.99519105  0.40944721  0.49711733  1  -0.003196  0  -0.012399  -0.033844  0  3.955708  0
C  C47  1  0.99547940  0.59929470  0.49549175  1  -0.032723  0  -0.013535  -0.037565  0  3.965102  0
C  C48  1  0.07779657  0.45570931  0.41452318  1  0.011083  0  -0.076787  -0.083121  0  3.943656  0
C  C49  1  0.91280339  0.55299031  0.57804563  1  0.018807  0  -0.082872  -0.094429  0  3.98145  0
C  C50  1  0.07780081  0.55030965  0.41371158  1  -0.054234  0  -0.076581  -0.0844  0  3.953956  0
C  C51  1  0.91265274  0.45849318  0.57887997  1  -0.042007  0  -0.081086  -0.094054  0  3.979547  0
C  C52  1  0.40988338  0.99491740  0.09873285  1  -0.119986  0  -0.012221  -0.034041  0  3.956868  0
C  C53  1  0.59874621  0.99648117  0.90913420  1  -0.034582  0  -0.013056  -0.035469  0  3.961472  0
C  C54  1  0.45525779  0.07834692  0.05182392  1  0.018245  0  -0.075167  -0.080658  0  3.943699  0
C  C55  1  0.55296775  0.91335039  0.95590376  1  -0.035709  0  -0.082255  -0.094549  0  3.980753  0
C  C56  1  0.54932451  0.07900832  0.95745161  1  -0.039888  0  -0.076698  -0.086424  0  3.957131  0
C  C57  1  0.45903432  0.91249066  0.05032002  1  0.017912  0  -0.08118  -0.094336  0  3.978238  0
C  C58  1  0.99463813  0.99745554  0.90890739  1  -0.024423  0  -0.01252  -0.034117  0  3.954912  0
C  C59  1  0.99524135  0.99590142  0.09854615  1  -0.048178  0  -0.013725  -0.036283  0  3.962445  0
C  C60  1  0.91279824  0.07983931  0.95735465  1  -0.105934  0  -0.081588  -0.094581  0  3.979223  0
C  C61  1  0.07668911  0.91327797  0.05034852  1  0.028618  0  -0.076775  -0.084791  0  3.952909  0
C  C62  1  0.91312047  0.07902027  0.05172948  1  0.013575  0  -0.08227  -0.095157  0  3.983117  0
C  C63  1  0.07647639  0.91401054  0.95588972  1  -0.005326  0  -0.076139  -0.083024  0  3.942901  0
C  C64  1  0.40987062  0.60016728  0.49373491  1  -0.081035  0  -0.012315  -0.034578  0  3.955467  0
C  C65  1  0.59860901  0.41044856  0.49539322  1  -0.067146  0  -0.013271  -0.036105  0  3.961402  0
C  C66  1  0.45836992  0.55113833  0.41194171  1  0.006597  0  -0.08126  -0.093555  0  3.978145  0
C  C67  1  0.54991208  0.45944568  0.57722500  1  -0.004198  0  -0.076843  -0.085577  0  3.954577  0
C  C68  1  0.55222160  0.45665891  0.41286091  1  0.014461  0  -0.082494  -0.09572  0  3.982088  0
C  C69  1  0.45589738  0.55389148  0.57650778  1  -0.001819  0  -0.075314  -0.080123  0  3.939388  0
C  C70  1  0.00042517  0.60141860  0.90468105  1  0.02361  0  0.00295  -0.10364  0  3.919874  0
C  C71  1  0.99952570  0.40700459  0.10139206  1  0.0841  0  0.002882  -0.102622  0  3.919533  0
C  C72  1  0.92082533  0.55103082  0.95628481  1  0.064033  0  0.0077  0.08056  0  3.875375  0
C  C73  1  0.08100258  0.45732105  0.04963203  1  0.204971  0  0.091918  0.013626  0  3.884674  0
C  C74  1  0.92079868  0.45741856  0.05019266  1  -0.053472  0  0.007661  0.079064  0  3.876074  0
C  C75  1  0.08209923  0.54981808  0.95468086  1  0.239684  0  0.091547  0.012132  0  3.884695  0
C  C76  1  0.81890179  0.55655830  0.94970421  1  -0.008951  0  -0.14448  -0.196913  0  3.859346  0
C  C77  1  0.81930740  0.45014531  0.05556893  1  -0.057178  0  -0.144091  -0.195324  0  3.859237  0
C  C78  1  0.41028511  0.99595323  0.49492007  1  -0.026802  0  -0.011556  -0.033199  0  3.959949  0
C  C79  1  0.59943994  0.99591799  0.49487614  1  -0.038677  0  -0.012172  -0.034233  0  3.961745  0
C  C80  1  0.45789374  0.91416012  0.57631940  1  -0.065442  0  -0.077823  -0.089368  0  3.962908  0
C  C81  1  0.55189077  0.07751972  0.41339295  1  0.00034  0  -0.079155  -0.090394  0  3.972749  0
C  C82  1  0.55213537  0.91416611  0.57623940  1  0.01268  0  -0.079155  -0.090001  0  3.969106  0
C  C83  1  0.45769901  0.07756644  0.41334700  1  -0.07496  0  -0.078251  -0.090001  0  3.96669  0
N  N84  1  0.17113435  0.41259168  0.09456481  1  0.438008  0  0.059663  0.516376  0  4.251982  0
N  N85  1  0.17573745  0.59118286  0.90606048  1  0.430907  0  0.06055  0.517906  0  4.248311  0
O  O86  1  0.92007193  0.73949181  0.57357259  1  -1.187831  0  -0.359458  -0.624289  0  2.291238  0
O  O87  1  0.26756565  0.07215570  0.23956631  1  -1.175489  0  -0.35459  -0.614578  0  2.292634  0
O  O88  1  0.07362472  0.26617043  0.42213870  1  -1.176193  0  -0.354954  -0.615179  0  2.291361  0
O  O89  1  0.73915724  0.92108763  0.76623092  1  -1.183828  0  -0.359942  -0.625494  0  2.288135  0
O  O90  1  0.07400976  0.74214911  0.76490268  1  -1.17426  0  -0.345992  -0.604955  0  2.331593  0
O  O91  1  0.73846017  0.07401994  0.42028640  1  -1.185051  0  -0.356057  -0.619599  0  2.286717  0
O  O92  1  0.92071456  0.26921236  0.23671592  1  -1.169  0  -0.336579  -0.595306  0  2.251003  0
O  O93  1  0.26755000  0.92171154  0.57302434  1  -1.177951  0  -0.355027  -0.616934  0  2.285895  0
O  O94  1  0.26782360  0.73837782  0.41818603  1  -1.177887  0  -0.356493  -0.621547  0  2.280066  0
O  O95  1  0.91882649  0.07639329  0.76720426  1  -1.182493  0  -0.356092  -0.621808  0  2.280374  0
O  O96  1  0.73684112  0.26839200  0.57450538  1  -1.177421  0  -0.353109  -0.617362  0  2.281031  0
O  O97  1  0.07350487  0.91989675  0.23767272  1  -1.181063  0  -0.353498  -0.618396  0  2.28074  0
O  O98  1  0.07360777  0.92318388  0.76506923  1  -1.181268  0  -0.355478  -0.615924  0  2.291754  0
O  O99  1  0.73880135  0.26735475  0.42008110  1  -1.183778  0  -0.359685  -0.625616  0  2.288193  0
O  O100  1  0.92049221  0.07493385  0.23789127  1  -1.184704  0  -0.358991  -0.624799  0  2.289289  0
O  O101  1  0.26737378  0.74094090  0.57106979  1  -1.174333  0  -0.354385  -0.613725  0  2.293358  0
O  O102  1  0.92097126  0.73709675  0.76744421  1  -1.171234  0  -0.336324  -0.594974  0  2.251825  0
O  O103  1  0.26769330  0.07396977  0.42048569  1  -1.182011  0  -0.355312  -0.61731  0  2.28676  0
O  O104  1  0.07526264  0.26538761  0.24006980  1  -1.169805  0  -0.34603  -0.605661  0  2.33251  0
O  O105  1  0.73832489  0.92165163  0.57294370  1  -1.183758  0  -0.356319  -0.619151  0  2.288052  0
O  O106  1  0.73668404  0.07595313  0.76695985  1  -1.17519  0  -0.352579  -0.616188  0  2.280685  0
O  O107  1  0.07362171  0.73861428  0.41909350  1  -1.186683  0  -0.353452  -0.61819  0  2.280458  0
O  O108  1  0.26779443  0.91933439  0.23702073  1  -1.17881  0  -0.35611  -0.621109  0  2.279242  0
O  O109  1  0.91900638  0.26816286  0.57548431  1  -1.183826  0  -0.356021  -0.621276  0  2.280755  0
O  O110  1  0.79704186  0.06856817  0.56724991  1  -1.2517  0  -0.694758  -1.068022  0  2.359903  0
O  O111  1  0.06705842  0.06841484  0.56726691  1  -1.216117  0  -0.696821  -1.07137  0  2.367385  0
O  O112  1  0.06743860  0.06711388  0.29781470  1  -1.235612  0  -0.693689  -1.070206  0  2.357807  0
O  O113  1  0.06739221  0.79894756  0.56607154  1  -1.268593  0  -0.693723  -1.070717  0  2.359808  0
O  O114  1  0.14915528  0.95057896  0.44940649  1  -1.198565  0  -0.792806  -1.149943  0  2.135322  0
O  O115  1  0.95011558  0.95087532  0.44967712  1  -1.198444  0  -0.791182  -1.146007  0  2.128076  0
O  O116  1  0.95015936  0.14908411  0.45065144  1  -1.200187  0  -0.790465  -1.150182  0  2.124652  0
O  O117  1  0.95004672  0.95200891  0.64775143  1  -1.201135  0  -0.790919  -1.149692  0  2.125148  0
O  O118  1  0.15130104  0.44904266  0.16429126  1  -0.427329  0  -0.105677  -0.298673  0  1.933945  0
O  O119  1  0.25969422  0.34648365  0.05464258  1  -0.417619  0  -0.114525  -0.308281  0  1.905705  0
O  O120  1  0.25810777  0.55536749  0.83314690  1  -0.429697  0  -0.110909  -0.305885  0  1.920956  0
O  O121  1  0.16514163  0.65369081  0.94608425  1  -0.415643  0  -0.11086  -0.303373  0  1.915181  0
