# generated using pymatgen
data_Nd2CuH20C32(NO7)4
_symmetry_space_group_name_H-M   'P 1'
_cell_length_a   10.43924198
_cell_length_b   10.72753376
_cell_length_c   11.48940954
_cell_angle_alpha   83.45231583
_cell_angle_beta   74.00221431
_cell_angle_gamma   68.34551090
_symmetry_Int_Tables_number   1
_chemical_formula_structural   Nd2CuH20C32(NO7)4
_chemical_formula_sum   'Nd2 Cu1 H20 C32 N4 O28'
_cell_volume   1149.44037891
_cell_formula_units_Z   1
loop_
 _symmetry_equiv_pos_site_id
 _symmetry_equiv_pos_as_xyz
  1  'x, y, z'
loop_
 _atom_site_type_symbol
 _atom_site_label
 _atom_site_symmetry_multiplicity
 _atom_site_fract_x
 _atom_site_fract_y
 _atom_site_fract_z
 _atom_site_occupancy
 _atom_site_hle17_ddec_charge
 _atom_site_hle17_ddec_spin_density
 _atom_site_hle17_ddec_sum_bond_order
 _atom_site_hle17_magmom
 _atom_site_hse06_10hf_ddec_charge
 _atom_site_hse06_10hf_ddec_spin_density
 _atom_site_hse06_10hf_ddec_sum_bond_order
 _atom_site_hse06_10hf_magmom
 _atom_site_hse06_ddec_charge
 _atom_site_hse06_ddec_spin_density
 _atom_site_hse06_ddec_sum_bond_order
 _atom_site_hse06_magmom
 _atom_site_pbe_cm5_charge
 _atom_site_pbe_ddec_charge
 _atom_site_pbe_ddec_spin_density
 _atom_site_pbe_ddec_sum_bond_order
 _atom_site_pbe_magmom
Nd  Nd0  1  0.58782390  0.60883705  0.62523999  1  2.359032  0.000152  1.616651  0.0  2.255142  0.000351  1.995872  0.0  2.293923  0.000157  1.950199  0.0  1.511888  2.181538  0.000325  2.113016  0.0
Nd  Nd1  1  0.41217684  0.39116916  0.37476174  1  2.359038  0.000192  1.616516  0.0  2.255134  0.000278  1.995725  0.0  2.293919  0.00022  1.950049  0.0  1.511829  2.181569  0.000325  2.112776  0.0
Cu  Cu2  1  0.00000071  0.50000335  0.49999575  1  0.978367  0.694235  1.679364  0.517  0.972326  0.78378  2.061307  0.633  1.071336  0.845829  1.978428  0.716  0.749365  0.906611  0.740382  2.122108  0.58
H  H3  1  0.35726791  0.98613407  0.45117267  1  0.13234  -3e-05  0.91028  0.0  0.141483  -5e-06  0.968318  0.0  0.145864  -3e-06  0.964265  0.0  0.126294  0.138002  -3e-06  0.971881  0.0
H  H4  1  0.64273520  0.01387108  0.54882423  1  0.132387  -3.2e-05  0.910289  0.0  0.141551  -5e-06  0.968287  0.0  0.145933  -2e-06  0.964233  0.0  0.126328  0.138069  -3e-06  0.971849  0.0
H  H5  1  0.95710098  0.18211278  0.35713869  1  0.131241  0.000291  0.941326  0.0  0.13727  0.000237  1.006777  0.0  0.141507  0.000162  1.002401  0.0  0.12113  0.133899  0.000284  1.010486  0.0
H  H6  1  0.04289801  0.81788447  0.64286275  1  0.131218  0.000286  0.941355  0.0  0.137238  0.000236  1.006816  0.0  0.141473  0.000163  1.002445  0.0  0.121129  0.133867  0.000284  1.010527  0.0
H  H7  1  0.16537165  0.75247118  0.32428338  1  0.135338  8e-06  0.945594  0.0  0.138601  -4e-06  1.014325  0.0  0.142718  -6e-06  1.010327  0.0  0.123504  0.135673  -1.4e-05  1.016975  0.0
H  H8  1  0.83461243  0.24752054  0.67575203  1  0.135311  7e-06  0.945471  0.0  0.138509  -5e-06  1.014283  0.0  0.142612  -5e-06  1.010322  0.0  0.123458  0.135582  -1.4e-05  1.016935  0.0
H  H9  1  0.67762036  0.47135123  0.94565158  1  0.143942  0.0  0.915813  0.0  0.150798  -6e-06  0.977248  0.0  0.155487  -3e-06  0.972639  0.0  0.126761  0.14719  -4e-06  0.981035  0.0
H  H10  1  0.32238392  0.52864788  0.05434136  1  0.143983  -2e-06  0.915697  0.0  0.150809  -6e-06  0.977168  0.0  0.1555  -3e-06  0.972557  0.0  0.126751  0.147198  -4e-06  0.980956  0.0
H  H11  1  0.92743932  0.31802139  0.20740698  1  0.128691  2e-06  0.946698  0.0  0.132817  -2.5e-05  1.016987  0.0  0.137531  -2.4e-05  1.011934  0.0  0.117679  0.129233  -2.1e-05  1.021025  0.0
H  H12  1  0.07256758  0.68196767  0.79258121  1  0.128689  -9e-06  0.946753  0.0  0.132814  -2.5e-05  1.017009  0.0  0.137527  -2.3e-05  1.011957  0.0  0.117648  0.129231  -2.1e-05  1.02105  0.0
H  H13  1  0.13752886  0.33663586  0.82997739  1  0.131861  0.000299  0.930109  0.0  0.138872  0.000275  0.99102  0.0  0.143615  0.000196  0.986101  0.0  0.122572  0.135316  0.000346  0.994851  0.0
H  H14  1  0.86247427  0.66336921  0.17000820  1  0.131923  0.000297  0.930035  0.0  0.138886  0.000275  0.991002  0.0  0.143636  0.000196  0.986066  0.0  0.122605  0.135328  0.000346  0.99484  0.0
H  H15  1  0.45797731  0.85257013  0.80873985  1  0.44496  -1e-06  0.803147  0.0  0.43211  -1e-06  0.842232  0.0  0.439757  -1e-06  0.831283  0.0  0.342234  0.426409  -2e-06  0.850295  0.0
H  H16  1  0.54200877  0.14741047  0.19128151  1  0.444996  -2e-06  0.803033  0.0  0.432106  -1e-06  0.84223  0.0  0.439752  -1e-06  0.831282  0.0  0.342226  0.426407  -2e-06  0.850287  0.0
H  H17  1  0.34534137  0.88118053  0.73291295  1  0.440226  -1e-06  0.846769  0.0  0.407954  -0.0  0.911342  0.0  0.418974  -2e-06  0.894823  0.0  0.307497  0.399977  0.0  0.923214  0.0
H  H18  1  0.65466464  0.11881660  0.26708412  1  0.440151  -1e-06  0.846857  0.0  0.407906  -0.0  0.911382  0.0  0.418928  -1e-06  0.894862  0.0  0.307478  0.399928  0.0  0.923254  0.0
H  H19  1  0.71592479  0.47002828  0.37393343  1  0.453248  2.2e-05  0.841183  0.0  0.424872  8e-06  0.899609  0.0  0.436026  9e-06  0.883345  0.0  0.303667  0.416976  7e-06  0.910941  0.0
H  H20  1  0.28406855  0.52996804  0.62606779  1  0.453383  2.2e-05  0.840998  0.0  0.42497  8e-06  0.899503  0.0  0.436125  9e-06  0.883236  0.0  0.303716  0.417074  7e-06  0.910838  0.0
H  H21  1  0.81344323  0.55567606  0.37254271  1  0.445489  -0.000316  0.84826  0.0  0.41685  -0.000203  0.907636  0.0  0.427079  -0.000238  0.892446  0.0  0.305067  0.409535  -0.000153  0.918406  0.0
H  H22  1  0.18654494  0.44432630  0.62745478  1  0.445533  -0.000316  0.848218  0.0  0.416912  -0.000203  0.907567  0.0  0.427144  -0.000238  0.892372  0.0  0.305108  0.409597  -0.000153  0.918336  0.0
C  C23  1  0.27205015  0.85620821  0.39140752  1  -0.0575  0.000825  3.685969  0.001  -0.030523  0.000329  3.919727  0.0  -0.042236  0.000263  3.943466  0.0  -0.001767  -0.023554  0.00053  3.905072  0.001
C  C24  1  0.72795040  0.14379304  0.60859743  1  -0.057692  0.000809  3.686179  0.001  -0.030677  0.000343  3.919967  0.0  -0.042386  0.000253  3.9437  0.0  -0.001727  -0.023707  0.00053  3.905307  0.001
C  C25  1  0.27148231  0.98125951  0.41733817  1  -0.012686  8.7e-05  3.600232  0.001  -0.060111  0.000594  3.85319  0.001  -0.054502  0.000208  3.870041  0.0  -0.048811  -0.063623  0.000908  3.842814  0.001
C  C26  1  0.72851952  0.01874367  0.58266101  1  -0.012799  0.000102  3.600413  0.001  -0.060227  0.000583  3.853363  0.001  -0.054615  0.000217  3.870211  0.0  -0.048889  -0.063736  0.000908  3.842987  0.001
C  C27  1  0.15933493  0.09866245  0.40379563  1  -0.056822  0.007888  3.726595  0.009  -0.03093  0.00461  3.964545  0.005  -0.042815  0.003348  3.987445  0.004  -0.008314  -0.023641  0.005593  3.949718  0.006
C  C28  1  0.84066489  0.90134077  0.59620405  1  -0.05683  0.007876  3.726629  0.009  -0.030981  0.004612  3.964569  0.005  -0.042862  0.003343  3.987476  0.004  -0.008341  -0.0237  0.005592  3.94975  0.006
C  C29  1  0.04791317  0.09213791  0.36277515  1  -0.073973  -0.001222  3.688268  -0.001  -0.117571  -0.000131  3.949502  0.0  -0.111933  -0.000298  3.96601  0.0  -0.063987  -0.12084  -8e-05  3.938464  0.0
C  C30  1  0.95208510  0.90786136  0.63722712  1  -0.073818  -0.001186  3.688146  -0.001  -0.117415  -0.000131  3.949379  0.0  -0.111778  -0.00029  3.965891  0.0  -0.063956  -0.120684  -8e-05  3.938346  0.0
C  C31  1  0.05434194  0.96829685  0.33113989  1  0.04977  0.000243  3.716946  0.0  0.045621  6.1e-05  3.978153  0.0  0.038572  9.2e-05  4.002702  0.0  0.07408  0.050004  8e-06  3.961587  0.0
C  C32  1  0.94565941  0.03169941  0.66886629  1  0.049628  0.000232  3.716735  0.0  0.045481  7e-05  3.977946  0.0  0.038436  8e-05  4.002485  0.0  0.074053  0.049863  8e-06  3.961384  0.0
C  C33  1  0.16455591  0.84912886  0.34509427  1  -0.060508  -0.000891  3.637253  -0.001  -0.099367  -0.000105  3.888326  0.0  -0.0938  -0.000284  3.90455  0.0  -0.055027  -0.102888  4.2e-05  3.8778  0.0
C  C34  1  0.83544143  0.15086751  0.65491987  1  -0.060313  -0.000865  3.636921  -0.001  -0.099091  -0.000122  3.887955  0.0  -0.093525  -0.00027  3.904162  0.0  -0.054893  -0.102616  4.2e-05  3.877434  0.0
C  C35  1  0.38227646  0.72973806  0.42381461  1  0.740065  9.7e-05  3.849741  0.0  0.694569  7.8e-05  4.137024  0.0  0.730375  4.8e-05  4.126213  0.0  0.246468  0.670074  0.000125  4.140933  0.0
C  C36  1  0.61772955  0.27027023  0.57620644  1  0.74084  9.7e-05  3.849311  0.0  0.695169  7.3e-05  4.136858  0.0  0.730974  5.1e-05  4.126038  0.0  0.246789  0.670671  0.000125  4.140771  0.0
C  C37  1  0.15289114  0.23308956  0.43515020  1  0.698017  -0.007402  3.8583  -0.007  0.651116  -0.002029  4.159662  -0.003  0.689871  -0.002403  4.150884  -0.003  0.22866  0.624863  -0.001607  4.162848  -0.003
C  C38  1  0.84711033  0.76691460  0.56484461  1  0.697963  -0.007386  3.858298  -0.007  0.65113  -0.002029  4.159539  -0.003  0.689868  -0.002402  4.150793  -0.003  0.22867  0.624882  -0.001607  4.162723  -0.003
C  C39  1  0.90636757  0.41239624  0.87449642  1  -0.065146  0.007495  3.720707  0.008  -0.041036  0.004745  3.960984  0.006  -0.053507  0.003536  3.984763  0.004  -0.010301  -0.033171  0.005636  3.945564  0.006
C  C40  1  0.09363527  0.58760686  0.12549295  1  -0.065537  0.007411  3.721005  0.008  -0.041368  0.004746  3.961312  0.006  -0.05385  0.003535  3.985098  0.004  -0.010429  -0.033491  0.005635  3.945866  0.006
C  C41  1  0.78127936  0.43040961  0.96667547  1  -0.017003  -0.001249  3.583172  0.0  -0.05963  -5.4e-05  3.828577  0.0  -0.053753  -0.000317  3.84505  0.0  -0.048772  -0.063082  0.000137  3.817876  0.001
C  C42  1  0.21872420  0.56959149  0.03331481  1  -0.016981  -0.001134  3.583128  0.0  -0.059562  -5.7e-05  3.828528  0.0  -0.053678  -0.000315  3.844991  0.0  -0.0487  -0.063012  0.000137  3.817816  0.001
C  C43  1  0.78878104  0.39544334  0.08652894  1  -0.045721  0.001112  3.709524  0.001  -0.018768  0.000406  3.945583  0.001  -0.0303  0.000361  3.969732  0.0  -0.007356  -0.011835  0.000495  3.929904  0.001
C  C44  1  0.21122125  0.60455578  0.91346102  1  -0.045634  0.001038  3.709484  0.001  -0.018765  0.000407  3.945562  0.001  -0.030298  0.000358  3.969711  0.0  -0.007359  -0.01184  0.000495  3.929891  0.001
C  C45  1  0.92107916  0.34333972  0.11438016  1  -0.072201  -0.002168  3.662126  -0.001  -0.11504  -0.000773  3.921469  0.0  -0.110059  -0.000825  3.938001  0.0  -0.064031  -0.118042  -0.000742  3.910871  0.0
C  C46  1  0.07892422  0.65665636  0.88560638  1  -0.072285  -0.002002  3.662163  -0.001  -0.115026  -0.000773  3.921491  0.0  -0.110053  -0.000818  3.938034  0.0  -0.064006  -0.11803  -0.000741  3.910901  0.0
C  C47  1  0.04425702  0.32250395  0.02065380  1  0.048391  0.000567  3.718435  0.001  0.046859  7.1e-05  3.976969  0.0  0.040438  0.000137  4.001552  0.0  0.071889  0.050752  2.9e-05  3.960471  0.0
C  C48  1  0.95574699  0.67749313  0.97933334  1  0.048412  0.000503  3.718174  0.001  0.046756  6.8e-05  3.976805  0.0  0.040339  0.000131  4.00138  0.0  0.071818  0.050647  2.9e-05  3.960314  0.0
C  C49  1  0.03938159  0.35554041  0.90099646  1  -0.064487  -0.00196  3.678412  -0.001  -0.107247  -0.000319  3.938279  0.0  -0.101381  -0.000502  3.953629  0.0  -0.061878  -0.110751  -0.0002  3.928044  0.0
C  C50  1  0.96062198  0.64446067  0.09899034  1  -0.064372  -0.001846  3.678396  -0.001  -0.107041  -0.000317  3.938207  0.0  -0.101175  -0.000496  3.953564  0.0  -0.06182  -0.110545  -0.000201  3.927958  0.0
C  C51  1  0.89772790  0.45301463  0.74710309  1  0.704103  -0.006475  3.850058  -0.006  0.652709  -0.002083  4.152257  -0.003  0.690929  -0.002518  4.143314  -0.003  0.231496  0.626664  -0.001517  4.156322  -0.003
C  C52  1  0.10227213  0.54699350  0.25288728  1  0.704487  -0.006449  3.849712  -0.006  0.652865  -0.002084  4.152303  -0.003  0.691099  -0.00252  4.143334  -0.003  0.231586  0.626813  -0.001518  4.156361  -0.003
C  C53  1  0.65585306  0.40789086  0.18463748  1  0.647738  0.000106  3.934956  0.0  0.599799  6.5e-05  4.229245  0.0  0.63378  4.1e-05  4.222434  0.0  0.200696  0.577617  0.000113  4.228663  0.0
C  C54  1  0.34414822  0.59210829  0.81535533  1  0.647705  0.0001  3.93501  0.0  0.59982  6.6e-05  4.229234  0.0  0.633801  4.1e-05  4.222423  0.0  0.200663  0.577642  0.000113  4.228648  0.0
N  N55  1  0.93733499  0.96423198  0.28655187  1  0.500492  -4.2e-05  3.904036  0.0  0.527827  -3.6e-05  4.200898  0.0  0.548804  -4.9e-05  4.210723  0.0  0.059686  0.51372  -1.7e-05  4.194412  0.0
N  N56  1  0.06266688  0.03575731  0.71345844  1  0.500646  -6.2e-05  3.903827  0.0  0.527939  -3.8e-05  4.200722  0.0  0.548917  -4.5e-05  4.210544  0.0  0.059728  0.513834  -1.7e-05  4.19424  0.0
N  N57  1  0.18460167  0.26470942  0.04842299  1  0.493544  -2.2e-05  3.92117  0.0  0.523292  -2.3e-05  4.219606  0.0  0.543685  -3.2e-05  4.229831  0.0  0.055902  0.509708  -2e-06  4.212574  0.0
N  N58  1  0.81539424  0.73529078  0.95156758  1  0.493747  -4.8e-05  3.920737  0.0  0.523508  -2.1e-05  4.21918  0.0  0.543901  -3.2e-05  4.229401  0.0  0.056011  0.509925  -2e-06  4.212157  0.0
O  O59  1  0.39146904  0.61807890  0.38886111  1  -0.748081  0.000544  2.028439  0.001  -0.7037  0.000198  2.283851  0.0  -0.728792  0.000101  2.270126  0.0  -0.400564  -0.678894  0.000253  2.293548  0.0
O  O60  1  0.60853848  0.38192248  0.61117340  1  -0.748409  0.000543  2.028461  0.001  -0.70396  0.0002  2.283956  0.0  -0.729069  0.000101  2.270264  0.0  -0.400676  -0.679151  0.000253  2.293661  0.0
O  O61  1  0.45554263  0.74486553  0.48895972  1  -0.721591  8.6e-05  2.011457  0.0  -0.677039  4e-05  2.25593  0.0  -0.701919  3.4e-05  2.242739  0.0  -0.400739  -0.653468  9.6e-05  2.26585  0.0
O  O62  1  0.54445788  0.25516077  0.51105721  1  -0.721861  8.5e-05  2.011233  0.0  -0.677244  4.3e-05  2.255757  0.0  -0.702121  3.4e-05  2.242566  0.0  -0.400929  -0.653679  9.6e-05  2.265674  0.0
O  O63  1  0.26524591  0.25113362  0.43618528  1  -0.722172  -0.00151  2.016366  0.0  -0.683854  -0.001343  2.270926  0.0  -0.70898  -0.001962  2.256915  -0.001  -0.385408  -0.659777  -0.000748  2.281227  0.001
O  O64  1  0.73476103  0.74886640  0.56379993  1  -0.722128  -0.001513  2.016385  0.0  -0.683844  -0.001344  2.270907  0.0  -0.70896  -0.001963  2.256908  -0.001  -0.385417  -0.659759  -0.000748  2.281212  0.001
O  O65  1  0.02703607  0.32144102  0.45905396  1  -0.586805  0.083639  2.086381  0.115  -0.562915  0.052736  2.377754  0.079  -0.606688  0.040151  2.367491  0.065  -0.312303  -0.532902  0.061038  2.38351  0.087
O  O66  1  0.97296447  0.67856022  0.54095012  1  -0.586884  0.083627  2.086372  0.115  -0.563005  0.052733  2.377704  0.079  -0.606774  0.040148  2.367452  0.065  -0.312348  -0.532992  0.061033  2.38346  0.087
O  O67  1  0.84280069  0.07405396  0.27338967  1  -0.38775  -9.1e-05  1.797347  0.0  -0.360497  -8.7e-05  2.00457  0.0  -0.375532  -6.3e-05  2.000402  0.0  -0.123128  -0.350883  -5e-05  2.0081  0.0
O  O68  1  0.15719990  0.92593334  0.72661945  1  -0.387941  -8.2e-05  1.797376  0.0  -0.360555  -8.9e-05  2.004518  0.0  -0.375594  -5.8e-05  2.00035  0.0  -0.123144  -0.35094  -5e-05  2.008047  0.0
O  O69  1  0.93679286  0.85423123  0.26482249  1  -0.333398  2.7e-05  1.777998  0.0  -0.315332  1e-05  1.983063  0.0  -0.326408  -6e-06  1.980301  0.0  -0.111969  -0.308298  -1.9e-05  1.985421  0.0
O  O70  1  0.06321374  0.14575600  0.73518774  1  -0.333406  3.2e-05  1.777823  0.0  -0.315406  9e-06  1.98295  0.0  -0.326474  -7e-06  1.980184  0.0  -0.112035  -0.308369  -1.8e-05  1.985311  0.0
O  O71  1  0.01545017  0.43847614  0.66735908  1  -0.611301  0.075022  2.124851  0.104  -0.564006  0.053096  2.389901  0.08  -0.607019  0.04092  2.380444  0.067  -0.302342  -0.535302  0.060723  2.396148  0.086
O  O72  1  0.98455364  0.56151597  0.33263041  1  -0.61141  0.07501  2.12453  0.104  -0.564115  0.053095  2.389779  0.08  -0.607134  0.040919  2.380315  0.067  -0.302463  -0.535414  0.060725  2.396028  0.086
O  O73  1  0.77776183  0.49793519  0.72348161  1  -0.743983  -0.001858  2.073743  0.0  -0.710503  -0.001606  2.34909  0.0  -0.73451  -0.002195  2.332885  -0.001  -0.389652  -0.686341  -0.001041  2.360663  0.001
O  O74  1  0.22223450  0.50208602  0.27651519  1  -0.744109  -0.001868  2.073692  0.0  -0.710538  -0.001607  2.349148  0.0  -0.734551  -0.002194  2.332934  -0.001  -0.389637  -0.686394  -0.001042  2.360733  0.001
O  O75  1  0.53909914  0.43341531  0.15758900  1  -0.666447  5.2e-05  1.931574  0.0  -0.629543  1.3e-05  2.158187  0.0  -0.65195  1.8e-05  2.147093  0.0  -0.357867  -0.609482  2.6e-05  2.16565  0.0
O  O76  1  0.46090081  0.56659584  0.84240367  1  -0.666406  5.6e-05  1.931658  0.0  -0.629525  1e-05  2.158262  0.0  -0.651928  2.1e-05  2.147162  0.0  -0.357839  -0.609458  2.6e-05  2.165724  0.0
O  O77  1  0.66588551  0.38518624  0.29497694  1  -0.723773  0.000181  2.045118  0.0  -0.669635  8.6e-05  2.277988  0.0  -0.695304  5.7e-05  2.267597  0.0  -0.372207  -0.64738  0.000164  2.284541  0.0
O  O78  1  0.33411858  0.61480788  0.70501573  1  -0.72387  0.000178  2.045134  0.0  -0.669742  8.5e-05  2.278049  0.0  -0.6954  5.7e-05  2.267632  0.0  -0.37228  -0.647473  0.000165  2.28459  0.0
O  O79  1  0.18693786  0.25334726  0.15679838  1  -0.362129  1.9e-05  1.765527  0.0  -0.345216  -2.5e-05  1.97342  0.0  -0.358755  -3e-06  1.971462  0.0  -0.124128  -0.336024  -3.6e-05  1.974519  0.0
O  O80  1  0.81305513  0.74665001  0.84319412  1  -0.362229  1.7e-05  1.765429  0.0  -0.345273  -2.5e-05  1.973287  0.0  -0.358811  -1e-06  1.971324  0.0  -0.124161  -0.336079  -3.5e-05  1.974391  0.0
O  O81  1  0.29218444  0.23147499  0.96250849  1  -0.348729  2.4e-05  1.692576  0.0  -0.338527  -1.6e-05  1.874699  0.0  -0.348894  -6e-06  1.871385  0.0  -0.135814  -0.331513  -2e-05  1.87717  0.0
O  O82  1  0.70781448  0.76852520  0.03748567  1  -0.348801  3.8e-05  1.692591  0.0  -0.338609  -1.7e-05  1.87472  0.0  -0.348978  -7e-06  1.871407  0.0  -0.135796  -0.331589  -2e-05  1.877193  0.0
O  O83  1  0.44711047  0.83672742  0.73097172  1  -0.88078  -4e-06  1.813754  0.0  -0.842954  -1.6e-05  1.971134  0.0  -0.858393  -8e-06  1.940552  0.0  -0.607211  -0.826637  -9e-06  1.996114  0.0
O  O84  1  0.55289252  0.16326984  0.26903742  1  -0.880767  -4e-06  1.813697  0.0  -0.842892  -1.6e-05  1.971161  0.0  -0.858335  -9e-06  1.940569  0.0  -0.607199  -0.826583  -9e-06  1.99614  0.0
O  O85  1  0.73564164  0.52811197  0.42362055  1  -0.954638  -0.000767  1.861008  0.0  -0.920705  -0.000964  2.063287  0.0  -0.937105  -0.001048  2.02587  0.0  -0.658208  -0.90207  -0.000784  2.091363  0.0
O  O86  1  0.26434380  0.47189243  0.57637827  1  -0.954788  -0.000769  1.86093  0.0  -0.920877  -0.000962  2.063196  0.0  -0.937278  -0.00105  2.025765  0.0  -0.658301  -0.902252  -0.000784  2.091267  0.0
