# generated using pymatgen
data_HoPH11C9SNO9
_symmetry_space_group_name_H-M   'P 1'
_cell_length_a   6.70126550
_cell_length_b   13.32534042
_cell_length_c   14.94367875
_cell_angle_alpha   90.53327393
_cell_angle_beta   89.99992961
_cell_angle_gamma   89.99983598
_symmetry_Int_Tables_number   1
_chemical_formula_structural   HoPH11C9SNO9
_chemical_formula_sum   'Ho4 P4 H44 C36 S4 N4 O36'
_cell_volume   1334.36256354
_cell_formula_units_Z   4
loop_
 _symmetry_equiv_pos_site_id
 _symmetry_equiv_pos_as_xyz
  1  'x, y, z'
loop_
 _atom_site_type_symbol
 _atom_site_label
 _atom_site_symmetry_multiplicity
 _atom_site_fract_x
 _atom_site_fract_y
 _atom_site_fract_z
 _atom_site_occupancy
 _atom_site_hle17_bader_spin_density
 _atom_site_hle17_ddec_charge
 _atom_site_hle17_ddec_spin_density
 _atom_site_hle17_ddec_sum_bond_order
 _atom_site_hle17_magmom
 _atom_site_hse06_10hf_bader_spin_density
 _atom_site_hse06_10hf_ddec_charge
 _atom_site_hse06_10hf_ddec_spin_density
 _atom_site_hse06_10hf_ddec_sum_bond_order
 _atom_site_hse06_10hf_magmom
 _atom_site_hse06_bader_spin_density
 _atom_site_hse06_ddec_charge
 _atom_site_hse06_ddec_spin_density
 _atom_site_hse06_ddec_sum_bond_order
 _atom_site_hse06_magmom
 _atom_site_pbe_bader_spin_density
 _atom_site_pbe_cm5_charge
 _atom_site_pbe_ddec_charge
 _atom_site_pbe_ddec_spin_density
 _atom_site_pbe_ddec_sum_bond_order
 _atom_site_pbe_magmom
Ho  Ho0  1  0.87536211  0.54725223  0.61906036  1  0  2.363274  0  1.583144  0  0  2.305409  0  1.892971  0  0  2.346955  0  1.85536  0  0  1.559242  2.199036  0  2.0583  0
Ho  Ho1  1  0.37535945  0.45274781  0.88093838  1  0  2.363278  0  1.583096  0  0  2.305408  0  1.892916  0  0  2.346955  0  1.855307  0  0  1.559256  2.19901  0  2.058276  0
Ho  Ho2  1  0.12463883  0.45274745  0.38093891  1  0  2.363311  0  1.583096  0  0  2.305442  0  1.892927  0  0  2.346989  0  1.855317  0  0  1.559271  2.199132  0  2.058158  0
Ho  Ho3  1  0.62463702  0.54725336  0.11906157  1  0  2.363271  0  1.583104  0  0  2.305404  0  1.892933  0  0  2.346948  0  1.855322  0  0  1.55924  2.199057  0  2.058206  0
P  P4  1  0.87022450  0.37814302  0.80336486  1  0  1.5365  0  4.941319  0  0  1.373366  0  5.45272  0  0  1.426111  0  5.406353  0  0  0.373968  1.334735  0  5.476622  0
P  P5  1  0.37022735  0.62185778  0.69663254  1  0  1.536555  0  4.941234  0  0  1.373438  0  5.45262  0  0  1.426183  0  5.406253  0  0  0.374016  1.334807  0  5.476524  0
P  P6  1  0.12977047  0.62185740  0.19663642  1  0  1.536426  0  4.941373  0  0  1.373303  0  5.452773  0  0  1.426049  0  5.406411  0  0  0.373943  1.334672  0  5.476682  0
P  P7  1  0.62976911  0.37814189  0.30336538  1  0  1.536417  0  4.941415  0  0  1.373281  0  5.45281  0  0  1.426027  0  5.406446  0  0  0.373906  1.334657  0  5.476711  0
H  H8  1  0.85849562  0.22531395  0.94458046  1  0  0.135783  0  0.934374  0  0  0.145503  0  0.988346  0  0  0.149573  0  0.986605  0  0  0.122771  0.142288  0  0.990415  0
H  H9  1  0.35850246  0.77468611  0.55541962  1  0  0.135778  0  0.934287  0  0  0.145503  0  0.988278  0  0  0.149569  0  0.986535  0  0  0.122769  0.142288  0  0.990347  0
H  H10  1  0.14150085  0.77468347  0.05542146  1  0  0.135794  0  0.934244  0  0  0.145507  0  0.98824  0  0  0.149577  0  0.986499  0  0  0.122782  0.142293  0  0.990308  0
H  H11  1  0.64150147  0.22531506  0.44457899  1  0  0.135781  0  0.934308  0  0  0.145493  0  0.988298  0  0  0.149564  0  0.986556  0  0  0.122769  0.142278  0  0.990368  0
H  H12  1  0.86031820  0.03783532  0.93865899  1  0  0.095838  0  0.9289  0  0  0.110864  0  0.984124  0  0  0.113193  0  0.982435  0  0  0.113454  0.109169  0  0.985312  0
H  H13  1  0.36032397  0.96216549  0.56134243  1  0  0.095807  0  0.928841  0  0  0.110827  0  0.984075  0  0  0.113156  0  0.982386  0  0  0.113425  0.109134  0  0.985261  0
H  H14  1  0.13967827  0.96216210  0.06134226  1  0  0.095825  0  0.928846  0  0  0.110843  0  0.984075  0  0  0.113172  0  0.982386  0  0  0.113441  0.109149  0  0.98526  0
H  H15  1  0.63968295  0.03783718  0.43865820  1  0  0.095808  0  0.928851  0  0  0.11083  0  0.984081  0  0  0.113159  0  0.982393  0  0  0.113429  0.109133  0  0.985269  0
H  H16  1  0.85701358  0.87789554  0.84567977  1  0  0.115573  0  0.952097  0  0  0.124466  0  1.01333  0  0  0.127915  0  1.010945  0  0  0.105529  0.12192  0  1.015127  0
H  H17  1  0.35701640  0.12210452  0.65432165  1  0  0.115607  0  0.952089  0  0  0.124507  0  1.013303  0  0  0.127955  0  1.010921  0  0  0.105554  0.121959  0  1.015099  0
H  H18  1  0.14298736  0.12210338  0.15431948  1  0  0.115604  0  0.952087  0  0  0.124493  0  1.013322  0  0  0.127942  0  1.010937  0  0  0.105542  0.121944  0  1.015119  0
H  H19  1  0.64298753  0.87789590  0.34567963  1  0  0.115597  0  0.952096  0  0  0.124491  0  1.013317  0  0  0.12794  0  1.010933  0  0  0.105535  0.12194  0  1.015114  0
H  H20  1  0.86168328  0.79772121  0.69537793  1  0  0.118548  0  0.955027  0  0  0.127301  0  1.017321  0  0  0.130553  0  1.015755  0  0  0.112903  0.125055  0  1.01801  0
H  H21  1  0.36168076  0.20227734  0.80462481  1  0  0.118612  0  0.954973  0  0  0.127368  0  1.017262  0  0  0.130625  0  1.015693  0  0  0.112938  0.125123  0  1.017947  0
H  H22  1  0.13831915  0.20227771  0.30462266  1  0  0.118578  0  0.95498  0  0  0.127338  0  1.017273  0  0  0.130593  0  1.015702  0  0  0.112923  0.125098  0  1.017957  0
H  H23  1  0.63831571  0.79772233  0.19537713  1  0  0.118566  0  0.955032  0  0  0.127327  0  1.017314  0  0  0.130581  0  1.015747  0  0  0.112921  0.125081  0  1.018  0
H  H24  1  0.86468709  0.89979151  0.55944226  1  0  0.09945  0  0.949529  0  0  0.110526  0  1.007674  0  0  0.113353  0  1.005977  0  0  0.104541  0.108192  0  1.009399  0
H  H25  1  0.36468328  0.10020629  0.94055980  1  0  0.099471  0  0.949487  0  0  0.110556  0  1.007627  0  0  0.113386  0  1.005925  0  0  0.104563  0.108231  0  1.009345  0
H  H26  1  0.13531087  0.10020741  0.44055833  1  0  0.099447  0  0.949524  0  0  0.110514  0  1.007679  0  0  0.113345  0  1.005977  0  0  0.104539  0.108179  0  1.009404  0
H  H27  1  0.63530871  0.89979263  0.05944146  1  0  0.099448  0  0.9495  0  0  0.110518  0  1.00765  0  0  0.113348  0  1.005949  0  0  0.10454  0.108182  0  1.009376  0
H  H28  1  0.86697999  0.08893632  0.57019704  1  0  0.118794  0  0.965798  0  0  0.126561  0  1.028571  0  0  0.130027  0  1.027175  0  0  0.10799  0.124043  0  1.029668  0
H  H29  1  0.36697907  0.91106148  0.92980369  1  0  0.118787  0  0.96575  0  0  0.126556  0  1.028532  0  0  0.13002  0  1.027135  0  0  0.107988  0.124036  0  1.02963  0
H  H30  1  0.13301648  0.91106260  0.42980356  1  0  0.118816  0  0.965748  0  0  0.126575  0  1.028534  0  0  0.13004  0  1.027138  0  0  0.107997  0.124055  0  1.029634  0
H  H31  1  0.63301740  0.08893744  0.07019691  1  0  0.118772  0  0.965823  0  0  0.126537  0  1.028602  0  0  0.130002  0  1.027207  0  0  0.107972  0.124016  0  1.029702  0
H  H32  1  0.86650940  0.23143265  0.66223719  1  0  0.314896  0  0.914146  0  0  0.290029  0  0.98177  0  0  0.299596  0  0.974197  0  0  0.314376  0.283061  0  0.987732  0
H  H33  1  0.36650954  0.76856590  0.83776287  1  0  0.314854  0  0.914214  0  0  0.290058  0  0.981746  0  0  0.299624  0  0.974172  0  0  0.314403  0.28309  0  0.987709  0
H  H34  1  0.13349006  0.76856627  0.33776407  1  0  0.314839  0  0.914236  0  0  0.290049  0  0.981764  0  0  0.299615  0  0.97419  0  0  0.314389  0.28308  0  0.987727  0
H  H35  1  0.63348992  0.23143377  0.16223573  1  0  0.314882  0  0.914199  0  0  0.290071  0  0.981736  0  0  0.299638  0  0.974161  0  0  0.31439  0.283102  0  0.987699  0
H  H36  1  0.05592692  0.60960010  0.79096141  1  0  0.437395  0  0.860029  0  0  0.410288  0  0.917802  0  0  0.420222  0  0.903116  0  0  0.310574  0.40308  0  0.928045  0
H  H37  1  0.55592575  0.39040115  0.70903617  1  0  0.437399  0  0.860015  0  0  0.410295  0  0.917785  0  0  0.420229  0  0.903099  0  0  0.310607  0.403091  0  0.928022  0
H  H38  1  0.94407253  0.39040032  0.20903786  1  0  0.437386  0  0.86004  0  0  0.410282  0  0.917807  0  0  0.420217  0  0.903121  0  0  0.310585  0.403072  0  0.928053  0
H  H39  1  0.44407071  0.60959927  0.29096578  1  0  0.437323  0  0.860108  0  0  0.410221  0  0.917873  0  0  0.420155  0  0.903189  0  0  0.310603  0.403017  0  0.928111  0
H  H40  1  0.83652412  0.65046191  0.80950986  1  0  0.460847  0  0.821234  0  0  0.43412  0  0.875599  0  0  0.444228  0  0.860819  0  0  0.309689  0.426328  0  0.886958  0
H  H41  1  0.33652554  0.34953743  0.69048889  1  0  0.460829  0  0.821258  0  0  0.434109  0  0.875613  0  0  0.44422  0  0.860827  0  0  0.309687  0.426314  0  0.886976  0
H  H42  1  0.16347533  0.34953926  0.19049009  1  0  0.460892  0  0.821174  0  0  0.434183  0  0.875506  0  0  0.444289  0  0.860731  0  0  0.309721  0.426389  0  0.886868  0
H  H43  1  0.66347242  0.65046224  0.30951171  1  0  0.460823  0  0.821266  0  0  0.434105  0  0.875614  0  0  0.444215  0  0.860834  0  0  0.309703  0.426313  0  0.886973  0
H  H44  1  0.71008945  0.36789962  0.55108691  1  0  0.423741  0  0.870491  0  0  0.395502  0  0.936677  0  0  0.405505  0  0.921843  0  0  0.301592  0.388353  0  0.947041  0
H  H45  1  0.21008708  0.63210291  0.94891193  1  0  0.42379  0  0.870459  0  0  0.39555  0  0.936613  0  0  0.405554  0  0.921778  0  0  0.30162  0.388399  0  0.94698  0
H  H46  1  0.28991448  0.63210080  0.44891169  1  0  0.423769  0  0.870456  0  0  0.395527  0  0.936632  0  0  0.40553  0  0.921799  0  0  0.301627  0.388379  0  0.946994  0
H  H47  1  0.78991536  0.36790127  0.05108804  1  0  0.423758  0  0.870546  0  0  0.395521  0  0.93668  0  0  0.405526  0  0.921843  0  0  0.301589  0.388372  0  0.947044  0
H  H48  1  0.66585591  0.44349314  0.47633519  1  0  0.445583  0  0.83801  0  0  0.418789  0  0.902671  0  0  0.428746  0  0.887998  0  0  0.312548  0.411569  0  0.912951  0
H  H49  1  0.16585512  0.55650911  0.02366327  1  0  0.445586  0  0.838042  0  0  0.41878  0  0.902706  0  0  0.428735  0  0.888036  0  0  0.312511  0.41156  0  0.912987  0
H  H50  1  0.33414653  0.55650728  0.52366408  1  0  0.44559  0  0.837949  0  0  0.418794  0  0.902652  0  0  0.42875  0  0.887979  0  0  0.312555  0.411577  0  0.91293  0
H  H51  1  0.83414433  0.44349506  0.97633537  1  0  0.445582  0  0.837952  0  0  0.418787  0  0.902662  0  0  0.428743  0  0.887989  0  0  0.312523  0.411574  0  0.912935  0
C  C52  1  0.86213389  0.24019252  0.80114950  1  0  0.018576  0  3.556859  0  0  0.027233  0  3.808153  0  0  0.034188  0  3.819159  0  0  0.148932  0.022039  0  3.802989  0
C  C53  1  0.36213595  0.75980753  0.69884991  1  0  0.018698  0  3.55664  0  0  0.027309  0  3.808056  0  0  0.034265  0  3.819061  0  0  0.148955  0.022117  0  3.802891  0
C  C54  1  0.13786407  0.75980715  0.19885177  1  0  0.018705  0  3.556782  0  0  0.027291  0  3.808232  0  0  0.034246  0  3.819239  0  0  0.148948  0.022095  0  3.803075  0
C  C55  1  0.63786649  0.24019289  0.30114869  1  0  0.018644  0  3.556837  0  0  0.027296  0  3.808135  0  0  0.03425  0  3.819141  0  0  0.148922  0.022099  0  3.802971  0
C  C56  1  0.86204440  0.18493635  0.88108670  1  0  -0.075093  0  3.671459  0  0  -0.098074  0  3.927205  0  0  -0.105769  0  3.94588  0  0  -0.061109  -0.093648  0  3.916105  0
C  C57  1  0.36204935  0.81506446  0.61891338  1  0  -0.075107  0  3.671278  0  0  -0.098102  0  3.927078  0  0  -0.105791  0  3.94575  0  0  -0.061099  -0.093677  0  3.915983  0
C  C58  1  0.13795356  0.81506107  0.11891455  1  0  -0.075181  0  3.671233  0  0  -0.098138  0  3.92702  0  0  -0.105834  0  3.945697  0  0  -0.061106  -0.093712  0  3.915925  0
C  C59  1  0.63795607  0.18493747  0.38108523  1  0  -0.075128  0  3.671404  0  0  -0.098112  0  3.927166  0  0  -0.105807  0  3.945843  0  0  -0.061112  -0.093687  0  3.916068  0
C  C60  1  0.86164925  0.08155854  0.87726651  1  0  -0.020247  0  3.672016  0  0  -0.048124  0  3.9249  0  0  -0.04216  0  3.940598  0  0  -0.04884  -0.051756  0  3.914272  0
C  C61  1  0.36165211  0.91844077  0.62273423  1  0  -0.020254  0  3.671975  0  0  -0.048114  0  3.924863  0  0  -0.042151  0  3.940566  0  0  -0.048856  -0.051747  0  3.914241  0
C  C62  1  0.13835020  0.91843963  0.12273408  1  0  -0.020246  0  3.671837  0  0  -0.048126  0  3.924708  0  0  -0.042163  0  3.940409  0  0  -0.048878  -0.051759  0  3.914082  0
C  C63  1  0.63835480  0.08155890  0.37726637  1  0  -0.020169  0  3.672015  0  0  -0.048062  0  3.924882  0  0  -0.042099  0  3.940586  0  0  -0.048822  -0.051692  0  3.914253  0
C  C64  1  0.86225835  0.02998339  0.79407822  1  0  0.003048  0  3.813187  0  0  0.023456  0  4.039535  0  0  0.018839  0  4.065276  0  0  0.000544  0.026187  0  4.022483  0
C  C65  1  0.36226070  0.97001591  0.70592385  1  0  0.003003  0  3.813345  0  0  0.023416  0  4.039668  0  0  0.018796  0  4.065414  0  0  0.000549  0.026146  0  4.022615  0
C  C66  1  0.13774110  0.97001403  0.20592303  1  0  0.002999  0  3.813331  0  0  0.023472  0  4.039569  0  0  0.018852  0  4.065316  0  0  0.000554  0.026204  0  4.022512  0
C  C67  1  0.63774622  0.02998451  0.29407675  1  0  0.002966  0  3.813325  0  0  0.02345  0  4.039572  0  0  0.01883  0  4.065315  0  0  0.000591  0.026183  0  4.022513  0
C  C68  1  0.86147836  0.92394250  0.78570147  1  0  -0.097418  0  3.705773  0  0  -0.121069  0  3.960971  0  0  -0.122268  0  3.981905  0  0  -0.082611  -0.119969  0  3.947019  0
C  C69  1  0.36147829  0.07605681  0.71429927  1  0  -0.097397  0  3.70582  0  0  -0.121036  0  3.961006  0  0  -0.122232  0  3.981939  0  0  -0.08262  -0.119934  0  3.94705  0
C  C70  1  0.13852407  0.07605567  0.21429845  1  0  -0.097387  0  3.705712  0  0  -0.121031  0  3.960871  0  0  -0.122229  0  3.981805  0  0  -0.082583  -0.11993  0  3.946917  0
C  C71  1  0.63852564  0.92394361  0.28570133  1  0  -0.097397  0  3.70571  0  0  -0.121055  0  3.960884  0  0  -0.122251  0  3.981817  0  0  -0.082604  -0.119951  0  3.946929  0
C  C72  1  0.86217698  0.87906725  0.70219149  1  0  -0.049793  0  3.700001  0  0  -0.071511  0  3.961515  0  0  -0.075452  0  3.98438  0  0  -0.082791  -0.069246  0  3.947039  0
C  C73  1  0.36217642  0.12093206  0.79781126  1  0  -0.049944  0  3.700012  0  0  -0.071686  0  3.961557  0  0  -0.075632  0  3.984423  0  0  -0.08286  -0.06942  0  3.94708  0
C  C74  1  0.13782247  0.12093092  0.29780977  1  0  -0.049896  0  3.700019  0  0  -0.071648  0  3.961554  0  0  -0.075591  0  3.984417  0  0  -0.08288  -0.069389  0  3.947077  0
C  C75  1  0.63782303  0.87906761  0.20219001  1  0  -0.049892  0  3.700054  0  0  -0.071635  0  3.961577  0  0  -0.075581  0  3.984446  0  0  -0.082883  -0.06937  0  3.9471  0
C  C76  1  0.86404522  0.93827531  0.62411677  1  0  -0.031937  0  3.747927  0  0  -0.048625  0  4.003292  0  0  -0.048065  0  4.024937  0  0  -0.078593  -0.048819  0  3.989175  0
C  C77  1  0.36404180  0.06172174  0.87588462  1  0  -0.031955  0  3.748074  0  0  -0.048655  0  4.003462  0  0  -0.048095  0  4.025107  0  0  -0.078623  -0.048856  0  3.989346  0
C  C78  1  0.13595274  0.06172286  0.37588315  1  0  -0.031866  0  3.748102  0  0  -0.048534  0  4.003454  0  0  -0.047973  0  4.025095  0  0  -0.078547  -0.048724  0  3.989335  0
C  C79  1  0.63595168  0.93827568  0.12411663  1  0  -0.031884  0  3.748051  0  0  -0.048552  0  4.003398  0  0  -0.047991  0  4.025042  0  0  -0.078556  -0.04874  0  3.989278  0
C  C80  1  0.86436113  0.04179811  0.62938658  1  0  -0.176184  0  3.724309  0  0  -0.19622  0  3.980256  0  0  -0.203001  0  4.001449  0  0  -0.092197  -0.191716  0  3.96587  0
C  C81  1  0.36436011  0.95820044  0.87061482  1  0  -0.176133  0  3.724272  0  0  -0.196173  0  3.980212  0  0  -0.202956  0  4.001415  0  0  -0.092181  -0.19167  0  3.965831  0
C  C82  1  0.13563534  0.95820156  0.37061335  1  0  -0.176258  0  3.724415  0  0  -0.196297  0  3.980363  0  0  -0.20308  0  4.001562  0  0  -0.092222  -0.191792  0  3.965976  0
C  C83  1  0.63563785  0.04179848  0.12938577  1  0  -0.176201  0  3.724357  0  0  -0.196236  0  3.980303  0  0  -0.203017  0  4.001494  0  0  -0.092185  -0.191732  0  3.965918  0
C  C84  1  0.86291638  0.08839716  0.71464795  1  0  0.21562  0  3.726094  0  0  0.205459  0  3.963866  0  0  0.212549  0  3.985845  0  0  0.123815  0.200814  0  3.949175  0
C  C85  1  0.36291436  0.91160139  0.78535278  1  0  0.21571  0  3.726015  0  0  0.205576  0  3.963769  0  0  0.212667  0  3.985746  0  0  0.123903  0.200932  0  3.949077  0
C  C86  1  0.13708457  0.91160176  0.28535331  1  0  0.215673  0  3.726025  0  0  0.205531  0  3.963773  0  0  0.212622  0  3.985751  0  0  0.123858  0.200885  0  3.949083  0
C  C87  1  0.63708658  0.08839828  0.21464715  1  0  0.215748  0  3.725989  0  0  0.205561  0  3.963744  0  0  0.212653  0  3.985722  0  0  0.123845  0.200914  0  3.949053  0
S  S88  1  0.91068808  0.69211033  0.46203178  1  0  1.581824  0  5.851022  0  0  1.456922  0  6.413019  0  0  1.51308  0  6.373542  0  0  0.556506  1.418448  0  6.428435  0
S  S89  1  0.41069165  0.30789307  0.03796589  1  0  1.581968  0  5.850559  0  0  1.457057  0  6.412558  0  0  1.513207  0  6.37308  0  0  0.556618  1.418581  0  6.427972  0
S  S90  1  0.08931436  0.30788784  0.53796814  1  0  1.581865  0  5.850787  0  0  1.456969  0  6.412782  0  0  1.513132  0  6.37329  0  0  0.556511  1.418491  0  6.428215  0
S  S91  1  0.58931228  0.69211111  0.96203141  1  0  1.581976  0  5.850765  0  0  1.45707  0  6.412746  0  0  1.513221  0  6.373267  0  0  0.556597  1.418594  0  6.428166  0
N  N92  1  0.86202968  0.19107168  0.72272983  1  0  -0.23553  0  3.446547  0  0  -0.172146  0  3.657824  0  0  -0.187525  0  3.674262  0  0  -0.324932  -0.162404  0  3.647944  0
N  N93  1  0.36202975  0.80892688  0.77727090  1  0  -0.235587  0  3.446522  0  0  -0.172268  0  3.657821  0  0  -0.187647  0  3.674259  0  0  -0.325006  -0.162526  0  3.647941  0
N  N94  1  0.13797127  0.80892649  0.27727008  1  0  -0.235518  0  3.446502  0  0  -0.172226  0  3.657859  0  0  -0.187607  0  3.674298  0  0  -0.324983  -0.162484  0  3.647984  0
N  N95  1  0.63797119  0.19107204  0.22272903  1  0  -0.235604  0  3.446533  0  0  -0.172259  0  3.657797  0  0  -0.187637  0  3.674232  0  0  -0.324967  -0.162514  0  3.647918  0
O  O96  1  0.82817428  0.40978880  0.70683062  1  0  -0.969813  0  2.055657  0  0  -0.903467  0  2.323807  0  0  -0.928386  0  2.301403  0  0  -0.458651  -0.87389  0  2.34021  0
O  O97  1  0.32818003  0.59021280  0.79316816  1  0  -0.969854  0  2.055552  0  0  -0.903491  0  2.323683  0  0  -0.928411  0  2.301279  0  0  -0.458686  -0.873905  0  2.340083  0
O  O98  1  0.17181473  0.59021012  0.29316998  1  0  -0.969863  0  2.055666  0  0  -0.903502  0  2.323808  0  0  -0.928424  0  2.301405  0  0  -0.45871  -0.873936  0  2.34021  0
O  O99  1  0.67182241  0.40978762  0.20682911  1  0  -0.969788  0  2.055611  0  0  -0.903431  0  2.32375  0  0  -0.928353  0  2.30135  0  0  -0.458631  -0.873857  0  2.340146  0
O  O100  1  0.70701485  0.41013731  0.86903888  1  0  -0.952012  0  2.033396  0  0  -0.884769  0  2.300753  0  0  -0.911175  0  2.2793  0  0  -0.447367  -0.854483  0  2.317379  0
O  O101  1  0.20701508  0.58986672  0.63096065  1  0  -0.952021  0  2.033416  0  0  -0.884793  0  2.300786  0  0  -0.911196  0  2.279324  0  0  -0.447369  -0.854512  0  2.317414  0
O  O102  1  0.29298162  0.58986461  0.13096174  1  0  -0.951945  0  2.033382  0  0  -0.884692  0  2.300738  0  0  -0.911089  0  2.279259  0  0  -0.447311  -0.854412  0  2.317362  0
O  O103  1  0.79298288  0.41013445  0.36903863  1  0  -0.951928  0  2.033349  0  0  -0.884714  0  2.300736  0  0  -0.911116  0  2.279274  0  0  -0.447331  -0.854441  0  2.317359  0
O  O104  1  0.07816504  0.40188966  0.83599757  1  0  -0.947285  0  2.04967  0  0  -0.883967  0  2.32938  0  0  -0.911964  0  2.308698  0  0  -0.477317  -0.851235  0  2.34669  0
O  O105  1  0.57816879  0.59811081  0.66400066  1  0  -0.947328  0  2.049785  0  0  -0.884007  0  2.329472  0  0  -0.912008  0  2.308794  0  0  -0.477319  -0.85128  0  2.346785  0
O  O106  1  0.92182844  0.59811226  0.16400506  1  0  -0.947273  0  2.049774  0  0  -0.883934  0  2.329446  0  0  -0.911932  0  2.308767  0  0  -0.477299  -0.851211  0  2.34675  0
O  O107  1  0.42183216  0.40189036  0.33599594  1  0  -0.947295  0  2.049843  0  0  -0.883953  0  2.329521  0  0  -0.911953  0  2.308849  0  0  -0.477289  -0.85124  0  2.346831  0
O  O108  1  0.84469886  0.71415376  0.55527258  1  0  -0.788095  0  1.97312  0  0  -0.751135  0  2.245412  0  0  -0.772184  0  2.228834  0  0  -0.402178  -0.726902  0  2.25512  0
O  O109  1  0.34470741  0.28585158  0.94472488  1  0  -0.788106  0  1.973081  0  0  -0.751156  0  2.245393  0  0  -0.772224  0  2.22886  0  0  -0.402268  -0.726918  0  2.2551  0
O  O110  1  0.15529761  0.28584591  0.44472401  1  0  -0.788172  0  1.972968  0  0  -0.751234  0  2.245293  0  0  -0.772302  0  2.228752  0  0  -0.402255  -0.727003  0  2.255  0
O  O111  1  0.65529950  0.71415185  0.05527576  1  0  -0.78817  0  1.972854  0  0  -0.751263  0  2.245209  0  0  -0.772322  0  2.228659  0  0  -0.402326  -0.727032  0  2.254914  0
O  O112  1  0.92678387  0.57838938  0.45975849  1  0  -0.931384  0  2.165832  0  0  -0.88663  0  2.44672  0  0  -0.908927  0  2.429094  0  0  -0.470134  -0.852813  0  2.455812  0
O  O113  1  0.42678679  0.42161173  0.04024384  1  0  -0.931438  0  2.165916  0  0  -0.886666  0  2.446747  0  0  -0.908952  0  2.429107  0  0  -0.470155  -0.852845  0  2.455842  0
O  O114  1  0.07321707  0.42160954  0.54024144  1  0  -0.931454  0  2.165826  0  0  -0.886689  0  2.446693  0  0  -0.908984  0  2.42906  0  0  -0.470164  -0.852872  0  2.45579  0
O  O115  1  0.57321564  0.57839018  0.95975946  1  0  -0.931427  0  2.165836  0  0  -0.886685  0  2.446742  0  0  -0.908981  0  2.42912  0  0  -0.470128  -0.852862  0  2.455836  0
O  O116  1  0.11288494  0.73618617  0.44554798  1  0  -0.725078  0  1.974071  0  0  -0.663627  0  2.211456  0  0  -0.685875  0  2.195029  0  0  -0.343172  -0.648485  0  2.222574  0
O  O117  1  0.61288640  0.26381615  0.05445118  1  0  -0.725117  0  1.97399  0  0  -0.663651  0  2.211356  0  0  -0.685904  0  2.19494  0  0  -0.343182  -0.648509  0  2.22248  0
O  O118  1  0.88711750  0.26381275  0.55444994  1  0  -0.725094  0  1.974037  0  0  -0.663621  0  2.211415  0  0  -0.685873  0  2.194992  0  0  -0.343143  -0.648479  0  2.222533  0
O  O119  1  0.38711753  0.73618802  0.94555080  1  0  -0.725078  0  1.974014  0  0  -0.663643  0  2.211413  0  0  -0.68589  0  2.194992  0  0  -0.343153  -0.648499  0  2.22253  0
O  O120  1  0.76903423  0.72735580  0.39435158  1  0  -0.688808  0  1.91373  0  0  -0.632323  0  2.147438  0  0  -0.65294  0  2.129378  0  0  -0.340426  -0.618885  0  2.16055  0
O  O121  1  0.26903633  0.27264855  0.10564752  1  0  -0.688941  0  1.913439  0  0  -0.632445  0  2.147153  0  0  -0.653045  0  2.129085  0  0  -0.340499  -0.619004  0  2.160267  0
O  O122  1  0.23097119  0.27264538  0.60564302  1  0  -0.688746  0  1.91374  0  0  -0.632257  0  2.147445  0  0  -0.652872  0  2.129382  0  0  -0.340366  -0.618817  0  2.160562  0
O  O123  1  0.73096611  0.72735337  0.89435578  1  0  -0.688868  0  1.913829  0  0  -0.632321  0  2.147494  0  0  -0.652927  0  2.129432  0  0  -0.340418  -0.618881  0  2.160609  0
O  O124  1  0.92607749  0.62342819  0.76238942  1  0  -0.925507  0  1.86603  0  0  -0.887829  0  2.056292  0  0  -0.905369  0  2.024081  0  0  -0.635737  -0.864875  0  2.08373  0
O  O125  1  0.42607864  0.37657027  0.73760927  1  0  -0.925513  0  1.866027  0  0  -0.887833  0  2.056271  0  0  -0.905371  0  2.024057  0  0  -0.635749  -0.864875  0  2.083707  0
O  O126  1  0.07392047  0.37657073  0.23760984  1  0  -0.925534  0  1.865984  0  0  -0.887853  0  2.056231  0  0  -0.905392  0  2.024016  0  0  -0.635756  -0.864904  0  2.08367  0
O  O127  1  0.57391634  0.62342940  0.26239267  1  0  -0.925447  0  1.866111  0  0  -0.887775  0  2.056372  0  0  -0.905306  0  2.024136  0  0  -0.635786  -0.864826  0  2.083802  0
O  O128  1  0.65047069  0.43489675  0.54164991  1  0  -0.871061  0  1.851559  0  0  -0.836248  0  2.041818  0  0  -0.853539  0  2.011751  0  0  -0.632918  -0.815166  0  2.06718  0
O  O129  1  0.15046866  0.56510512  0.95834896  1  0  -0.871127  0  1.851577  0  0  -0.836303  0  2.041807  0  0  -0.853597  0  2.011731  0  0  -0.632908  -0.815219  0  2.067171  0
O  O130  1  0.34952727  0.56510142  0.45834800  1  0  -0.871079  0  1.851469  0  0  -0.836281  0  2.041837  0  0  -0.853573  0  2.011772  0  0  -0.632957  -0.815204  0  2.067185  0
O  O131  1  0.84952930  0.43489980  0.04165169  1  0  -0.871052  0  1.851531  0  0  -0.836282  0  2.041813  0  0  -0.853573  0  2.011745  0  0  -0.632888  -0.815203  0  2.067154  0
