# generated using pymatgen
data_Zn4H36C48O13
_symmetry_space_group_name_H-M   'P 1'
_cell_length_a   23.78199160
_cell_length_b   23.78347930
_cell_length_c   23.78187764
_cell_angle_alpha   66.23503210
_cell_angle_beta   72.63804371
_cell_angle_gamma   107.37144050
_symmetry_Int_Tables_number   1
_chemical_formula_structural   Zn4H36C48O13
_chemical_formula_sum   'Zn8 H72 C96 O26'
_cell_volume   10311.29826536
_cell_formula_units_Z   2
loop_
 _symmetry_equiv_pos_site_id
 _symmetry_equiv_pos_as_xyz
  1  'x, y, z'
loop_
 _atom_site_type_symbol
 _atom_site_label
 _atom_site_symmetry_multiplicity
 _atom_site_fract_x
 _atom_site_fract_y
 _atom_site_fract_z
 _atom_site_occupancy
 _atom_site_pbe_bader_charge
 _atom_site_pbe_bader_spin_density
 _atom_site_pbe_cm5_charge
 _atom_site_pbe_ddec_charge
 _atom_site_pbe_ddec_spin_density
 _atom_site_pbe_ddec_sum_bond_order
 _atom_site_pbe_magmom
Zn  Zn0  1  0.05717034  0.95687101  0.48596848  1  1.315055  0  0.669279  0.960591  0  2.384754  0
Zn  Zn1  1  0.05716760  0.10030030  0.45687258  1  1.314395  0  0.669282  0.960726  0  2.384685  0
Zn  Zn2  1  0.94282360  0.98596524  0.45686399  1  1.314745  0  0.669208  0.960527  0  2.384722  0
Zn  Zn3  1  0.94284095  0.95686873  0.60030289  1  1.314749  0  0.669349  0.960643  0  2.38453  0
Zn  Zn4  1  0.94283057  0.54313038  0.01403050  1  1.315138  0  0.669291  0.960628  0  2.384618  0
Zn  Zn5  1  0.05717828  0.51403503  0.04313389  1  1.314805  0  0.66923  0.960594  0  2.3847  0
Zn  Zn6  1  0.94282982  0.39969964  0.04313274  1  1.314506  0  0.669242  0.960552  0  2.384634  0
Zn  Zn7  1  0.05715909  0.54312842  0.89969745  1  1.314677  0  0.669288  0.960739  0  2.384596  0
H  H8  1  0.92380130  0.79845250  0.77774849  1  0.114725  0  0.107968  0.112855  0  0.99365  0
H  H9  1  0.07620390  0.70154723  0.72224674  1  0.114558  0  0.107965  0.112894  0  0.993634  0
H  H10  1  0.92379102  0.70155019  0.87464719  1  0.112093  0  0.108022  0.112959  0  0.993859  0
H  H11  1  0.07621458  0.79845097  0.62534819  1  0.111959  0  0.107992  0.112891  0  0.993877  0
H  H12  1  0.92379066  0.12535755  0.29842870  1  0.11157  0  0.107987  0.112957  0  0.993941  0
H  H13  1  0.07621192  0.37464496  0.20157110  1  0.111745  0  0.107974  0.112928  0  0.993918  0
H  H14  1  0.92379845  0.22225893  0.20153238  1  0.114674  0  0.107962  0.112852  0  0.993729  0
H  H15  1  0.07620369  0.27774314  0.29846857  1  0.114631  0  0.107944  0.112791  0  0.993659  0
H  H16  1  0.92358863  0.65189327  0.11222749  1  0.100781  0  0.106127  0.117825  0  0.99604  0
H  H17  1  0.07641758  0.61222178  0.15193142  1  0.101653  0  0.106156  0.117789  0  0.995835  0
H  H18  1  0.92362262  0.88782643  0.34802235  1  0.100831  0  0.106121  0.117838  0  0.995895  0
H  H19  1  0.07633327  0.84800352  0.38787482  1  0.10081  0  0.10615  0.117877  0  0.995862  0
H  H20  1  0.07641765  0.46416090  0.77170293  1  0.065078  0  0.106189  0.117946  0  0.995921  0
H  H21  1  0.92359036  0.27165757  0.96420074  1  0.063995  0  0.1062  0.117885  0  0.995851  0
H  H22  1  0.07633419  0.22834099  0.53580245  1  0.063539  0  0.106155  0.117883  0  0.995742  0
H  H23  1  0.92362475  0.03580412  0.72833334  1  0.063719  0  0.106151  0.117807  0  0.995969  0
H  H24  1  0.73586507  0.46419189  0.11215458  1  0.108421  0  0.106115  0.117839  0  0.995973  0
H  H25  1  0.73585767  0.27165582  0.15198014  1  0.089058  0  0.1061  0.117851  0  0.995864  0
H  H26  1  0.26414453  0.22833931  0.34806351  1  0.089321  0  0.106192  0.117867  0  0.995901  0
H  H27  1  0.26413329  0.03583408  0.38774125  1  0.107563  0  0.106168  0.117938  0  0.995933  0
H  H28  1  0.26414466  0.61214136  0.96418987  1  0.108533  0  0.106157  0.11796  0  0.995887  0
H  H29  1  0.26413393  0.65197699  0.77164519  1  0.088471  0  0.106129  0.117834  0  0.995761  0
H  H30  1  0.73586873  0.84807046  0.72834184  1  0.08872  0  0.106169  0.1178  0  0.995909  0
H  H31  1  0.73585450  0.88775487  0.53583125  1  0.107483  0  0.106164  0.117934  0  0.995969  0
H  H32  1  0.08095104  0.62275516  0.26103042  1  0.03054  0  0.09616  0.132876  0  0.984822  0
H  H33  1  0.08739795  0.70372605  0.24847484  1  0.023502  0  0.087079  0.121164  0  1.062239  0
H  H34  1  0.14367075  0.70206285  0.18123556  1  0.069097  0  0.096013  0.132555  0  0.984316  0
H  H35  1  0.91904199  0.76097650  0.12275874  1  0.029799  0  0.096093  0.132705  0  0.985111  0
H  H36  1  0.91258691  0.74842697  0.20373320  1  0.027969  0  0.086866  0.120761  0  1.062628  0
H  H37  1  0.85631795  0.68118208  0.20206593  1  0.069349  0  0.096109  0.132623  0  0.984427  0
H  H38  1  0.14361911  0.81872146  0.29769358  1  0.050414  0  0.095973  0.132538  0  0.984453  0
H  H39  1  0.08700753  0.75105520  0.29678224  1  0.028493  0  0.086984  0.120974  0  1.062942  0
H  H40  1  0.08109476  0.73920975  0.37739139  1  0.049305  0  0.096061  0.132808  0  0.984727  0
H  H41  1  0.85633045  0.79761180  0.31875081  1  0.050422  0  0.096031  0.132652  0  0.984345  0
H  H42  1  0.91295188  0.79671940  0.25108061  1  0.022543  0  0.086965  0.12092  0  1.06283  0
H  H43  1  0.91884931  0.87731655  0.23924459  1  0.049843  0  0.096052  0.13275  0  0.984765  0
H  H44  1  0.91905381  0.15802942  0.95820234  1  0.038149  0  0.096124  0.132786  0  0.984883  0
H  H45  1  0.91259594  0.16413507  0.88367857  1  0.024057  0  0.087022  0.121031  0  1.062437  0
H  H46  1  0.85633015  0.17510717  0.94161398  1  0.028421  0  0.096025  0.132553  0  0.984272  0
H  H47  1  0.08096320  0.45817350  0.65806896  1  0.039  0  0.096147  0.132821  0  0.985031  0
H  H48  1  0.08740738  0.38365292  0.66416776  1  0.025908  0  0.0869  0.120939  0  1.062476  0
H  H49  1  0.14368132  0.44157679  0.67515107  1  0.027335  0  0.096078  0.132618  0  0.98464  0
H  H50  1  0.85633334  0.05872315  0.82488975  1  0.042601  0  0.096044  0.132658  0  0.984311  0
H  H51  1  0.91295432  0.11622857  0.83595483  1  0.029864  0  0.086993  0.120901  0  1.062971  0
H  H52  1  0.91884937  0.04153011  0.84188881  1  0.032893  0  0.096019  0.132727  0  0.984824  0
H  H53  1  0.14362518  0.32489975  0.55872058  1  0.043835  0  0.096022  0.13267  0  0.98433  0
H  H54  1  0.08701205  0.33595239  0.61623701  1  0.026187  0  0.086947  0.12096  0  1.062864  0
H  H55  1  0.08110152  0.34189025  0.54153724  1  0.033908  0  0.096121  0.132963  0  0.98471  0
H  H56  1  0.61637692  0.17509848  0.18124592  1  0.044164  0  0.095999  0.132621  0  0.984383  0
H  H57  1  0.54780978  0.16404503  0.24891603  1  0.075864  0  0.086999  0.120882  0  1.062986  0
H  H58  1  0.61657429  0.15811015  0.26075810  1  0.04759  0  0.096029  0.132779  0  0.984844  0
H  H59  1  0.61639265  0.44127669  0.20236265  1  0.039414  0  0.096059  0.132693  0  0.984348  0
H  H60  1  0.54781842  0.38376569  0.20325668  1  0.038294  0  0.086964  0.120863  0  1.062982  0
H  H61  1  0.61657781  0.45846421  0.12265692  1  0.05481  0  0.096122  0.132914  0  0.984792  0
H  H62  1  0.38375404  0.04182112  0.37719879  1  0.049735  0  0.096167  0.132878  0  0.985201  0
H  H63  1  0.45217512  0.11634102  0.29623329  1  0.028227  0  0.086912  0.120959  0  1.062619  0
H  H64  1  0.38326819  0.05841803  0.29788283  1  0.040516  0  0.096117  0.132708  0  0.984569  0
H  H65  1  0.38377198  0.34196675  0.23896204  1  0.050754  0  0.09611  0.132765  0  0.984775  0
H  H66  1  0.45218913  0.33586076  0.25152673  1  0.075308  0  0.087007  0.120938  0  1.062545  0
H  H67  1  0.38328260  0.32489009  0.31876407  1  0.032318  0  0.095987  0.132439  0  0.98451  0
H  H68  1  0.38360787  0.68124268  0.67508919  1  0.044074  0  0.096066  0.132654  0  0.984248  0
H  H69  1  0.45217791  0.74891610  0.66403671  1  0.07607  0  0.087012  0.120998  0  1.062936  0
H  H70  1  0.38341060  0.76074941  0.65810207  1  0.04769  0  0.096104  0.132799  0  0.98474  0
H  H71  1  0.38362262  0.70233535  0.94128763  1  0.039756  0  0.095987  0.132621  0  0.984433  0
H  H72  1  0.45219133  0.70323897  0.88377131  1  0.038172  0  0.087003  0.121031  0  1.062875  0
H  H73  1  0.38343247  0.62263609  0.95846500  1  0.054292  0  0.0961  0.132942  0  0.984747  0
H  H74  1  0.61623191  0.87721827  0.54182096  1  0.049318  0  0.096133  0.132852  0  0.985183  0
H  H75  1  0.54781079  0.79624796  0.61633706  1  0.02737  0  0.086998  0.121098  0  1.062427  0
H  H76  1  0.61671469  0.79790938  0.55840662  1  0.041001  0  0.096114  0.132758  0  0.984356  0
H  H77  1  0.61624519  0.73897696  0.84196972  1  0.050414  0  0.096134  0.132709  0  0.984759  0
H  H78  1  0.54782550  0.75153441  0.83586487  1  0.023231  0  0.086967  0.120896  0  1.062615  0
H  H79  1  0.61673930  0.81877512  0.82489284  1  0.031832  0  0.096104  0.132596  0  0.984266  0
C  C80  1  0.18212590  0.09107770  0.40892639  1  1.535578  0  0.22642  0.606062  0  4.162234  0
C  C81  1  0.99999003  0.13875736  0.36123708  1  1.563154  0  0.227561  0.602805  0  4.173486  0
C  C82  1  0.99998705  0.90892906  0.40894560  1  1.519239  0  0.226359  0.60607  0  4.162298  0
C  C83  1  0.81787287  0.90892216  0.59108620  1  1.535636  0  0.22645  0.606195  0  4.161973  0
C  C84  1  0.00001156  0.86124118  0.63876257  1  1.562981  0  0.22747  0.602764  0  4.173161  0
C  C85  1  0.99999084  0.09105908  0.59106977  1  1.552886  0  0.226428  0.605977  0  4.162438  0
C  C86  1  0.00000249  0.59105407  0.09107039  1  1.519442  0  0.226498  0.606273  0  4.162228  0
C  C87  1  0.00000707  0.36123913  0.13876550  1  1.562992  0  0.227477  0.602746  0  4.173158  0
C  C88  1  0.81787188  0.40892951  0.09105742  1  1.534872  0  0.22638  0.606073  0  4.162529  0
C  C89  1  0.99999226  0.40891709  0.90895655  1  1.553099  0  0.226605  0.606401  0  4.161943  0
C  C90  1  0.99998726  0.63875737  0.86123841  1  1.563188  0  0.227514  0.602865  0  4.173047  0
C  C91  1  0.18212830  0.59105937  0.90891667  1  1.53544  0  0.226364  0.606309  0  4.161968  0
C  C92  1  0.00000352  0.80371869  0.69627969  1  -0.032166  0  -0.014439  -0.030329  0  3.966018  0
C  C93  1  0.99999968  0.69627956  0.80371589  1  -0.0318  0  -0.014359  -0.030248  0  3.965948  0
C  C94  1  0.95687959  0.77674602  0.76637412  1  -0.042998  0  -0.07961  -0.090977  0  3.972162  0
C  C95  1  0.04312420  0.72325438  0.73362168  1  -0.043273  0  -0.079669  -0.091107  0  3.97252  0
C  C96  1  0.95687159  0.72325624  0.81986595  1  -0.043975  0  -0.079794  -0.0914  0  3.971974  0
C  C97  1  0.04313220  0.77674416  0.68013069  1  -0.042506  0  -0.079589  -0.091091  0  3.97218  0
C  C98  1  0.00000185  0.19628388  0.30371824  1  -0.031598  0  -0.014451  -0.030266  0  3.966243  0
C  C99  1  0.00000147  0.30371856  0.19628154  1  -0.031641  0  -0.014412  -0.030287  0  3.966375  0
C  C100  1  0.95687121  0.18013441  0.27673453  1  -0.04303  0  -0.079623  -0.091079  0  3.971762  0
C  C101  1  0.04312966  0.31986534  0.22326604  1  -0.043214  0  -0.079523  -0.090974  0  3.972063  0
C  C102  1  0.95687802  0.23363032  0.22324440  1  -0.043642  0  -0.07971  -0.091338  0  3.972722  0
C  C103  1  0.04312305  0.26637014  0.27675583  1  -0.043004  0  -0.079652  -0.091168  0  3.972683  0
C  C104  1  0.00000317  0.62846545  0.12849417  1  -0.02109  0  -0.021966  -0.032067  0  4.035442  0
C  C105  1  0.95690690  0.65735155  0.13498259  1  -0.00952  0  -0.088765  -0.167481  0  3.962226  0
C  C106  1  0.95597530  0.69250772  0.16971562  1  3e-06  0  7.2e-05  0.135701  0  3.940315  0
C  C107  1  0.99999086  0.69898562  0.19902427  1  0.075461  0  0.001086  0.018161  0  4.022492  0
C  C108  1  0.04401456  0.66969134  0.19255108  1  0.000836  0  8.7e-05  0.135626  0  3.940198  0
C  C109  1  0.04309202  0.63496416  0.15738991  1  -0.010045  0  -0.088677  -0.167017  0  3.962253  0
C  C110  1  0.99998404  0.73460359  0.23465132  1  -0.331315  0  -0.037734  -0.092281  0  4.122559  0
C  C111  1  0.99997868  0.76534604  0.26539853  1  -0.124587  0  -0.037562  -0.091768  0  4.122407  0
C  C112  1  0.99997509  0.80096883  0.30102185  1  0.074885  0  0.001079  0.017837  0  4.022845  0
C  C113  1  0.95599652  0.83031921  0.30743824  1  0.001111  0  8.8e-05  0.135862  0  3.939816  0
C  C114  1  0.95691950  0.86504682  0.34260037  1  -0.009411  0  -0.088585  -0.167237  0  3.962219  0
C  C115  1  0.99997511  0.87150216  0.37153854  1  -0.019656  0  -0.021977  -0.032013  0  4.035445  0
C  C116  1  0.04303170  0.84256779  0.36509687  1  -0.011228  0  -0.088825  -0.167415  0  3.96237  0
C  C117  1  0.04395331  0.80739843  0.33037883  1  0.004031  0  3.5e-05  0.135803  0  3.940238  0
C  C118  1  0.00000468  0.37149600  0.87154046  1  -0.027476  0  -0.021939  -0.032065  0  4.035252  0
C  C119  1  0.04309845  0.40809292  0.79956077  1  0.034321  0  -0.088929  -0.167594  0  3.962115  0
C  C120  1  0.04402501  0.37429168  0.76347509  1  -0.03718  0  -5.3e-05  0.135661  0  3.940301  0
C  C121  1  0.00000433  0.30097546  0.80101413  1  0.140125  0  0.001202  0.018148  0  4.022629  0
C  C122  1  0.95598685  0.26343444  0.87432997  1  -0.044353  0  0.000182  0.135884  0  3.939984  0
C  C123  1  0.95691398  0.29951677  0.90813341  1  0.035182  0  -0.088662  -0.167223  0  3.962462  0
C  C124  1  0.99999805  0.26535671  0.76538820  1  -0.327103  0  -0.037853  -0.092405  0  4.122693  0
C  C125  1  0.99999074  0.23462045  0.73463601  1  -0.118621  0  -0.037438  -0.091666  0  4.122511  0
C  C126  1  0.99998303  0.19900418  0.69900718  1  0.138436  0  0.001008  0.017913  0  4.023011  0
C  C127  1  0.04395927  0.23655898  0.62568015  1  -0.044187  0  3e-06  0.135675  0  3.9402  0
C  C128  1  0.04303553  0.20047269  0.59187895  1  0.036155  0  -0.088725  -0.167222  0  3.962202  0
C  C129  1  0.99998191  0.12848549  0.62848076  1  -0.027569  0  -0.021878  -0.031853  0  4.035177  0
C  C130  1  0.95692321  0.09187913  0.70046840  1  0.035777  0  -0.088808  -0.167407  0  3.962402  0
C  C131  1  0.95600127  0.12567975  0.73655589  1  -0.044124  0  0.000168  0.135936  0  3.939828  0
C  C132  1  0.74303592  0.37151070  0.12847692  1  -0.029679  0  -0.021912  -0.032042  0  4.035618  0
C  C133  1  0.70765504  0.40811739  0.13492971  1  0.027593  0  -0.088801  -0.167769  0  3.962088  0
C  C134  1  0.63776547  0.37431796  0.16965309  1  -0.043688  0  0.000193  0.13684  0  3.937897  0
C  C135  1  0.60198951  0.30099384  0.19899443  1  0.076562  0  0.000995  0.018716  0  4.020861  0
C  C136  1  0.63776126  0.26343919  0.19257017  1  -0.007658  0  0.00014  0.135522  0  3.939718  0
C  C137  1  0.70765078  0.29952491  0.15740922  1  0.001789  0  -0.088656  -0.167358  0  3.962538  0
C  C138  1  0.53074535  0.26537631  0.23460780  1  -0.384948  0  -0.037722  -0.092536  0  4.122685  0
C  C139  1  0.46925510  0.23463843  0.26534150  1  -0.065918  0  -0.037536  -0.092298  0  4.122226  0
C  C140  1  0.39800986  0.19901928  0.30095794  1  0.076911  0  0.001165  0.018849  0  4.020626  0
C  C141  1  0.36223752  0.23656104  0.30743714  1  -0.006917  0  6.9e-05  0.135252  0  3.940329  0
C  C142  1  0.29235064  0.20047796  0.34259878  1  0.00154  0  -0.088707  -0.167216  0  3.962438  0
C  C143  1  0.25696223  0.12849904  0.37148938  1  -0.02814  0  -0.021965  -0.032122  0  4.035519  0
C  C144  1  0.29234382  0.09190217  0.36498997  1  0.025189  0  -0.088991  -0.168176  0  3.961892  0
C  C145  1  0.36223054  0.12570402  0.33025765  1  -0.042404  0  0.000174  0.136974  0  3.937775  0
C  C146  1  0.25696354  0.62846852  0.87150544  1  -0.028036  0  -0.021897  -0.032157  0  4.035655  0
C  C147  1  0.29235139  0.63491765  0.90811417  1  0.026643  0  -0.088926  -0.167881  0  3.962426  0
C  C148  1  0.36223860  0.66963790  0.87431816  1  -0.044562  0  3.5e-05  0.136608  0  3.938244  0
C  C149  1  0.39801014  0.69898608  0.80099179  1  0.077596  0  0.000907  0.018613  0  4.020759  0
C  C150  1  0.36223149  0.69256385  0.76343509  1  -0.007269  0  0.000204  0.135666  0  3.939508  0
C  C151  1  0.29234406  0.65740237  0.79951735  1  0.001618  0  -0.088604  -0.167227  0  3.962484  0
C  C152  1  0.46925430  0.73460363  0.76537547  1  -0.068853  0  -0.037612  -0.092366  0  4.122398  0
C  C153  1  0.53074535  0.76534440  0.73463954  1  -0.382259  0  -0.037566  -0.092323  0  4.122133  0
C  C154  1  0.60199017  0.80096786  0.69902024  1  0.078066  0  0.001111  0.01918  0  4.020851  0
C  C155  1  0.63777089  0.80744770  0.73656258  1  -0.00743  0  0.000128  0.135288  0  3.940067  0
C  C156  1  0.70765642  0.84260570  0.70048018  1  0.00168  0  -0.088617  -0.16702  0  3.962484  0
C  C157  1  0.74303853  0.87149768  0.62849864  1  -0.028038  0  -0.022015  -0.032184  0  4.035529  0
C  C158  1  0.70764764  0.86500254  0.59190289  1  0.025802  0  -0.088753  -0.167413  0  3.962499  0
C  C159  1  0.63776228  0.83027156  0.62570137  1  -0.04379  0  -0.000146  0.135203  0  3.94024  0
C  C160  1  0.09137874  0.67507375  0.22254961  1  -0.053836  0  -0.235899  -0.406005  0  3.974331  0
C  C161  1  0.90860959  0.72249750  0.17508368  1  -0.053552  0  -0.235711  -0.405485  0  3.974878  0
C  C162  1  0.09128207  0.77736102  0.32505687  1  -0.058901  0  -0.235657  -0.405838  0  3.974266  0
C  C163  1  0.90866769  0.82498439  0.27739328  1  -0.056431  0  -0.235624  -0.405747  0  3.974167  0
C  C164  1  0.90862048  0.18607894  0.91631207  1  -0.017733  0  -0.235852  -0.405821  0  3.974267  0
C  C165  1  0.09139001  0.41627839  0.68612088  1  -0.023372  0  -0.235729  -0.405778  0  3.974849  0
C  C166  1  0.90866930  0.08368310  0.81392224  1  -0.02774  0  -0.235662  -0.405797  0  3.974319  0
C  C167  1  0.09128847  0.31392446  0.58368672  1  -0.029148  0  -0.235669  -0.406077  0  3.974235  0
C  C168  1  0.60238830  0.18607389  0.22260744  1  -0.106007  0  -0.23564  -0.405769  0  3.974597  0
C  C169  1  0.60239679  0.41631395  0.17498929  1  -0.061684  0  -0.235804  -0.406435  0  3.974036  0
C  C170  1  0.39759663  0.08371505  0.32487738  1  -0.046549  0  -0.23583  -0.406491  0  3.974832  0
C  C171  1  0.39761271  0.31391686  0.27744630  1  -0.0954  0  -0.235747  -0.405516  0  3.97442  0
C  C172  1  0.39759920  0.72260292  0.68606630  1  -0.106311  0  -0.235782  -0.405973  0  3.97428  0
C  C173  1  0.39761321  0.67496828  0.91631786  1  -0.06186  0  -0.235695  -0.406516  0  3.974065  0
C  C174  1  0.60238848  0.82489642  0.58371131  1  -0.045062  0  -0.235814  -0.406103  0  3.975072  0
C  C175  1  0.60240356  0.77745773  0.81392006  1  -0.04244  0  -0.235878  -0.405603  0  3.974243  0
O  O176  1  0.00000075  0.00000221  0.49999943  1  -1.232218  0  -0.572298  -1.025287  0  2.538138  0
O  O177  1  0.15300034  0.02517947  0.43482064  1  -1.166316  0  -0.31794  -0.549721  0  2.337551  0
O  O178  1  0.04043465  0.15704418  0.38339017  1  -1.176838  0  -0.314828  -0.546678  0  2.343108  0
O  O179  1  0.95997800  0.93482202  0.41217666  1  -1.1685  0  -0.317811  -0.54977  0  2.337416  0
O  O180  1  0.15299911  0.12784196  0.41217716  1  -1.167636  0  -0.317769  -0.549622  0  2.337749  0
O  O181  1  0.03999465  0.91217082  0.43483742  1  -1.168986  0  -0.317808  -0.549574  0  2.337951  0
O  O182  1  0.95953566  0.07616023  0.38338615  1  -1.173309  0  -0.315178  -0.546625  0  2.34208  0
O  O183  1  0.84699648  0.93482106  0.52517288  1  -1.166264  0  -0.31802  -0.549934  0  2.337053  0
O  O184  1  0.95957937  0.88339456  0.65704650  1  -1.176598  0  -0.31475  -0.546491  0  2.343015  0
O  O185  1  0.84700365  0.91216348  0.62784550  1  -1.167967  0  -0.317754  -0.549589  0  2.33802  0
O  O186  1  0.04046252  0.88339150  0.57616087  1  -1.173582  0  -0.31521  -0.546831  0  2.341882  0
O  O187  1  0.04000123  0.12783725  0.52516424  1  -1.184799  0  -0.31791  -0.549803  0  2.337446  0
O  O188  1  0.96000470  0.02516798  0.62783514  1  -1.185005  0  -0.317871  -0.549605  0  2.338189  0
O  O189  1  0.00000191  0.50000146  0.99999862  1  -1.232184  0  -0.572273  -1.025273  0  2.538113  0
O  O190  1  0.95999751  0.58781021  0.06518283  1  -1.168731  0  -0.317872  -0.549711  0  2.338282  0
O  O191  1  0.04047053  0.42384378  0.11661449  1  -1.172832  0  -0.315248  -0.546758  0  2.341405  0
O  O192  1  0.84699705  0.37216039  0.08782674  1  -1.167213  0  -0.317803  -0.549672  0  2.337952  0
O  O193  1  0.04002771  0.56517473  0.08782525  1  -1.168713  0  -0.317904  -0.549883  0  2.337138  0
O  O194  1  0.84700033  0.47483013  0.06515630  1  -1.16608  0  -0.317911  -0.549736  0  2.337793  0
O  O195  1  0.95956672  0.34295971  0.11661575  1  -1.177118  0  -0.314784  -0.546477  0  2.343353  0
O  O196  1  0.95998774  0.37215295  0.97484691  1  -1.185346  0  -0.317817  -0.549725  0  2.337623  0
O  O197  1  0.04042526  0.61659728  0.84294575  1  -1.176432  0  -0.315035  -0.546792  0  2.342424  0
O  O198  1  0.03998994  0.47481846  0.87217875  1  -1.184642  0  -0.318058  -0.549967  0  2.337743  0
O  O199  1  0.95954989  0.61661126  0.92383056  1  -1.173988  0  -0.314926  -0.546606  0  2.34238  0
O  O200  1  0.15300379  0.56516535  0.97482368  1  -1.16623  0  -0.317955  -0.549923  0  2.337291  0
O  O201  1  0.15299674  0.58782566  0.87215204  1  -1.168008  0  -0.317751  -0.549733  0  2.337945  0
